Compound 1
Actelion Java MolfileCreator 2.0

  0  0  0  0  0  0              0 V3000
M  V30 BEGIN CTAB
M  V30 COUNTS 37 40 0 0 0
M  V30 BEGIN ATOM
M  V30 1 O 5.1961 2.5 0.0 0
M  V30 2 C 5.1961 1.5 0.0 0
M  V30 3 N 4.3301 0.9999 0.0 0
M  V30 4 C 6.0621 1.0 0.0 0 CFG=1
M  V30 5 C 3.4641 1.4999 0.0 0 CFG=1
M  V30 6 N 6.0621 0.0 0.0 0
M  V30 7 C 6.9282 1.4999 0.0 0
M  V30 8 C 2.598 0.9999 0.0 0
M  V30 9 C 3.4641 2.4999 0.0 0
M  V30 10 C 5.1961 -0.5 0.0 0
M  V30 11 C 6.9282 -0.5 0.0 0
M  V30 12 C 7.7942 1.0 0.0 0
M  V30 13 C 1.732 1.4999 0.0 0
M  V30 14 C 2.598 0.0 0.0 0
M  V30 15 C 2.598 2.9999 0.0 0
M  V30 16 O 4.3301 0.0 0.0 0
M  V30 17 C 5.1961 -1.4999 0.0 0 CFG=1
M  V30 18 C 7.7942 0.0 0.0 0
M  V30 19 C 8.6602 1.5 0.0 0
M  V30 20 C 0.866 0.9999 0.0 0
M  V30 21 C 1.732 2.4999 0.0 0
M  V30 22 C 1.732 -0.5 0.0 0
M  V30 23 N 6.0621 -1.9999 0.0 0
M  V30 24 C 4.3301 -1.9999 0.0 0
M  V30 25 C 8.6602 -0.4999 0.0 0
M  V30 26 C 9.5262 1.0 0.0 0
M  V30 27 C 0.866 0.0 0.0 0
M  V30 28 C 6.0621 -2.9999 0.0 0
M  V30 29 C 4.8301 -2.866 0.0 0
M  V30 30 C 3.4641 -2.5 0.0 0
M  V30 31 C 3.8301 -1.1339 0.0 0
M  V30 32 C 9.5262 0.0 0.0 0
M  V30 33 O 5.1961 -3.5 0.0 0
M  V30 34 C 6.9282 -3.4999 0.0 0 CFG=1
M  V30 35 N 7.7942 -2.9999 0.0 0
M  V30 36 C 6.9282 -4.4999 0.0 0
M  V30 37 C 8.6602 -3.4999 0.0 0
M  V30 END ATOM
M  V30 BEGIN BOND
M  V30 1 2 1 2
M  V30 2 1 2 3
M  V30 3 1 4 2 CFG=3
M  V30 4 1 5 3 CFG=1
M  V30 5 1 4 6
M  V30 6 1 4 7
M  V30 7 1 5 8
M  V30 8 1 5 9
M  V30 9 1 6 10
M  V30 10 1 6 11
M  V30 11 1 7 12
M  V30 12 2 8 13
M  V30 13 1 8 14
M  V30 14 1 9 15
M  V30 15 2 10 16
M  V30 16 1 17 10
M  V30 17 1 11 18
M  V30 18 1 12 19
M  V30 19 1 13 20
M  V30 20 1 13 21
M  V30 21 2 14 22
M  V30 22 1 17 23 CFG=1
M  V30 23 1 17 24
M  V30 24 1 18 25
M  V30 25 2 19 26
M  V30 26 2 20 27
M  V30 27 1 23 28
M  V30 28 1 24 29
M  V30 29 1 24 30
M  V30 30 1 24 31
M  V30 31 2 25 32
M  V30 32 2 28 33
M  V30 33 1 34 28
M  V30 34 1 34 35 CFG=1
M  V30 35 1 34 36
M  V30 36 1 35 37
M  V30 37 2 12 18
M  V30 38 1 15 21
M  V30 39 1 22 27
M  V30 40 1 26 32
M  V30 END BOND
M  V30 BEGIN COLLECTION
M  V30 MDLV30/STEABS ATOMS=(4 4 5 17 34)
M  V30 END COLLECTION
M  V30 END CTAB
M  END
>  <Compound ID>
1

>  <Name>


>  <Smiles>
CN[C@@H](C)C(=O)N[C@H](C(=O)N1CC2=CC=CC=C2C[C@H]1C(=O)N[C@@H]1CCCC2=CC=CC=C21)C(C)(C)C

$$$$
Compound 2
Actelion Java MolfileCreator 2.0

  0  0  0  0  0  0              0 V3000
M  V30 BEGIN CTAB
M  V30 COUNTS 20 22 0 0 0
M  V30 BEGIN ATOM
M  V30 1 O 1.732 -1.5 0.0 0
M  V30 2 C 1.732 -0.5 0.0 0
M  V30 3 N 2.598 0.0 0.0 0
M  V30 4 C 0.866 0.0 0.0 0 CFG=1
M  V30 5 C 2.598 0.9999 0.0 0
M  V30 6 N 0.0 -0.5 0.0 0
M  V30 7 C 0.866 1.0 0.0 0
M  V30 8 O 3.4641 1.4999 0.0 0
M  V30 9 C 1.732 1.4999 0.0 0
M  V30 10 C -0.9135 -0.0932 0.0 0
M  V30 11 C -0.1045 -1.4945 0.0 0
M  V30 12 O -1.1214 0.8848 0.0 0
M  V30 13 C -1.5826 -0.8364 0.0 0
M  V30 14 O 0.6386 -2.1636 0.0 0
M  V30 15 C -1.0826 -1.7024 0.0 0
M  V30 16 C -2.5826 -0.8364 0.0 0
M  V30 17 C -1.5826 -2.5684 0.0 0
M  V30 18 N -3.0826 0.0296 0.0 0
M  V30 19 C -3.0826 -1.7024 0.0 0
M  V30 20 C -2.5826 -2.5684 0.0 0
M  V30 END ATOM
M  V30 BEGIN BOND
M  V30 1 2 1 2
M  V30 2 1 2 3
M  V30 3 1 4 2
M  V30 4 1 3 5
M  V30 5 1 4 6 CFG=1
M  V30 6 1 4 7
M  V30 7 2 5 8
M  V30 8 1 5 9
M  V30 9 1 6 10
M  V30 10 1 6 11
M  V30 11 2 10 12
M  V30 12 1 10 13
M  V30 13 2 11 14
M  V30 14 1 11 15
M  V30 15 1 13 16
M  V30 16 1 15 17
M  V30 17 1 16 18
M  V30 18 2 16 19
M  V30 19 2 17 20
M  V30 20 1 7 9
M  V30 21 2 13 15
M  V30 22 1 19 20
M  V30 END BOND
M  V30 BEGIN COLLECTION
M  V30 MDLV30/STERAC1 ATOMS=(1 4)
M  V30 END COLLECTION
M  V30 END CTAB
M  END
>  <Compound ID>
2

>  <Name>
pomalidomide

>  <Smiles>
NC1=CC=CC2=C1C(=O)N(C1CCC(=O)NC1=O)C2=O

$$$$
Compound 3
Actelion Java MolfileCreator 2.0

  0  0  0  0  0  0              0 V3000
M  V30 BEGIN CTAB
M  V30 COUNTS 19 21 0 0 0
M  V30 BEGIN ATOM
M  V30 1 O 1.732 -1.5 0.0 0
M  V30 2 C 1.732 -0.5 0.0 0
M  V30 3 N 2.598 0.0 0.0 0
M  V30 4 C 0.866 0.0 0.0 0 CFG=1
M  V30 5 C 2.598 0.9999 0.0 0
M  V30 6 N 0.0 -0.5 0.0 0
M  V30 7 C 0.866 1.0 0.0 0
M  V30 8 O 3.4641 1.4999 0.0 0
M  V30 9 C 1.732 1.4999 0.0 0
M  V30 10 C -0.9135 -0.0932 0.0 0
M  V30 11 C -0.1045 -1.4945 0.0 0
M  V30 12 O -1.1214 0.8848 0.0 0
M  V30 13 C -1.5826 -0.8364 0.0 0
M  V30 14 O 0.6386 -2.1636 0.0 0
M  V30 15 C -1.0826 -1.7024 0.0 0
M  V30 16 C -2.5826 -0.8364 0.0 0
M  V30 17 C -1.5826 -2.5684 0.0 0
M  V30 18 C -3.0826 -1.7024 0.0 0
M  V30 19 C -2.5826 -2.5684 0.0 0
M  V30 END ATOM
M  V30 BEGIN BOND
M  V30 1 2 1 2
M  V30 2 1 2 3
M  V30 3 1 4 2
M  V30 4 1 3 5
M  V30 5 1 4 6 CFG=1
M  V30 6 1 4 7
M  V30 7 2 5 8
M  V30 8 1 5 9
M  V30 9 1 6 10
M  V30 10 1 6 11
M  V30 11 2 10 12
M  V30 12 1 10 13
M  V30 13 2 11 14
M  V30 14 1 11 15
M  V30 15 1 13 16
M  V30 16 1 15 17
M  V30 17 2 16 18
M  V30 18 2 17 19
M  V30 19 1 7 9
M  V30 20 2 13 15
M  V30 21 1 18 19
M  V30 END BOND
M  V30 BEGIN COLLECTION
M  V30 MDLV30/STERAC1 ATOMS=(1 4)
M  V30 END COLLECTION
M  V30 END CTAB
M  END
>  <Compound ID>
3

>  <Name>
Thalidomide

>  <Smiles>
O=C1CCC(N2C(=O)C3=CC=CC=C3C2=O)C(=O)N1

$$$$
Compound 4
Actelion Java MolfileCreator 2.0

  0  0  0  0  0  0              0 V3000
M  V30 BEGIN CTAB
M  V30 COUNTS 19 21 0 0 0
M  V30 BEGIN ATOM
M  V30 1 O 1.732 -1.5 0.0 0
M  V30 2 C 1.732 -0.5 0.0 0
M  V30 3 N 2.598 0.0 0.0 0
M  V30 4 C 0.866 0.0 0.0 0 CFG=1
M  V30 5 C 2.598 0.9999 0.0 0
M  V30 6 N 0.0 -0.5 0.0 0
M  V30 7 C 0.866 1.0 0.0 0
M  V30 8 O 3.4641 1.4999 0.0 0
M  V30 9 C 1.732 1.4999 0.0 0
M  V30 10 C -0.9135 -0.0932 0.0 0
M  V30 11 C -0.1045 -1.4945 0.0 0
M  V30 12 O -1.1214 0.8848 0.0 0
M  V30 13 C -1.5826 -0.8364 0.0 0
M  V30 14 C -1.0826 -1.7024 0.0 0
M  V30 15 C -2.5826 -0.8364 0.0 0
M  V30 16 C -1.5826 -2.5684 0.0 0
M  V30 17 C -3.0826 -1.7024 0.0 0
M  V30 18 N -1.0826 -3.4344 0.0 0
M  V30 19 C -2.5826 -2.5684 0.0 0
M  V30 END ATOM
M  V30 BEGIN BOND
M  V30 1 2 1 2
M  V30 2 1 2 3
M  V30 3 1 4 2
M  V30 4 1 3 5
M  V30 5 1 4 6 CFG=1
M  V30 6 1 4 7
M  V30 7 2 5 8
M  V30 8 1 5 9
M  V30 9 1 6 10
M  V30 10 1 6 11
M  V30 11 2 10 12
M  V30 12 1 10 13
M  V30 13 1 11 14
M  V30 14 1 13 15
M  V30 15 1 14 16
M  V30 16 2 15 17
M  V30 17 1 16 18
M  V30 18 2 16 19
M  V30 19 1 7 9
M  V30 20 2 13 14
M  V30 21 1 17 19
M  V30 END BOND
M  V30 BEGIN COLLECTION
M  V30 MDLV30/STERAC1 ATOMS=(1 4)
M  V30 END COLLECTION
M  V30 END CTAB
M  END
>  <Compound ID>
4

>  <Name>
lenalidomide

>  <Smiles>
NC1=CC=CC2=C1CN(C1CCC(=O)NC1=O)C2=O

$$$$
Compound 5
Actelion Java MolfileCreator 2.0

  0  0  0  0  0  0              0 V3000
M  V30 BEGIN CTAB
M  V30 COUNTS 34 36 0 0 0
M  V30 BEGIN ATOM
M  V30 1 S -2.6159 1.3754 0.0 0
M  V30 2 C -1.8069 0.7876 0.0 0
M  V30 3 C -3.4249 0.7876 0.0 0
M  V30 4 C -0.8558 1.0967 0.0 0
M  V30 5 C -2.1159 -0.1633 0.0 0
M  V30 6 N -3.1159 -0.1633 0.0 0
M  V30 7 C -0.6479 2.0748 0.0 0
M  V30 8 C -0.1127 0.4275 0.0 0
M  V30 9 C -1.5281 -0.9723 0.0 0
M  V30 10 C 0.3031 2.3838 0.0 0
M  V30 11 C 0.8383 0.7366 0.0 0
M  V30 12 C 1.0462 1.7147 0.0 0
M  V30 13 C 1.9973 2.0237 0.0 0
M  V30 14 N 2.7404 1.3546 0.0 0
M  V30 15 C 3.6915 1.6636 0.0 0
M  V30 16 O 3.8994 2.6418 0.0 0
M  V30 17 C 4.4346 0.9945 0.0 0 CFG=1
M  V30 18 N 4.3301 0.0 0.0 0
M  V30 19 C 5.4128 1.2024 0.0 0 CFG=2
M  V30 20 C 3.4641 -0.5 0.0 0
M  V30 21 C 5.2436 -0.4067 0.0 0
M  V30 22 F 5.8195 2.1159 0.0 0
M  V30 23 C 5.9128 0.3364 0.0 0 CFG=2
M  V30 24 O 2.598 0.0 0.0 0
M  V30 25 C 3.4641 -1.5 0.0 0 CFG=1
M  V30 26 O 6.9073 0.2318 0.0 0
M  V30 27 N 2.598 -1.9999 0.0 0
M  V30 28 C 4.3301 -2.0 0.0 0
M  V30 29 C 1.732 -1.4999 0.0 0
M  V30 30 C 3.8301 -2.866 0.0 0
M  V30 31 C 5.1961 -2.5 0.0 0
M  V30 32 C 4.8301 -1.1339 0.0 0
M  V30 33 O 1.732 -0.4999 0.0 0
M  V30 34 C 0.866 -1.9999 0.0 0
M  V30 END ATOM
M  V30 BEGIN BOND
M  V30 1 1 1 2
M  V30 2 1 1 3
M  V30 3 1 2 4
M  V30 4 2 2 5
M  V30 5 2 3 6
M  V30 6 2 4 7
M  V30 7 1 4 8
M  V30 8 1 5 9
M  V30 9 1 7 10
M  V30 10 2 8 11
M  V30 11 2 10 12
M  V30 12 1 12 13
M  V30 13 1 13 14
M  V30 14 1 14 15
M  V30 15 2 15 16
M  V30 16 1 17 15 CFG=3
M  V30 17 1 17 18
M  V30 18 1 19 17
M  V30 19 1 18 20
M  V30 20 1 18 21
M  V30 21 1 19 22 CFG=3
M  V30 22 1 23 19
M  V30 23 2 20 24
M  V30 24 1 25 20
M  V30 25 1 23 26 CFG=1
M  V30 26 1 25 27 CFG=3
M  V30 27 1 25 28
M  V30 28 1 27 29
M  V30 29 1 28 30
M  V30 30 1 28 31
M  V30 31 1 28 32
M  V30 32 2 29 33
M  V30 33 1 29 34
M  V30 34 1 5 6
M  V30 35 1 11 12
M  V30 36 1 21 23
M  V30 END BOND
M  V30 BEGIN COLLECTION
M  V30 MDLV30/STEABS ATOMS=(4 17 19 23 25)
M  V30 END COLLECTION
M  V30 END CTAB
M  END
>  <Compound ID>
5

>  <Name>


>  <Smiles>
CC(=O)N[C@H](C(=O)N1C[C@H](O)[C@@H](F)[C@H]1C(=O)NCC1=CC=C(C2=C(C)N=CS2)C=C1)C(C)(C)C

$$$$
Compound 6
Actelion Java MolfileCreator 2.0

  0  0  0  0  0  0              0 V3000
M  V30 BEGIN CTAB
M  V30 COUNTS 20 22 0 0 0
M  V30 BEGIN ATOM
M  V30 1 O 0.866 0.0 0.0 0
M  V30 2 C 0.0 -0.5 0.0 0
M  V30 3 N -0.866 0.0 0.0 0
M  V30 4 C 0.0 -1.4999 0.0 0
M  V30 5 N -1.732 -0.4999 0.0 0
M  V30 6 C -0.866 1.0 0.0 0 CFG=2
M  V30 7 C -0.866 -1.9999 0.0 0
M  V30 8 C 0.866 -1.9999 0.0 0
M  V30 9 N -1.732 -1.4999 0.0 0
M  V30 10 C 0.0 1.4999 0.0 0
M  V30 11 C -1.732 1.5 0.0 0
M  V30 12 C -0.866 -2.9999 0.0 0
M  V30 13 N 1.732 -1.5 0.0 0
M  V30 14 C 0.866 -3.0 0.0 0
M  V30 15 O 0.866 0.9999 0.0 0
M  V30 16 N 0.0 2.4999 0.0 0
M  V30 17 C -1.732 2.5 0.0 0
M  V30 18 C 0.0 -3.4999 0.0 0
M  V30 19 C -0.866 3.0 0.0 0
M  V30 20 O -0.866 4.0 0.0 0
M  V30 END ATOM
M  V30 BEGIN BOND
M  V30 1 2 1 2
M  V30 2 1 2 3
M  V30 3 1 2 4
M  V30 4 1 3 5
M  V30 5 1 6 3 CFG=1
M  V30 6 2 4 7
M  V30 7 1 4 8
M  V30 8 2 5 9
M  V30 9 1 6 10
M  V30 10 1 6 11
M  V30 11 1 7 12
M  V30 12 1 8 13
M  V30 13 2 8 14
M  V30 14 2 10 15
M  V30 15 1 10 16
M  V30 16 1 11 17
M  V30 17 2 12 18
M  V30 18 1 16 19
M  V30 19 2 19 20
M  V30 20 1 7 9
M  V30 21 1 14 18
M  V30 22 1 17 19
M  V30 END BOND
M  V30 BEGIN COLLECTION
M  V30 MDLV30/STERAC1 ATOMS=(1 6)
M  V30 END COLLECTION
M  V30 END CTAB
M  END
>  <Compound ID>
6

>  <Name>
TD-106

>  <Smiles>
NC1=CC=CC2=C1C(=O)N(C1CCC(=O)NC1=O)N=N2

$$$$
Compound 7
Actelion Java MolfileCreator 2.0

  0  0  0  0  0  0              0 V3000
M  V30 BEGIN CTAB
M  V30 COUNTS 44 47 0 0 0
M  V30 BEGIN ATOM
M  V30 1 S 19.9828 6.5387 0.0 0
M  V30 2 C 19.5192 5.1121 0.0 0
M  V30 3 C 21.4828 6.5387 0.0 0
M  V30 4 C 18.0926 4.6486 0.0 0
M  V30 5 C 20.7328 4.2304 0.0 0
M  V30 6 N 21.9463 5.1121 0.0 0
M  V30 7 C 16.9779 5.6523 0.0 0
M  V30 8 C 17.7808 3.1814 0.0 0
M  V30 9 C 20.7328 2.7304 0.0 0
M  V30 10 C 15.5513 5.1888 0.0 0
M  V30 11 C 16.3542 2.7179 0.0 0
M  V30 12 C 15.2395 3.7215 0.0 0
M  V30 13 C 13.8129 3.258 0.0 0
M  V30 14 N 13.501 1.7908 0.0 0
M  V30 15 C 12.0744 1.3273 0.0 0
M  V30 16 O 10.9597 2.331 0.0 0
M  V30 17 C 11.7626 -0.1398 0.0 0 CFG=1
M  V30 18 N 10.3923 -0.75 0.0 0
M  V30 19 C 12.7663 -1.2546 0.0 0
M  V30 20 C 9.0932 0.0 0.0 0
M  V30 21 C 10.549 -2.2417 0.0 0
M  V30 22 C 12.0163 -2.5536 0.0 0 CFG=2
M  V30 23 O 9.0932 1.4999 0.0 0
M  V30 24 C 7.7942 -0.75 0.0 0 CFG=1
M  V30 25 O 12.6264 -3.9239 0.0 0
M  V30 26 N 6.4951 0.0 0.0 0
M  V30 27 C 7.7942 -2.25 0.0 0
M  V30 28 C 6.4951 1.5 0.0 0
M  V30 29 C 9.2942 -2.25 0.0 0
M  V30 30 C 7.7942 -3.75 0.0 0
M  V30 31 C 6.2942 -2.2499 0.0 0
M  V30 32 O 7.7942 2.25 0.0 0
M  V30 33 C 5.1961 2.25 0.0 0 CFG=1
M  V30 34 N 5.1961 3.75 0.0 0
M  V30 35 C 3.8971 1.5 0.0 0
M  V30 36 C 6.4951 4.5 0.0 0
M  V30 37 C 2.598 2.25 0.0 0
M  V30 38 O 7.7942 3.75 0.0 0
M  V30 39 C 6.4951 6.0 0.0 0
M  V30 40 C 1.299 1.4999 0.0 0
M  V30 41 C 2.598 3.75 0.0 0
M  V30 42 C 0.0 2.2499 0.0 0
M  V30 43 C 1.299 4.4999 0.0 0
M  V30 44 C 0.0 3.75 0.0 0
M  V30 END ATOM
M  V30 BEGIN BOND
M  V30 1 1 1 2
M  V30 2 1 1 3
M  V30 3 1 2 4
M  V30 4 2 2 5
M  V30 5 2 3 6
M  V30 6 2 4 7
M  V30 7 1 4 8
M  V30 8 1 5 9
M  V30 9 1 7 10
M  V30 10 2 8 11
M  V30 11 2 10 12
M  V30 12 1 12 13
M  V30 13 1 13 14
M  V30 14 1 14 15
M  V30 15 2 15 16
M  V30 16 1 17 15 CFG=3
M  V30 17 1 17 18
M  V30 18 1 17 19
M  V30 19 1 18 20
M  V30 20 1 18 21
M  V30 21 1 22 19
M  V30 22 2 20 23
M  V30 23 1 24 20
M  V30 24 1 22 25 CFG=1
M  V30 25 1 24 26 CFG=3
M  V30 26 1 24 27
M  V30 27 1 26 28
M  V30 28 1 27 29
M  V30 29 1 27 30
M  V30 30 1 27 31
M  V30 31 2 28 32
M  V30 32 1 33 28
M  V30 33 1 33 34 CFG=3
M  V30 34 1 33 35
M  V30 35 1 34 36
M  V30 36 1 35 37
M  V30 37 2 36 38
M  V30 38 1 36 39
M  V30 39 2 37 40
M  V30 40 1 37 41
M  V30 41 1 40 42
M  V30 42 2 41 43
M  V30 43 2 42 44
M  V30 44 1 5 6
M  V30 45 1 11 12
M  V30 46 1 21 22
M  V30 47 1 43 44
M  V30 END BOND
M  V30 BEGIN COLLECTION
M  V30 MDLV30/STEABS ATOMS=(4 17 22 24 33)
M  V30 END COLLECTION
M  V30 END CTAB
M  END
>  <Compound ID>
7

>  <Name>


>  <Smiles>
CC(=O)N[C@@H](CC1=CC=CC=C1)C(=O)N[C@H](C(=O)N1C[C@H](O)C[C@H]1C(=O)NCC1=CC=C(C2=C(C)N=CS2)C=C1)C(C)(C)C

$$$$
Compound 8
Actelion Java MolfileCreator 2.0

  0  0  0  0  0  0              0 V3000
M  V30 BEGIN CTAB
M  V30 COUNTS 24 26 0 0 0
M  V30 BEGIN ATOM
M  V30 1 Cl 9.0771 -0.6918 0.0 0
M  V30 2 C 7.6099 -1.0036 0.0 0
M  V30 3 C 6.4952 0.0 0.0 0
M  V30 4 C 6.9998 -2.374 0.0 0
M  V30 5 C 5.1961 -0.75 0.0 0
M  V30 6 C 6.4952 1.5 0.0 0
M  V30 7 N 5.508 -2.2172 0.0 0
M  V30 8 C 3.8971 0.0 0.0 0
M  V30 9 C 5.1961 2.25 0.0 0
M  V30 10 N 2.598 -0.75 0.0 0
M  V30 11 C 3.8971 1.5 0.0 0
M  V30 12 S 1.299 0.0 0.0 0
M  V30 13 O 2.049 1.299 0.0 0
M  V30 14 O 0.549 1.299 0.0 0
M  V30 15 C 0.0 -0.75 0.0 0
M  V30 16 C -1.299 0.0 0.0 0
M  V30 17 C 0.0 -2.25 0.0 0
M  V30 18 C -2.598 -0.75 0.0 0
M  V30 19 C -1.299 -3.0 0.0 0
M  V30 20 C -2.598 -2.25 0.0 0
M  V30 21 S -3.8971 -3.0 0.0 0
M  V30 22 O -4.6471 -1.7009 0.0 0
M  V30 23 O -3.1471 -4.299 0.0 0
M  V30 24 N -5.1961 -3.75 0.0 0
M  V30 END ATOM
M  V30 BEGIN BOND
M  V30 1 1 1 2
M  V30 2 1 2 3
M  V30 3 2 2 4
M  V30 4 2 3 5
M  V30 5 1 3 6
M  V30 6 1 4 7
M  V30 7 1 5 8
M  V30 8 2 6 9
M  V30 9 1 8 10
M  V30 10 2 8 11
M  V30 11 1 10 12
M  V30 12 2 12 13
M  V30 13 2 12 14
M  V30 14 1 12 15
M  V30 15 2 15 16
M  V30 16 1 15 17
M  V30 17 1 16 18
M  V30 18 2 17 19
M  V30 19 2 18 20
M  V30 20 1 20 21
M  V30 21 2 21 22
M  V30 22 2 21 23
M  V30 23 1 21 24
M  V30 24 1 5 7
M  V30 25 1 9 11
M  V30 26 1 19 20
M  V30 END BOND
M  V30 END CTAB
M  END
>  <Compound ID>
8

>  <Name>


>  <Smiles>
NS(=O)(=O)C1=CC=C(S(=O)(=O)NC2=CC=CC3=C2[NH]C=C3Cl)C=C1

$$$$
Compound 9
Actelion Java MolfileCreator 2.0

  0  0  0  0  0  0              0 V3000
M  V30 BEGIN CTAB
M  V30 COUNTS 40 44 0 0 0
M  V30 BEGIN ATOM
M  V30 1 Cl -5.7525 2.1309 0.0 0
M  V30 2 C -4.2583 2.288 0.0 0
M  V30 3 C -3.3751 1.0724 0.0 0
M  V30 4 C -3.6472 3.6606 0.0 0
M  V30 5 C -1.8809 1.2295 0.0 0
M  V30 6 C -2.1529 3.8176 0.0 0
M  V30 7 C -1.2698 2.6021 0.0 0
M  V30 8 C 0.2244 2.7591 0.0 0
M  V30 9 N 1.2297 1.6426 0.0 0
M  V30 10 C 0.9756 4.0603 0.0 0
M  V30 11 C 2.6023 2.2537 0.0 0
M  V30 12 N 2.4453 3.7479 0.0 0
M  V30 13 C 0.3645 5.4329 0.0 0
M  V30 14 C 3.9035 1.5024 0.0 0
M  V30 15 C 3.5618 4.7533 0.0 0
M  V30 16 C 1.2035 6.6455 0.0 0
M  V30 17 C -1.1296 5.59 0.0 0
M  V30 18 C 3.9035 0.0 0.0 0
M  V30 19 C 5.2047 2.2537 0.0 0
M  V30 20 O 4.9908 4.289 0.0 0
M  V30 21 N 3.2495 6.2229 0.0 0
M  V30 22 C 0.6365 8.021 0.0 0
M  V30 23 C -1.7408 6.9625 0.0 0
M  V30 24 O 2.6023 -0.7512 0.0 0
M  V30 25 C 5.2047 -0.7512 0.0 0
M  V30 26 C 6.5059 1.5024 0.0 0
M  V30 27 C 4.366 7.2283 0.0 0
M  V30 28 C 1.9088 6.6932 0.0 0
M  V30 29 C -0.8576 8.1781 0.0 0
M  V30 30 C 2.6023 -2.2537 0.0 0
M  V30 31 C 6.5059 0.0 0.0 0
M  V30 32 C 4.0536 8.698 0.0 0
M  V30 33 C 1.5081 8.1569 0.0 0
M  V30 34 Cl -1.4687 9.5507 0.0 0
M  V30 35 C 3.9035 -3.0049 0.0 0
M  V30 36 C 1.3011 -3.0049 0.0 0
M  V30 37 O 7.8071 -0.7512 0.0 0
M  V30 38 O 5.1702 9.7033 0.0 0
M  V30 39 N 2.6247 9.1623 0.0 0
M  V30 40 C 9.1083 0.0 0.0 0
M  V30 END ATOM
M  V30 BEGIN BOND
M  V30 1 1 1 2
M  V30 2 2 2 3
M  V30 3 1 2 4
M  V30 4 1 3 5
M  V30 5 2 4 6
M  V30 6 2 5 7
M  V30 7 1 7 8
M  V30 8 1 8 9
M  V30 9 1 8 10
M  V30 10 2 9 11
M  V30 11 1 10 12
M  V30 12 1 10 13
M  V30 13 1 11 14
M  V30 14 1 12 15
M  V30 15 2 13 16
M  V30 16 1 13 17
M  V30 17 2 14 18
M  V30 18 1 14 19
M  V30 19 2 15 20
M  V30 20 1 15 21
M  V30 21 1 16 22
M  V30 22 2 17 23
M  V30 23 1 18 24
M  V30 24 1 18 25
M  V30 25 2 19 26
M  V30 26 1 21 27
M  V30 27 1 21 28
M  V30 28 2 22 29
M  V30 29 1 24 30
M  V30 30 2 25 31
M  V30 31 1 27 32
M  V30 32 1 28 33
M  V30 33 1 29 34
M  V30 34 1 30 35
M  V30 35 1 30 36
M  V30 36 1 31 37
M  V30 37 2 32 38
M  V30 38 1 32 39
M  V30 39 1 37 40
M  V30 40 1 6 7
M  V30 41 1 11 12
M  V30 42 1 23 29
M  V30 43 1 26 31
M  V30 44 1 33 39
M  V30 END BOND
M  V30 END CTAB
M  END
>  <Compound ID>
9

>  <Name>
Nutlin-3

>  <Smiles>
COC1=CC=C(C2=NC(C3=CC=C(Cl)C=C3)C(C3=CC=C(Cl)C=C3)N2C(=O)N2CCNC(=O)C2)C(OC(C)C)=C1

$$$$
Compound 10
Actelion Java MolfileCreator 2.0

  0  0  0  0  0  0              0 V3000
M  V30 BEGIN CTAB
M  V30 COUNTS 42 45 0 0 0
M  V30 BEGIN ATOM
M  V30 1 Cl 8.7578 -4.4785 0.0 0
M  V30 2 C 7.329 -4.0142 0.0 0
M  V30 3 C 7.0167 -2.5447 0.0 0
M  V30 4 C 6.2126 -5.0195 0.0 0
M  V30 5 F 8.1331 -1.5395 0.0 0
M  V30 6 C 5.5879 -2.0805 0.0 0
M  V30 7 C 4.7838 -4.5552 0.0 0
M  V30 8 C 4.4715 -3.0857 0.0 0
M  V30 9 C 5.2755 -0.611 0.0 0 CFG=2
M  V30 10 C 6.2808 0.5053 0.0 0 CFG=1
M  V30 11 C 3.9031 0.0 0.0 0 CFG=1
M  V30 12 C 7.7749 0.3483 0.0 0
M  V30 13 C 7.099 1.7653 0.0 0
M  V30 14 C 5.5296 1.8064 0.0 0 CFG=1
M  V30 15 N 4.0601 1.494 0.0 0
M  V30 16 C 2.6021 -0.7511 0.0 0
M  V30 17 N 9.269 0.1913 0.0 0
M  V30 18 C 6.5441 3.0505 0.0 0
M  V30 19 C 8.5993 1.6867 0.0 0
M  V30 20 C 5.9972 3.3344 0.0 0
M  V30 21 O 2.6021 -2.2534 0.0 0
M  V30 22 N 1.301 0.0 0.0 0
M  V30 23 F 4.9167 3.1825 0.0 0
M  V30 24 C 7.2352 4.3638 0.0 0
M  V30 25 C 9.4175 2.9466 0.0 0
M  V30 26 C 5.2576 4.3942 0.0 0
M  V30 27 C 0.0 -0.7511 0.0 0
M  V30 28 C 8.7355 4.2852 0.0 0
M  V30 29 C 4.0422 3.5112 0.0 0
M  V30 30 C 4.3746 5.6097 0.0 0
M  V30 31 C 6.4731 5.2773 0.0 0
M  V30 32 C -1.301 0.0 0.0 0
M  V30 33 C 0.0 -2.2534 0.0 0
M  V30 34 Cl 9.5537 5.5452 0.0 0
M  V30 35 O -1.301 1.5023 0.0 0
M  V30 36 C -2.6021 -0.7511 0.0 0
M  V30 37 C -1.301 -3.0046 0.0 0
M  V30 38 C -2.6021 2.2534 0.0 0
M  V30 39 C -2.6021 -2.2534 0.0 0
M  V30 40 C -3.9031 -3.0046 0.0 0
M  V30 41 O -5.2042 -2.2534 0.0 0
M  V30 42 O -3.9031 -4.5069 0.0 0
M  V30 END ATOM
M  V30 BEGIN BOND
M  V30 1 1 1 2
M  V30 2 2 2 3
M  V30 3 1 2 4
M  V30 4 1 3 5
M  V30 5 1 3 6
M  V30 6 2 4 7
M  V30 7 2 6 8
M  V30 8 1 9 6 CFG=1
M  V30 9 1 10 9
M  V30 10 1 11 9
M  V30 11 1 10 12 CFG=1
M  V30 12 1 10 13
M  V30 13 1 14 10
M  V30 14 1 11 15
M  V30 15 1 11 16 CFG=3
M  V30 16 3 12 17
M  V30 17 2 13 18
M  V30 18 1 13 19
M  V30 19 1 14 20 CFG=1
M  V30 20 2 16 21
M  V30 21 1 16 22
M  V30 22 1 18 23
M  V30 23 1 18 24
M  V30 24 2 19 25
M  V30 25 1 20 26
M  V30 26 1 22 27
M  V30 27 2 24 28
M  V30 28 1 26 29
M  V30 29 1 26 30
M  V30 30 1 26 31
M  V30 31 2 27 32
M  V30 32 1 27 33
M  V30 33 1 28 34
M  V30 34 1 32 35
M  V30 35 1 32 36
M  V30 36 2 33 37
M  V30 37 1 35 38
M  V30 38 2 36 39
M  V30 39 1 39 40
M  V30 40 2 40 41
M  V30 41 1 40 42
M  V30 42 1 7 8
M  V30 43 1 14 15
M  V30 44 1 25 28
M  V30 45 1 37 39
M  V30 END BOND
M  V30 BEGIN COLLECTION
M  V30 MDLV30/STEABS ATOMS=(4 9 10 11 14)
M  V30 END COLLECTION
M  V30 END CTAB
M  END
>  <Compound ID>
10

>  <Name>
RG7388

>  <Smiles>
COC1=CC(C(=O)O)=CC=C1NC(=O)[C@@H]1N[C@@H](CC(C)(C)C)[C@](C#N)(C2=CC=C(Cl)C=C2F)[C@H]1C1=CC=CC(Cl)=C1F

$$$$
Compound 11
Actelion Java MolfileCreator 2.0

  0  0  0  0  0  0              0 V3000
M  V30 BEGIN CTAB
M  V30 COUNTS 49 53 0 0 0
M  V30 BEGIN ATOM
M  V30 1 Cl 4.8231 -11.6784 0.0 0
M  V30 2 C 5.706 -10.4632 0.0 0
M  V30 3 C 7.1999 -10.6202 0.0 0
M  V30 4 C 5.0951 -9.091 0.0 0
M  V30 5 C 8.0827 -9.405 0.0 0
M  V30 6 C 5.978 -7.8758 0.0 0
M  V30 7 C 7.4718 -8.0328 0.0 0
M  V30 8 C 8.3547 -6.8176 0.0 0 CFG=2
M  V30 9 N 9.8568 -6.8176 0.0 0
M  V30 10 C 7.8905 -5.389 0.0 0 CFG=2
M  V30 11 C 9.0366 -8.1559 0.0 0
M  V30 12 C 10.3209 -5.389 0.0 0
M  V30 13 N 9.1057 -4.5061 0.0 0
M  V30 14 C 6.462 -4.9249 0.0 0
M  V30 15 C 6.8284 -6.4511 0.0 0
M  V30 16 C 11.7495 -4.9249 0.0 0
M  V30 17 C 9.1057 -3.0041 0.0 0
M  V30 18 C 6.1224 -3.4904 0.0 0
M  V30 19 C 5.3457 -5.9299 0.0 0
M  V30 20 C 12.8657 -5.9299 0.0 0
M  V30 21 C 12.0618 -3.4556 0.0 0
M  V30 22 O 10.4065 -2.253 0.0 0
M  V30 23 N 7.8049 -2.253 0.0 0
M  V30 24 C 4.7211 -2.9915 0.0 0
M  V30 25 C 3.9172 -5.4658 0.0 0
M  V30 26 O 12.5534 -7.3992 0.0 0
M  V30 27 C 14.2943 -5.4658 0.0 0
M  V30 28 C 13.4903 -2.9915 0.0 0
M  V30 29 C 7.8049 -0.751 0.0 0
M  V30 30 C 6.5587 -2.9344 0.0 0
M  V30 31 C 3.6049 -3.9965 0.0 0
M  V30 32 C 11.1249 -7.8633 0.0 0
M  V30 33 C 14.6066 -3.9965 0.0 0
M  V30 34 C 6.5041 0.0 0.0 0
M  V30 35 C 5.2032 -2.253 0.0 0
M  V30 36 Cl 2.1763 -3.5324 0.0 0
M  V30 37 C 10.8126 -9.3326 0.0 0
M  V30 38 C 16.0351 -3.5324 0.0 0
M  V30 39 N 5.2032 -0.751 0.0 0
M  V30 40 C 15.5709 -2.1038 0.0 0
M  V30 41 C 17.4637 -3.0682 0.0 0
M  V30 42 C 16.4993 -4.9609 0.0 0
M  V30 43 C 3.9024 0.0 0.0 0
M  V30 44 C 2.6016 -0.751 0.0 0
M  V30 45 C 1.3008 0.0 0.0 0
M  V30 46 S 0.0 -0.751 0.0 0
M  V30 47 O -0.751 0.5497 0.0 0
M  V30 48 O 0.751 -2.0518 0.0 0
M  V30 49 C -1.3008 -1.502 0.0 0
M  V30 END ATOM
M  V30 BEGIN BOND
M  V30 1 1 1 2
M  V30 2 2 2 3
M  V30 3 1 2 4
M  V30 4 1 3 5
M  V30 5 2 4 6
M  V30 6 2 5 7
M  V30 7 1 8 7
M  V30 8 1 8 9
M  V30 9 1 10 8
M  V30 10 1 8 11 CFG=3
M  V30 11 2 9 12
M  V30 12 1 10 13
M  V30 13 1 10 14
M  V30 14 1 10 15 CFG=3
M  V30 15 1 12 16
M  V30 16 1 13 17
M  V30 17 2 14 18
M  V30 18 1 14 19
M  V30 19 2 16 20
M  V30 20 1 16 21
M  V30 21 2 17 22
M  V30 22 1 17 23
M  V30 23 1 18 24
M  V30 24 2 19 25
M  V30 25 1 20 26
M  V30 26 1 20 27
M  V30 27 2 21 28
M  V30 28 1 23 29
M  V30 29 1 23 30
M  V30 30 2 24 31
M  V30 31 1 26 32
M  V30 32 2 27 33
M  V30 33 1 29 34
M  V30 34 1 30 35
M  V30 35 1 31 36
M  V30 36 1 32 37
M  V30 37 1 33 38
M  V30 38 1 34 39
M  V30 39 1 38 40
M  V30 40 1 38 41
M  V30 41 1 38 42
M  V30 42 1 39 43
M  V30 43 1 43 44
M  V30 44 1 44 45
M  V30 45 1 45 46
M  V30 46 2 46 47
M  V30 47 2 46 48
M  V30 48 1 46 49
M  V30 49 1 6 7
M  V30 50 1 12 13
M  V30 51 1 25 31
M  V30 52 1 28 33
M  V30 53 1 35 39
M  V30 END BOND
M  V30 BEGIN COLLECTION
M  V30 MDLV30/STEABS ATOMS=(2 8 10)
M  V30 END COLLECTION
M  V30 END CTAB
M  END
>  <Compound ID>
11

>  <Name>
RG7112

>  <Smiles>
CCOC1=CC(C(C)(C)C)=CC=C1C1=N[C@@](C)(C2=CC=C(Cl)C=C2)[C@@](C)(C2=CC=C(Cl)C=C2)N1C(=O)N1CCN(CCCS(C)(=O)=O)CC1

$$$$
Compound 12
Actelion Java MolfileCreator 2.0

  0  0  0  0  0  0              0 V3000
M  V30 BEGIN CTAB
M  V30 COUNTS 33 35 0 0 0
M  V30 BEGIN ATOM
M  V30 1 S -2.6159 1.3754 0.0 0
M  V30 2 C -1.8069 0.7876 0.0 0
M  V30 3 C -3.4249 0.7876 0.0 0
M  V30 4 C -0.8558 1.0967 0.0 0
M  V30 5 C -2.1159 -0.1633 0.0 0
M  V30 6 N -3.1159 -0.1633 0.0 0
M  V30 7 C -0.6479 2.0748 0.0 0
M  V30 8 C -0.1127 0.4275 0.0 0
M  V30 9 C -1.5281 -0.9723 0.0 0
M  V30 10 C 0.3031 2.3838 0.0 0
M  V30 11 C 0.8383 0.7366 0.0 0
M  V30 12 C 1.0462 1.7147 0.0 0
M  V30 13 C 1.9973 2.0237 0.0 0
M  V30 14 N 2.7404 1.3546 0.0 0
M  V30 15 C 3.6915 1.6636 0.0 0
M  V30 16 O 3.8994 2.6418 0.0 0
M  V30 17 C 4.4346 0.9945 0.0 0 CFG=1
M  V30 18 N 4.3301 0.0 0.0 0
M  V30 19 C 5.4128 1.2024 0.0 0
M  V30 20 C 3.4641 -0.5 0.0 0
M  V30 21 C 5.2436 -0.4067 0.0 0
M  V30 22 C 5.9128 0.3364 0.0 0 CFG=2
M  V30 23 O 2.598 0.0 0.0 0
M  V30 24 C 3.4641 -1.5 0.0 0 CFG=1
M  V30 25 O 6.9073 0.2318 0.0 0
M  V30 26 N 2.598 -1.9999 0.0 0
M  V30 27 C 4.3301 -2.0 0.0 0
M  V30 28 C 1.732 -1.4999 0.0 0
M  V30 29 C 3.8301 -2.866 0.0 0
M  V30 30 C 5.1961 -2.5 0.0 0
M  V30 31 C 4.8301 -1.1339 0.0 0
M  V30 32 O 1.732 -0.4999 0.0 0
M  V30 33 C 0.866 -1.9999 0.0 0
M  V30 END ATOM
M  V30 BEGIN BOND
M  V30 1 1 1 2
M  V30 2 1 1 3
M  V30 3 1 2 4
M  V30 4 2 2 5
M  V30 5 2 3 6
M  V30 6 2 4 7
M  V30 7 1 4 8
M  V30 8 1 5 9
M  V30 9 1 7 10
M  V30 10 2 8 11
M  V30 11 2 10 12
M  V30 12 1 12 13
M  V30 13 1 13 14
M  V30 14 1 14 15
M  V30 15 2 15 16
M  V30 16 1 17 15 CFG=3
M  V30 17 1 17 18
M  V30 18 1 17 19
M  V30 19 1 18 20
M  V30 20 1 18 21
M  V30 21 1 22 19
M  V30 22 2 20 23
M  V30 23 1 24 20
M  V30 24 1 22 25 CFG=1
M  V30 25 1 24 26 CFG=3
M  V30 26 1 24 27
M  V30 27 1 26 28
M  V30 28 1 27 29
M  V30 29 1 27 30
M  V30 30 1 27 31
M  V30 31 2 28 32
M  V30 32 1 28 33
M  V30 33 1 5 6
M  V30 34 1 11 12
M  V30 35 1 21 22
M  V30 END BOND
M  V30 BEGIN COLLECTION
M  V30 MDLV30/STEABS ATOMS=(3 17 22 24)
M  V30 END COLLECTION
M  V30 END CTAB
M  END
>  <Compound ID>
12

>  <Name>
VH032

>  <Smiles>
CC(=O)N[C@H](C(=O)N1C[C@H](O)C[C@H]1C(=O)NCC1=CC=C(C2=C(C)N=CS2)C=C1)C(C)(C)C

$$$$
Compound 13
Actelion Java MolfileCreator 2.0

  0  0  0  0  0  0              0 V3000
M  V30 BEGIN CTAB
M  V30 COUNTS 37 40 0 0 0
M  V30 BEGIN ATOM
M  V30 1 S -2.6159 1.3754 0.0 0
M  V30 2 C -1.8069 0.7876 0.0 0
M  V30 3 C -3.4249 0.7876 0.0 0
M  V30 4 C -0.8558 1.0967 0.0 0
M  V30 5 C -2.1159 -0.1633 0.0 0
M  V30 6 N -3.1159 -0.1633 0.0 0
M  V30 7 C -0.6479 2.0748 0.0 0
M  V30 8 C -0.1127 0.4275 0.0 0
M  V30 9 C -1.5281 -0.9723 0.0 0
M  V30 10 C 0.3031 2.3838 0.0 0
M  V30 11 C 0.8383 0.7366 0.0 0
M  V30 12 C 1.0462 1.7147 0.0 0
M  V30 13 C 1.9973 2.0237 0.0 0
M  V30 14 N 2.7404 1.3546 0.0 0
M  V30 15 C 3.6915 1.6636 0.0 0
M  V30 16 O 3.8994 2.6418 0.0 0
M  V30 17 C 4.4346 0.9945 0.0 0 CFG=1
M  V30 18 N 4.3301 0.0 0.0 0
M  V30 19 C 5.4128 1.2024 0.0 0
M  V30 20 C 3.4641 -0.5 0.0 0
M  V30 21 C 5.2436 -0.4067 0.0 0
M  V30 22 C 5.9128 0.3364 0.0 0 CFG=2
M  V30 23 O 2.598 0.0 0.0 0
M  V30 24 C 3.4641 -1.5 0.0 0 CFG=1
M  V30 25 O 6.9073 0.2318 0.0 0
M  V30 26 N 2.598 -1.9999 0.0 0
M  V30 27 C 4.3301 -2.0 0.0 0
M  V30 28 C 1.732 -1.4999 0.0 0
M  V30 29 C 3.8301 -2.866 0.0 0
M  V30 30 C 5.1961 -2.5 0.0 0
M  V30 31 C 4.8301 -1.1339 0.0 0
M  V30 32 O 1.732 -0.4999 0.0 0
M  V30 33 C 0.866 -1.9999 0.0 0
M  V30 34 C 1.5731 -2.7071 0.0 0
M  V30 35 C -0.0999 -1.7411 0.0 0
M  V30 36 C 0.6072 -1.034 0.0 0
M  V30 37 N 2.2802 -3.4142 0.0 0
M  V30 END ATOM
M  V30 BEGIN BOND
M  V30 1 1 1 2
M  V30 2 1 1 3
M  V30 3 1 2 4
M  V30 4 2 2 5
M  V30 5 2 3 6
M  V30 6 2 4 7
M  V30 7 1 4 8
M  V30 8 1 5 9
M  V30 9 1 7 10
M  V30 10 2 8 11
M  V30 11 2 10 12
M  V30 12 1 12 13
M  V30 13 1 13 14
M  V30 14 1 14 15
M  V30 15 2 15 16
M  V30 16 1 17 15 CFG=3
M  V30 17 1 17 18
M  V30 18 1 17 19
M  V30 19 1 18 20
M  V30 20 1 18 21
M  V30 21 1 22 19
M  V30 22 2 20 23
M  V30 23 1 24 20
M  V30 24 1 22 25 CFG=1
M  V30 25 1 24 26 CFG=3
M  V30 26 1 24 27
M  V30 27 1 26 28
M  V30 28 1 27 29
M  V30 29 1 27 30
M  V30 30 1 27 31
M  V30 31 2 28 32
M  V30 32 1 28 33
M  V30 33 1 33 34
M  V30 34 1 33 35
M  V30 35 1 33 36
M  V30 36 3 34 37
M  V30 37 1 5 6
M  V30 38 1 11 12
M  V30 39 1 21 22
M  V30 40 1 35 36
M  V30 END BOND
M  V30 BEGIN COLLECTION
M  V30 MDLV30/STEABS ATOMS=(3 17 22 24)
M  V30 END COLLECTION
M  V30 END CTAB
M  END
>  <Compound ID>
13

>  <Name>
VH298

>  <Smiles>
CC1=C(C2=CC=C(CNC(=O)[C@@H]3C[C@@H](O)CN3C(=O)[C@@H](NC(=O)C3(C#N)CC3)C(C)(C)C)C=C2)SC=N1

$$$$
Compound 14
Actelion Java MolfileCreator 2.0

  0  0  0  0  0  0              0 V3000
M  V30 BEGIN CTAB
M  V30 COUNTS 36 39 0 0 0
M  V30 BEGIN ATOM
M  V30 1 S -2.6159 1.3754 0.0 0
M  V30 2 C -1.8069 0.7876 0.0 0
M  V30 3 C -3.4249 0.7876 0.0 0
M  V30 4 C -0.8558 1.0967 0.0 0
M  V30 5 C -2.1159 -0.1633 0.0 0
M  V30 6 N -3.1159 -0.1633 0.0 0
M  V30 7 C -0.6479 2.0748 0.0 0
M  V30 8 C -0.1127 0.4275 0.0 0
M  V30 9 C -1.5281 -0.9723 0.0 0
M  V30 10 C 0.3031 2.3838 0.0 0
M  V30 11 C 0.8383 0.7366 0.0 0
M  V30 12 C 1.0462 1.7147 0.0 0
M  V30 13 C 1.9973 2.0237 0.0 0
M  V30 14 N 2.7404 1.3546 0.0 0
M  V30 15 C 3.6915 1.6636 0.0 0
M  V30 16 O 3.8994 2.6418 0.0 0
M  V30 17 C 4.4346 0.9945 0.0 0 CFG=1
M  V30 18 N 4.3301 0.0 0.0 0
M  V30 19 C 5.4128 1.2024 0.0 0
M  V30 20 C 3.4641 -0.5 0.0 0
M  V30 21 C 5.2436 -0.4067 0.0 0
M  V30 22 C 5.9128 0.3364 0.0 0 CFG=2
M  V30 23 O 2.598 0.0 0.0 0
M  V30 24 C 3.4641 -1.5 0.0 0 CFG=1
M  V30 25 O 6.9073 0.2318 0.0 0
M  V30 26 N 2.598 -1.9999 0.0 0
M  V30 27 C 4.3301 -2.0 0.0 0
M  V30 28 C 1.732 -1.4999 0.0 0
M  V30 29 C 3.8301 -2.866 0.0 0
M  V30 30 C 5.1961 -2.5 0.0 0
M  V30 31 C 4.8301 -1.1339 0.0 0
M  V30 32 O 1.732 -0.4999 0.0 0
M  V30 33 C 0.866 -1.9999 0.0 0
M  V30 34 F 1.5731 -2.7071 0.0 0
M  V30 35 C -0.1339 -1.9999 0.0 0
M  V30 36 C 0.366 -2.866 0.0 0
M  V30 END ATOM
M  V30 BEGIN BOND
M  V30 1 1 1 2
M  V30 2 1 1 3
M  V30 3 1 2 4
M  V30 4 2 2 5
M  V30 5 2 3 6
M  V30 6 2 4 7
M  V30 7 1 4 8
M  V30 8 1 5 9
M  V30 9 1 7 10
M  V30 10 2 8 11
M  V30 11 2 10 12
M  V30 12 1 12 13
M  V30 13 1 13 14
M  V30 14 1 14 15
M  V30 15 2 15 16
M  V30 16 1 17 15 CFG=3
M  V30 17 1 17 18
M  V30 18 1 17 19
M  V30 19 1 18 20
M  V30 20 1 18 21
M  V30 21 1 22 19
M  V30 22 2 20 23
M  V30 23 1 24 20
M  V30 24 1 22 25 CFG=1
M  V30 25 1 24 26 CFG=3
M  V30 26 1 24 27
M  V30 27 1 26 28
M  V30 28 1 27 29
M  V30 29 1 27 30
M  V30 30 1 27 31
M  V30 31 2 28 32
M  V30 32 1 28 33
M  V30 33 1 33 34
M  V30 34 1 33 35
M  V30 35 1 33 36
M  V30 36 1 5 6
M  V30 37 1 11 12
M  V30 38 1 21 22
M  V30 39 1 35 36
M  V30 END BOND
M  V30 BEGIN COLLECTION
M  V30 MDLV30/STEABS ATOMS=(3 17 22 24)
M  V30 END COLLECTION
M  V30 END CTAB
M  END
>  <Compound ID>
14

>  <Name>
VH101

>  <Smiles>
CC1=C(C2=CC=C(CNC(=O)[C@@H]3C[C@@H](O)CN3C(=O)[C@@H](NC(=O)C3(F)CC3)C(C)(C)C)C=C2)SC=N1

$$$$
Compound 15
Actelion Java MolfileCreator 2.0

  0  0  0  0  0  0              0 V3000
M  V30 BEGIN CTAB
M  V30 COUNTS 34 36 0 0 0
M  V30 BEGIN ATOM
M  V30 1 S 3.3187 7.9666 0.0 0
M  V30 2 C 3.9879 7.2235 0.0 0
M  V30 3 C 3.8187 8.8326 0.0 0
M  V30 4 C 3.78 6.2453 0.0 0
M  V30 5 C 4.9014 7.6302 0.0 0
M  V30 6 N 4.7969 8.6247 0.0 0
M  V30 7 C 2.8289 5.9363 0.0 0
M  V30 8 C 4.5231 5.5762 0.0 0
M  V30 9 C 5.7674 7.1302 0.0 0
M  V30 10 C 2.621 4.9582 0.0 0
M  V30 11 C 4.3152 4.598 0.0 0
M  V30 12 C 3.3641 4.289 0.0 0
M  V30 13 C 3.1562 3.3109 0.0 0 CFG=1
M  V30 14 N 3.8994 2.6418 0.0 0
M  V30 15 C 2.2052 3.0019 0.0 0
M  V30 16 C 3.6915 1.6636 0.0 0
M  V30 17 O 2.7404 1.3546 0.0 0
M  V30 18 C 4.4346 0.9945 0.0 0 CFG=1
M  V30 19 N 5.4128 1.2024 0.0 0
M  V30 20 C 4.3301 0.0 0.0 0
M  V30 21 C 5.8195 2.1159 0.0 0
M  V30 22 C 5.9128 0.3364 0.0 0
M  V30 23 C 5.2436 -0.4067 0.0 0 CFG=2
M  V30 24 O 5.2317 2.9249 0.0 0
M  V30 25 C 6.814 2.2205 0.0 0 CFG=1
M  V30 26 O 5.4515 -1.3848 0.0 0
M  V30 27 N 7.2207 3.134 0.0 0
M  V30 28 C 7.4018 1.4114 0.0 0
M  V30 29 C 6.633 3.943 0.0 0
M  V30 30 C 8.2108 1.9992 0.0 0
M  V30 31 C 7.9896 0.6024 0.0 0
M  V30 32 C 6.5928 0.8237 0.0 0
M  V30 33 O 5.6384 3.8385 0.0 0
M  V30 34 C 7.0397 4.8566 0.0 0
M  V30 END ATOM
M  V30 BEGIN BOND
M  V30 1 1 1 2
M  V30 2 1 1 3
M  V30 3 1 2 4
M  V30 4 2 2 5
M  V30 5 2 3 6
M  V30 6 2 4 7
M  V30 7 1 4 8
M  V30 8 1 5 9
M  V30 9 1 7 10
M  V30 10 2 8 11
M  V30 11 2 10 12
M  V30 12 1 13 12
M  V30 13 1 13 14 CFG=1
M  V30 14 1 13 15
M  V30 15 1 14 16
M  V30 16 2 16 17
M  V30 17 1 18 16 CFG=1
M  V30 18 1 18 19
M  V30 19 1 18 20
M  V30 20 1 19 21
M  V30 21 1 19 22
M  V30 22 1 23 20
M  V30 23 2 21 24
M  V30 24 1 25 21
M  V30 25 1 23 26 CFG=3
M  V30 26 1 25 27 CFG=1
M  V30 27 1 25 28
M  V30 28 1 27 29
M  V30 29 1 28 30
M  V30 30 1 28 31
M  V30 31 1 28 32
M  V30 32 2 29 33
M  V30 33 1 29 34
M  V30 34 1 5 6
M  V30 35 1 11 12
M  V30 36 1 22 23
M  V30 END BOND
M  V30 BEGIN COLLECTION
M  V30 MDLV30/STEABS ATOMS=(4 13 18 23 25)
M  V30 END COLLECTION
M  V30 END CTAB
M  END
>  <Compound ID>
15

>  <Name>
VHL-1

>  <Smiles>
CC(=O)N[C@H](C(=O)N1C[C@H](O)C[C@H]1C(=O)N[C@@H](C)C1=CC=C(C2=C(C)N=CS2)C=C1)C(C)(C)C

$$$$
Compound 16
Actelion Java MolfileCreator 2.0

  0  0  0  0  0  0              0 V3000
M  V30 BEGIN CTAB
M  V30 COUNTS 34 36 0 0 0
M  V30 BEGIN ATOM
M  V30 1 S -2.6159 1.3754 0.0 0
M  V30 2 C -1.8069 0.7876 0.0 0
M  V30 3 C -3.4249 0.7876 0.0 0
M  V30 4 C -0.8558 1.0967 0.0 0
M  V30 5 C -2.1159 -0.1633 0.0 0
M  V30 6 N -3.1159 -0.1633 0.0 0
M  V30 7 C -0.6479 2.0748 0.0 0
M  V30 8 C -0.1127 0.4275 0.0 0
M  V30 9 C -1.5281 -0.9723 0.0 0
M  V30 10 C 0.3031 2.3838 0.0 0
M  V30 11 C 0.8383 0.7366 0.0 0
M  V30 12 C 1.0462 1.7147 0.0 0
M  V30 13 C 1.9973 2.0237 0.0 0
M  V30 14 N 2.7404 1.3546 0.0 0
M  V30 15 C 3.6915 1.6636 0.0 0
M  V30 16 O 3.8994 2.6418 0.0 0
M  V30 17 C 4.4346 0.9945 0.0 0 CFG=1
M  V30 18 N 4.3301 0.0 0.0 0
M  V30 19 C 5.4128 1.2024 0.0 0 CFG=1
M  V30 20 C 3.4641 -0.5 0.0 0
M  V30 21 C 5.2436 -0.4067 0.0 0
M  V30 22 F 5.8195 2.1159 0.0 0
M  V30 23 C 5.9128 0.3364 0.0 0 CFG=2
M  V30 24 O 2.598 0.0 0.0 0
M  V30 25 C 3.4641 -1.5 0.0 0 CFG=1
M  V30 26 O 6.9073 0.2318 0.0 0
M  V30 27 N 2.598 -1.9999 0.0 0
M  V30 28 C 4.3301 -2.0 0.0 0
M  V30 29 C 1.732 -1.4999 0.0 0
M  V30 30 C 3.8301 -2.866 0.0 0
M  V30 31 C 5.1961 -2.5 0.0 0
M  V30 32 C 4.8301 -1.1339 0.0 0
M  V30 33 O 1.732 -0.4999 0.0 0
M  V30 34 C 0.866 -1.9999 0.0 0
M  V30 END ATOM
M  V30 BEGIN BOND
M  V30 1 1 1 2
M  V30 2 1 1 3
M  V30 3 1 2 4
M  V30 4 2 2 5
M  V30 5 2 3 6
M  V30 6 2 4 7
M  V30 7 1 4 8
M  V30 8 1 5 9
M  V30 9 1 7 10
M  V30 10 2 8 11
M  V30 11 2 10 12
M  V30 12 1 12 13
M  V30 13 1 13 14
M  V30 14 1 14 15
M  V30 15 2 15 16
M  V30 16 1 17 15 CFG=3
M  V30 17 1 17 18
M  V30 18 1 19 17
M  V30 19 1 18 20
M  V30 20 1 18 21
M  V30 21 1 19 22 CFG=1
M  V30 22 1 23 19
M  V30 23 2 20 24
M  V30 24 1 25 20
M  V30 25 1 23 26 CFG=1
M  V30 26 1 25 27 CFG=3
M  V30 27 1 25 28
M  V30 28 1 27 29
M  V30 29 1 28 30
M  V30 30 1 28 31
M  V30 31 1 28 32
M  V30 32 2 29 33
M  V30 33 1 29 34
M  V30 34 1 5 6
M  V30 35 1 11 12
M  V30 36 1 21 23
M  V30 END BOND
M  V30 BEGIN COLLECTION
M  V30 MDLV30/STEABS ATOMS=(4 17 19 23 25)
M  V30 END COLLECTION
M  V30 END CTAB
M  END
>  <Compound ID>
16

>  <Name>


>  <Smiles>
CC(=O)N[C@H](C(=O)N1C[C@H](O)[C@H](F)[C@H]1C(=O)NCC1=CC=C(C2=C(C)N=CS2)C=C1)C(C)(C)C

$$$$
Compound 17
Actelion Java MolfileCreator 2.0

  0  0  0  0  0  0              0 V3000
M  V30 BEGIN CTAB
M  V30 COUNTS 29 30 0 0 0
M  V30 BEGIN ATOM
M  V30 1 Cl -1.8069 0.7876 0.0 0
M  V30 2 C -0.8558 1.0967 0.0 0
M  V30 3 C -0.6479 2.0748 0.0 0
M  V30 4 C -0.1127 0.4275 0.0 0
M  V30 5 C 0.3031 2.3838 0.0 0
M  V30 6 C 0.8383 0.7366 0.0 0
M  V30 7 C 1.0462 1.7147 0.0 0
M  V30 8 C 1.9973 2.0237 0.0 0 CFG=1
M  V30 9 N 2.7404 1.3546 0.0 0
M  V30 10 C 2.2052 3.0019 0.0 0
M  V30 11 C 3.6915 1.6636 0.0 0
M  V30 12 O 3.8994 2.6418 0.0 0
M  V30 13 C 4.4346 0.9945 0.0 0 CFG=1
M  V30 14 N 4.3301 0.0 0.0 0
M  V30 15 C 5.4128 1.2024 0.0 0
M  V30 16 C 3.4641 -0.5 0.0 0
M  V30 17 C 5.2436 -0.4067 0.0 0
M  V30 18 C 5.9128 0.3364 0.0 0 CFG=2
M  V30 19 O 2.598 0.0 0.0 0
M  V30 20 C 3.4641 -1.5 0.0 0 CFG=1
M  V30 21 O 6.9073 0.2318 0.0 0
M  V30 22 N 2.598 -1.9999 0.0 0
M  V30 23 C 4.3301 -2.0 0.0 0
M  V30 24 C 1.732 -1.4999 0.0 0
M  V30 25 C 3.8301 -2.866 0.0 0
M  V30 26 C 5.1961 -2.5 0.0 0
M  V30 27 C 4.8301 -1.1339 0.0 0
M  V30 28 O 1.732 -0.4999 0.0 0
M  V30 29 C 0.866 -1.9999 0.0 0
M  V30 END ATOM
M  V30 BEGIN BOND
M  V30 1 1 1 2
M  V30 2 2 2 3
M  V30 3 1 2 4
M  V30 4 1 3 5
M  V30 5 2 4 6
M  V30 6 2 5 7
M  V30 7 1 8 7
M  V30 8 1 8 9 CFG=3
M  V30 9 1 8 10
M  V30 10 1 9 11
M  V30 11 2 11 12
M  V30 12 1 13 11 CFG=3
M  V30 13 1 13 14
M  V30 14 1 13 15
M  V30 15 1 14 16
M  V30 16 1 14 17
M  V30 17 1 18 15
M  V30 18 2 16 19
M  V30 19 1 20 16
M  V30 20 1 18 21 CFG=1
M  V30 21 1 20 22 CFG=3
M  V30 22 1 20 23
M  V30 23 1 22 24
M  V30 24 1 23 25
M  V30 25 1 23 26
M  V30 26 1 23 27
M  V30 27 2 24 28
M  V30 28 1 24 29
M  V30 29 1 6 7
M  V30 30 1 17 18
M  V30 END BOND
M  V30 BEGIN COLLECTION
M  V30 MDLV30/STEABS ATOMS=(4 8 13 18 20)
M  V30 END COLLECTION
M  V30 END CTAB
M  END
>  <Compound ID>
17

>  <Name>


>  <Smiles>
CC(=O)N[C@H](C(=O)N1C[C@H](O)C[C@H]1C(=O)N[C@@H](C)C1=CC=C(Cl)C=C1)C(C)(C)C

$$$$
Compound 18
Actelion Java MolfileCreator 2.0

  0  0  0  0  0  0              0 V3000
M  V30 BEGIN CTAB
M  V30 COUNTS 30 31 0 0 0
M  V30 BEGIN ATOM
M  V30 1 O 2.7404 1.3546 0.0 0
M  V30 2 C 3.6915 1.6636 0.0 0
M  V30 3 N 3.8994 2.6418 0.0 0
M  V30 4 C 4.4346 0.9945 0.0 0 CFG=1
M  V30 5 C 4.8504 2.9508 0.0 0 CFG=2
M  V30 6 N 4.3301 0.0 0.0 0
M  V30 7 C 5.4128 1.2024 0.0 0
M  V30 8 C 5.0583 3.9289 0.0 0
M  V30 9 C 5.5936 2.2816 0.0 0
M  V30 10 C 3.4641 -0.5 0.0 0
M  V30 11 C 5.2436 -0.4067 0.0 0
M  V30 12 C 5.9128 0.3364 0.0 0 CFG=2
M  V30 13 C 4.3152 4.598 0.0 0
M  V30 14 C 6.0094 4.2379 0.0 0
M  V30 15 O 2.598 0.0 0.0 0
M  V30 16 C 3.4641 -1.5 0.0 0 CFG=1
M  V30 17 O 6.9073 0.2318 0.0 0
M  V30 18 C 4.5231 5.5762 0.0 0
M  V30 19 C 6.2173 5.2161 0.0 0
M  V30 20 N 2.598 -1.9999 0.0 0
M  V30 21 C 4.3301 -2.0 0.0 0
M  V30 22 C 5.4742 5.8852 0.0 0
M  V30 23 C 1.732 -1.4999 0.0 0
M  V30 24 C 3.8301 -2.866 0.0 0
M  V30 25 C 5.1961 -2.5 0.0 0
M  V30 26 C 4.8301 -1.1339 0.0 0
M  V30 27 C 5.6821 6.8634 0.0 0
M  V30 28 O 1.732 -0.4999 0.0 0
M  V30 29 C 0.866 -1.9999 0.0 0
M  V30 30 N 5.89 7.8415 0.0 0
M  V30 END ATOM
M  V30 BEGIN BOND
M  V30 1 2 1 2
M  V30 2 1 2 3
M  V30 3 1 4 2 CFG=3
M  V30 4 1 5 3 CFG=3
M  V30 5 1 4 6
M  V30 6 1 4 7
M  V30 7 1 5 8
M  V30 8 1 5 9
M  V30 9 1 6 10
M  V30 10 1 6 11
M  V30 11 1 12 7
M  V30 12 2 8 13
M  V30 13 1 8 14
M  V30 14 2 10 15
M  V30 15 1 16 10
M  V30 16 1 12 17 CFG=1
M  V30 17 1 13 18
M  V30 18 2 14 19
M  V30 19 1 16 20 CFG=3
M  V30 20 1 16 21
M  V30 21 2 18 22
M  V30 22 1 20 23
M  V30 23 1 21 24
M  V30 24 1 21 25
M  V30 25 1 21 26
M  V30 26 1 22 27
M  V30 27 2 23 28
M  V30 28 1 23 29
M  V30 29 3 27 30
M  V30 30 1 11 12
M  V30 31 1 19 22
M  V30 END BOND
M  V30 BEGIN COLLECTION
M  V30 MDLV30/STEABS ATOMS=(4 4 5 12 16)
M  V30 END COLLECTION
M  V30 END CTAB
M  END
>  <Compound ID>
18

>  <Name>


>  <Smiles>
CC(=O)N[C@H](C(=O)N1C[C@H](O)C[C@H]1C(=O)N[C@@H](C)C1=CC=C(C#N)C=C1)C(C)(C)C

$$$$
Compound 19
Actelion Java MolfileCreator 2.0

  0  0  0  0  0  0              0 V3000
M  V30 BEGIN CTAB
M  V30 COUNTS 30 31 0 0 0
M  V30 BEGIN ATOM
M  V30 1 O 2.7404 1.3546 0.0 0
M  V30 2 C 3.6915 1.6636 0.0 0
M  V30 3 N 3.8994 2.6418 0.0 0
M  V30 4 C 4.4346 0.9945 0.0 0 CFG=1
M  V30 5 C 4.8504 2.9508 0.0 0 CFG=2
M  V30 6 N 4.3301 0.0 0.0 0
M  V30 7 C 5.4128 1.2024 0.0 0
M  V30 8 C 5.0583 3.9289 0.0 0
M  V30 9 C 5.5936 2.2816 0.0 0
M  V30 10 C 3.4641 -0.5 0.0 0
M  V30 11 C 5.2436 -0.4067 0.0 0
M  V30 12 C 5.9128 0.3364 0.0 0 CFG=2
M  V30 13 C 4.3152 4.598 0.0 0
M  V30 14 C 6.0094 4.2379 0.0 0
M  V30 15 O 2.598 0.0 0.0 0
M  V30 16 C 3.4641 -1.5 0.0 0 CFG=1
M  V30 17 O 6.9073 0.2318 0.0 0
M  V30 18 C 4.5231 5.5762 0.0 0
M  V30 19 C 6.2173 5.2161 0.0 0
M  V30 20 N 2.598 -1.9999 0.0 0
M  V30 21 C 4.3301 -2.0 0.0 0
M  V30 22 C 5.4742 5.8852 0.0 0
M  V30 23 C 1.732 -1.4999 0.0 0
M  V30 24 C 3.8301 -2.866 0.0 0
M  V30 25 C 5.1961 -2.5 0.0 0
M  V30 26 C 4.8301 -1.1339 0.0 0
M  V30 27 C 5.6821 6.8634 0.0 0
M  V30 28 O 1.732 -0.4999 0.0 0
M  V30 29 C 0.866 -1.9999 0.0 0
M  V30 30 C 5.89 7.8415 0.0 0
M  V30 END ATOM
M  V30 BEGIN BOND
M  V30 1 2 1 2
M  V30 2 1 2 3
M  V30 3 1 4 2 CFG=3
M  V30 4 1 5 3 CFG=3
M  V30 5 1 4 6
M  V30 6 1 4 7
M  V30 7 1 5 8
M  V30 8 1 5 9
M  V30 9 1 6 10
M  V30 10 1 6 11
M  V30 11 1 12 7
M  V30 12 2 8 13
M  V30 13 1 8 14
M  V30 14 2 10 15
M  V30 15 1 16 10
M  V30 16 1 12 17 CFG=1
M  V30 17 1 13 18
M  V30 18 2 14 19
M  V30 19 1 16 20 CFG=3
M  V30 20 1 16 21
M  V30 21 2 18 22
M  V30 22 1 20 23
M  V30 23 1 21 24
M  V30 24 1 21 25
M  V30 25 1 21 26
M  V30 26 1 22 27
M  V30 27 2 23 28
M  V30 28 1 23 29
M  V30 29 3 27 30
M  V30 30 1 11 12
M  V30 31 1 19 22
M  V30 END BOND
M  V30 BEGIN COLLECTION
M  V30 MDLV30/STEABS ATOMS=(4 4 5 12 16)
M  V30 END COLLECTION
M  V30 END CTAB
M  END
>  <Compound ID>
19

>  <Name>


>  <Smiles>
C#CC1=CC=C([C@H](C)NC(=O)[C@@H]2C[C@@H](O)CN2C(=O)[C@@H](NC(C)=O)C(C)(C)C)C=C1

$$$$
Compound 20
Actelion Java MolfileCreator 2.0

  0  0  0  0  0  0              0 V3000
M  V30 BEGIN CTAB
M  V30 COUNTS 31 33 0 0 0
M  V30 BEGIN ATOM
M  V30 1 O 2.7404 1.3546 0.0 0
M  V30 2 C 3.6915 1.6636 0.0 0
M  V30 3 N 3.8994 2.6418 0.0 0
M  V30 4 C 4.4346 0.9945 0.0 0 CFG=1
M  V30 5 C 4.8504 2.9508 0.0 0 CFG=2
M  V30 6 N 4.3301 0.0 0.0 0
M  V30 7 C 5.4128 1.2024 0.0 0
M  V30 8 C 5.0583 3.9289 0.0 0
M  V30 9 C 5.5936 2.2816 0.0 0
M  V30 10 C 3.4641 -0.5 0.0 0
M  V30 11 C 5.2436 -0.4067 0.0 0
M  V30 12 C 5.9128 0.3364 0.0 0 CFG=2
M  V30 13 C 4.3152 4.598 0.0 0
M  V30 14 C 6.0094 4.2379 0.0 0
M  V30 15 O 2.598 0.0 0.0 0
M  V30 16 C 3.4641 -1.5 0.0 0 CFG=1
M  V30 17 O 6.9073 0.2318 0.0 0
M  V30 18 C 4.5231 5.5762 0.0 0
M  V30 19 C 6.2173 5.2161 0.0 0
M  V30 20 N 2.598 -1.9999 0.0 0
M  V30 21 C 4.3301 -2.0 0.0 0
M  V30 22 C 5.4742 5.8852 0.0 0
M  V30 23 C 1.732 -1.4999 0.0 0
M  V30 24 C 3.8301 -2.866 0.0 0
M  V30 25 C 5.1961 -2.5 0.0 0
M  V30 26 C 4.8301 -1.1339 0.0 0
M  V30 27 C 5.6821 6.8634 0.0 0
M  V30 28 O 1.732 -0.4999 0.0 0
M  V30 29 C 0.866 -1.9999 0.0 0
M  V30 30 C 5.3731 7.8144 0.0 0
M  V30 31 C 6.3512 7.6065 0.0 0
M  V30 END ATOM
M  V30 BEGIN BOND
M  V30 1 2 1 2
M  V30 2 1 2 3
M  V30 3 1 4 2 CFG=3
M  V30 4 1 5 3 CFG=3
M  V30 5 1 4 6
M  V30 6 1 4 7
M  V30 7 1 5 8
M  V30 8 1 5 9
M  V30 9 1 6 10
M  V30 10 1 6 11
M  V30 11 1 12 7
M  V30 12 2 8 13
M  V30 13 1 8 14
M  V30 14 2 10 15
M  V30 15 1 16 10
M  V30 16 1 12 17 CFG=1
M  V30 17 1 13 18
M  V30 18 2 14 19
M  V30 19 1 16 20 CFG=3
M  V30 20 1 16 21
M  V30 21 2 18 22
M  V30 22 1 20 23
M  V30 23 1 21 24
M  V30 24 1 21 25
M  V30 25 1 21 26
M  V30 26 1 22 27
M  V30 27 2 23 28
M  V30 28 1 23 29
M  V30 29 1 27 30
M  V30 30 1 27 31
M  V30 31 1 11 12
M  V30 32 1 19 22
M  V30 33 1 30 31
M  V30 END BOND
M  V30 BEGIN COLLECTION
M  V30 MDLV30/STEABS ATOMS=(4 4 5 12 16)
M  V30 END COLLECTION
M  V30 END CTAB
M  END
>  <Compound ID>
20

>  <Name>


>  <Smiles>
CC(=O)N[C@H](C(=O)N1C[C@H](O)C[C@H]1C(=O)N[C@@H](C)C1=CC=C(C2CC2)C=C1)C(C)(C)C

$$$$
Compound 21
Actelion Java MolfileCreator 2.0

  0  0  0  0  0  0              0 V3000
M  V30 BEGIN CTAB
M  V30 COUNTS 31 32 0 0 0
M  V30 BEGIN ATOM
M  V30 1 O 4.1106 2.0319 0.0 0
M  V30 2 C 5.5372 2.4954 0.0 0
M  V30 3 N 5.8491 3.9627 0.0 0
M  V30 4 C 6.6519 1.4917 0.0 0 CFG=1
M  V30 5 C 4.7344 4.9663 0.0 0 CFG=2
M  V30 6 N 6.4951 0.0 0.0 0
M  V30 7 C 8.1192 1.8036 0.0 0
M  V30 8 C 3.3078 4.5028 0.0 0
M  V30 9 C 5.0462 6.4336 0.0 0
M  V30 10 C 5.1961 -0.75 0.0 0
M  V30 11 C 7.8655 -0.6101 0.0 0
M  V30 12 C 8.8692 0.5046 0.0 0 CFG=2
M  V30 13 C 2.9959 3.0356 0.0 0
M  V30 14 C 2.1931 5.5065 0.0 0
M  V30 15 O 3.8971 0.0 0.0 0
M  V30 16 C 5.1961 -2.25 0.0 0 CFG=1
M  V30 17 O 10.3609 0.3478 0.0 0
M  V30 18 C 1.5693 2.5721 0.0 0
M  V30 19 C 0.7665 5.043 0.0 0
M  V30 20 N 3.8971 -3.0 0.0 0
M  V30 21 C 6.4951 -3.0 0.0 0
M  V30 22 C 0.4546 3.5758 0.0 0
M  V30 23 C 2.598 -2.2499 0.0 0
M  V30 24 C 5.7451 -4.299 0.0 0
M  V30 25 C 7.7942 -3.75 0.0 0
M  V30 26 C 7.2451 -1.7009 0.0 0
M  V30 27 C -0.9719 3.1122 0.0 0
M  V30 28 O 2.598 -0.7499 0.0 0
M  V30 29 C 1.299 -2.9999 0.0 0
M  V30 30 C -1.2837 1.645 0.0 0
M  V30 31 C -2.0866 4.1159 0.0 0
M  V30 END ATOM
M  V30 BEGIN BOND
M  V30 1 2 1 2
M  V30 2 1 2 3
M  V30 3 1 4 2 CFG=3
M  V30 4 1 5 3 CFG=3
M  V30 5 1 4 6
M  V30 6 1 4 7
M  V30 7 1 5 8
M  V30 8 1 5 9
M  V30 9 1 6 10
M  V30 10 1 6 11
M  V30 11 1 12 7
M  V30 12 2 8 13
M  V30 13 1 8 14
M  V30 14 2 10 15
M  V30 15 1 16 10
M  V30 16 1 12 17 CFG=1
M  V30 17 1 13 18
M  V30 18 2 14 19
M  V30 19 1 16 20 CFG=3
M  V30 20 1 16 21
M  V30 21 2 18 22
M  V30 22 1 20 23
M  V30 23 1 21 24
M  V30 24 1 21 25
M  V30 25 1 21 26
M  V30 26 1 22 27
M  V30 27 2 23 28
M  V30 28 1 23 29
M  V30 29 1 27 30
M  V30 30 1 27 31
M  V30 31 1 11 12
M  V30 32 1 19 22
M  V30 END BOND
M  V30 BEGIN COLLECTION
M  V30 MDLV30/STEABS ATOMS=(4 4 5 12 16)
M  V30 END COLLECTION
M  V30 END CTAB
M  END
>  <Compound ID>
21

>  <Name>


>  <Smiles>
CC(=O)N[C@H](C(=O)N1C[C@H](O)C[C@H]1C(=O)N[C@@H](C)C1=CC=C(C(C)C)C=C1)C(C)(C)C

$$$$
Compound 22
Actelion Java MolfileCreator 2.0

  0  0  0  0  0  0              0 V3000
M  V30 BEGIN CTAB
M  V30 COUNTS 32 33 0 0 0
M  V30 BEGIN ATOM
M  V30 1 O 5.8491 3.9627 0.0 0
M  V30 2 C 5.5372 2.4954 0.0 0
M  V30 3 N 4.1106 2.0319 0.0 0
M  V30 4 C 6.6519 1.4917 0.0 0 CFG=1
M  V30 5 C 2.9959 3.0356 0.0 0 CFG=2
M  V30 6 N 6.4951 0.0 0.0 0
M  V30 7 C 8.1192 1.8036 0.0 0
M  V30 8 C 3.3078 4.5028 0.0 0
M  V30 9 C 1.5693 2.5721 0.0 0
M  V30 10 C 5.1961 -0.75 0.0 0
M  V30 11 C 7.8655 -0.6101 0.0 0
M  V30 12 C 8.8692 0.5046 0.0 0 CFG=2
M  V30 13 C 4.7344 4.9663 0.0 0
M  V30 14 C 2.1931 5.5065 0.0 0
M  V30 15 O 3.8971 0.0 0.0 0
M  V30 16 C 5.1961 -2.25 0.0 0 CFG=1
M  V30 17 O 10.3609 0.3478 0.0 0
M  V30 18 C 5.0462 6.4336 0.0 0
M  V30 19 C 2.5049 6.9737 0.0 0
M  V30 20 N 3.8971 -3.0 0.0 0
M  V30 21 C 6.4951 -3.0 0.0 0
M  V30 22 C 3.9315 7.4373 0.0 0
M  V30 23 C 2.598 -2.25 0.0 0
M  V30 24 C 5.7451 -4.299 0.0 0
M  V30 25 C 7.7942 -3.75 0.0 0
M  V30 26 C 7.2451 -1.7009 0.0 0
M  V30 27 C 4.2434 8.9045 0.0 0
M  V30 28 O 2.598 -0.7499 0.0 0
M  V30 29 C 1.299 -2.9999 0.0 0
M  V30 30 C 2.7762 9.2164 0.0 0
M  V30 31 C 4.5553 10.3717 0.0 0
M  V30 32 C 5.7106 8.5926 0.0 0
M  V30 END ATOM
M  V30 BEGIN BOND
M  V30 1 2 1 2
M  V30 2 1 2 3
M  V30 3 1 4 2 CFG=3
M  V30 4 1 5 3 CFG=1
M  V30 5 1 4 6
M  V30 6 1 4 7
M  V30 7 1 5 8
M  V30 8 1 5 9
M  V30 9 1 6 10
M  V30 10 1 6 11
M  V30 11 1 12 7
M  V30 12 2 8 13
M  V30 13 1 8 14
M  V30 14 2 10 15
M  V30 15 1 16 10
M  V30 16 1 12 17 CFG=1
M  V30 17 1 13 18
M  V30 18 2 14 19
M  V30 19 1 16 20 CFG=3
M  V30 20 1 16 21
M  V30 21 2 18 22
M  V30 22 1 20 23
M  V30 23 1 21 24
M  V30 24 1 21 25
M  V30 25 1 21 26
M  V30 26 1 22 27
M  V30 27 2 23 28
M  V30 28 1 23 29
M  V30 29 1 27 30
M  V30 30 1 27 31
M  V30 31 1 27 32
M  V30 32 1 11 12
M  V30 33 1 19 22
M  V30 END BOND
M  V30 BEGIN COLLECTION
M  V30 MDLV30/STEABS ATOMS=(4 4 5 12 16)
M  V30 END COLLECTION
M  V30 END CTAB
M  END
>  <Compound ID>
22

>  <Name>


>  <Smiles>
CC(=O)N[C@H](C(=O)N1C[C@H](O)C[C@H]1C(=O)N[C@@H](C)C1=CC=C(C(C)(C)C)C=C1)C(C)(C)C

$$$$
Compound 23
Actelion Java MolfileCreator 2.0

  0  0  0  0  0  0              0 V3000
M  V30 BEGIN CTAB
M  V30 COUNTS 38 40 0 0 0
M  V30 BEGIN ATOM
M  V30 1 S 13.0616 3.8898 0.0 0
M  V30 2 C 11.6913 4.5 0.0 0
M  V30 3 C 14.0653 5.0046 0.0 0
M  V30 4 C 10.3923 3.7499 0.0 0
M  V30 5 C 11.8481 5.9917 0.0 0
M  V30 6 N 13.3153 6.3036 0.0 0
M  V30 7 C 10.3923 2.2499 0.0 0
M  V30 8 C 9.0932 4.4999 0.0 0
M  V30 9 C 10.7334 6.9954 0.0 0
M  V30 10 C 9.0932 1.4999 0.0 0
M  V30 11 C 7.7942 3.7499 0.0 0
M  V30 12 C 7.7942 2.25 0.0 0
M  V30 13 C 6.4951 1.5 0.0 0 CFG=1
M  V30 14 N 6.4951 0.0 0.0 0
M  V30 15 C 5.1961 2.25 0.0 0
M  V30 16 C 7.7942 -0.75 0.0 0
M  V30 17 C 5.1961 3.75 0.0 0
M  V30 18 O 9.0932 0.0 0.0 0
M  V30 19 C 7.7942 -2.25 0.0 0 CFG=1
M  V30 20 O 6.4951 4.5 0.0 0
M  V30 21 N 3.8971 4.5 0.0 0
M  V30 22 N 9.0077 -3.1316 0.0 0
M  V30 23 C 6.5807 -3.1316 0.0 0
M  V30 24 C 3.8971 6.0 0.0 0
M  V30 25 C 10.4343 -2.6681 0.0 0
M  V30 26 C 8.5442 -4.5582 0.0 0
M  V30 27 C 7.0442 -4.5582 0.0 0 CFG=2
M  V30 28 O 10.7462 -1.2009 0.0 0
M  V30 29 C 11.549 -3.6718 0.0 0 CFG=1
M  V30 30 O 6.1625 -5.7717 0.0 0
M  V30 31 N 12.9756 -3.2083 0.0 0
M  V30 32 C 11.2371 -5.139 0.0 0
M  V30 33 C 13.2875 -1.7411 0.0 0
M  V30 34 C 12.7044 -5.4509 0.0 0
M  V30 35 C 10.9253 -6.6062 0.0 0
M  V30 36 C 9.7699 -4.8272 0.0 0
M  V30 37 O 12.1727 -0.7374 0.0 0
M  V30 38 C 14.714 -1.2775 0.0 0
M  V30 END ATOM
M  V30 BEGIN BOND
M  V30 1 1 1 2
M  V30 2 1 1 3
M  V30 3 1 2 4
M  V30 4 2 2 5
M  V30 5 2 3 6
M  V30 6 2 4 7
M  V30 7 1 4 8
M  V30 8 1 5 9
M  V30 9 1 7 10
M  V30 10 2 8 11
M  V30 11 2 10 12
M  V30 12 1 13 12
M  V30 13 1 13 14 CFG=1
M  V30 14 1 13 15
M  V30 15 1 14 16
M  V30 16 1 15 17
M  V30 17 2 16 18
M  V30 18 1 19 16 CFG=1
M  V30 19 2 17 20
M  V30 20 1 17 21
M  V30 21 1 19 22
M  V30 22 1 19 23
M  V30 23 1 21 24
M  V30 24 1 22 25
M  V30 25 1 22 26
M  V30 26 1 27 23
M  V30 27 2 25 28
M  V30 28 1 29 25
M  V30 29 1 27 30 CFG=3
M  V30 30 1 29 31 CFG=1
M  V30 31 1 29 32
M  V30 32 1 31 33
M  V30 33 1 32 34
M  V30 34 1 32 35
M  V30 35 1 32 36
M  V30 36 2 33 37
M  V30 37 1 33 38
M  V30 38 1 5 6
M  V30 39 1 11 12
M  V30 40 1 26 27
M  V30 END BOND
M  V30 BEGIN COLLECTION
M  V30 MDLV30/STEABS ATOMS=(4 13 19 27 29)
M  V30 END COLLECTION
M  V30 END CTAB
M  END
>  <Compound ID>
23

>  <Name>


>  <Smiles>
CNC(=O)C[C@H](NC(=O)[C@@H]1C[C@@H](O)CN1C(=O)[C@@H](NC(C)=O)C(C)(C)C)C1=CC=C(C2=C(C)N=CS2)C=C1

$$$$
Compound 24
Actelion Java MolfileCreator 2.0

  0  0  0  0  0  0              0 V3000
M  V30 BEGIN CTAB
M  V30 COUNTS 39 42 0 0 0
M  V30 BEGIN ATOM
M  V30 1 S 13.0616 3.8898 0.0 0
M  V30 2 C 11.6913 4.5 0.0 0
M  V30 3 C 14.0653 5.0046 0.0 0
M  V30 4 C 10.3923 3.7499 0.0 0
M  V30 5 C 11.8481 5.9917 0.0 0
M  V30 6 N 13.3153 6.3036 0.0 0
M  V30 7 C 10.3923 2.2499 0.0 0
M  V30 8 C 9.0932 4.4999 0.0 0
M  V30 9 C 10.7334 6.9954 0.0 0
M  V30 10 C 9.0932 1.4999 0.0 0
M  V30 11 C 7.7942 3.7499 0.0 0
M  V30 12 C 7.7942 2.25 0.0 0
M  V30 13 C 6.4951 1.5 0.0 0 CFG=1
M  V30 14 N 6.4951 0.0 0.0 0
M  V30 15 C 5.1961 2.25 0.0 0
M  V30 16 C 7.7942 -0.75 0.0 0
M  V30 17 C 5.1961 3.75 0.0 0
M  V30 18 O 9.0932 0.0 0.0 0
M  V30 19 C 7.7942 -2.25 0.0 0 CFG=1
M  V30 20 O 6.4951 4.5 0.0 0
M  V30 21 N 3.8971 4.5 0.0 0
M  V30 22 N 9.0077 -3.1316 0.0 0
M  V30 23 C 6.5807 -3.1316 0.0 0
M  V30 24 C 3.8971 6.0 0.0 0
M  V30 25 C 10.4343 -2.6681 0.0 0
M  V30 26 C 8.5442 -4.5582 0.0 0
M  V30 27 C 7.0442 -4.5582 0.0 0 CFG=2
M  V30 28 O 10.7462 -1.2009 0.0 0
M  V30 29 C 11.549 -3.6718 0.0 0 CFG=1
M  V30 30 O 6.1625 -5.7717 0.0 0
M  V30 31 C 11.2371 -5.139 0.0 0
M  V30 32 C 12.9756 -3.2083 0.0 0
M  V30 33 O 12.2408 -6.2537 0.0 0
M  V30 34 C 9.8668 -5.7491 0.0 0
M  V30 35 C 13.2875 -1.7411 0.0 0
M  V30 36 C 14.0903 -4.212 0.0 0
M  V30 37 N 11.4908 -7.5528 0.0 0
M  V30 38 C 10.0236 -7.2409 0.0 0
M  V30 39 C 8.9089 -8.2446 0.0 0
M  V30 END ATOM
M  V30 BEGIN BOND
M  V30 1 1 1 2
M  V30 2 1 1 3
M  V30 3 1 2 4
M  V30 4 2 2 5
M  V30 5 2 3 6
M  V30 6 2 4 7
M  V30 7 1 4 8
M  V30 8 1 5 9
M  V30 9 1 7 10
M  V30 10 2 8 11
M  V30 11 2 10 12
M  V30 12 1 13 12
M  V30 13 1 13 14 CFG=1
M  V30 14 1 13 15
M  V30 15 1 14 16
M  V30 16 1 15 17
M  V30 17 2 16 18
M  V30 18 1 19 16 CFG=1
M  V30 19 2 17 20
M  V30 20 1 17 21
M  V30 21 1 19 22
M  V30 22 1 19 23
M  V30 23 1 21 24
M  V30 24 1 22 25
M  V30 25 1 22 26
M  V30 26 1 27 23
M  V30 27 2 25 28
M  V30 28 1 29 25 CFG=3
M  V30 29 1 27 30 CFG=3
M  V30 30 1 29 31
M  V30 31 1 29 32
M  V30 32 1 31 33
M  V30 33 2 31 34
M  V30 34 1 32 35
M  V30 35 1 32 36
M  V30 36 1 33 37
M  V30 37 1 34 38
M  V30 38 1 38 39
M  V30 39 1 5 6
M  V30 40 1 11 12
M  V30 41 1 26 27
M  V30 42 2 37 38
M  V30 END BOND
M  V30 BEGIN COLLECTION
M  V30 MDLV30/STEABS ATOMS=(4 13 19 27 29)
M  V30 END COLLECTION
M  V30 END CTAB
M  END
>  <Compound ID>
24

>  <Name>


>  <Smiles>
CNC(=O)C[C@H](NC(=O)[C@@H]1C[C@@H](O)CN1C(=O)[C@@H](C1=CC(C)=NO1)C(C)C)C1=CC=C(C2=C(C)N=CS2)C=C1

$$$$
Compound 25
Actelion Java MolfileCreator 2.0

  0  0  0  0  0  0              0 V3000
M  V30 BEGIN CTAB
M  V30 COUNTS 41 44 0 0 0
M  V30 BEGIN ATOM
M  V30 1 S -0.1567 3.7417 0.0 0
M  V30 2 C 0.0 2.25 0.0 0
M  V30 3 C -1.624 4.0536 0.0 0
M  V30 4 C 1.299 1.5 0.0 0
M  V30 5 C -1.3703 1.6398 0.0 0
M  V30 6 N -2.374 2.7546 0.0 0
M  V30 7 C 2.598 2.25 0.0 0
M  V30 8 C 1.299 0.0 0.0 0
M  V30 9 C -1.6821 0.1726 0.0 0
M  V30 10 C 3.8971 1.5 0.0 0
M  V30 11 C 2.598 -0.7499 0.0 0
M  V30 12 C 3.8971 0.0 0.0 0
M  V30 13 C 5.1961 -0.75 0.0 0 CFG=1
M  V30 14 N 6.4951 0.0 0.0 0
M  V30 15 C 5.1961 -2.25 0.0 0
M  V30 16 C 7.7942 -0.75 0.0 0
M  V30 17 C 3.8971 -3.0 0.0 0
M  V30 18 O 9.0932 0.0 0.0 0
M  V30 19 C 7.7942 -2.25 0.0 0 CFG=1
M  V30 20 O 2.598 -2.25 0.0 0
M  V30 21 N 3.8971 -4.5 0.0 0
M  V30 22 N 9.0077 -3.1316 0.0 0
M  V30 23 C 6.5807 -3.1316 0.0 0
M  V30 24 C 2.598 -5.25 0.0 0
M  V30 25 C 10.4343 -2.6681 0.0 0
M  V30 26 C 8.5442 -4.5582 0.0 0
M  V30 27 C 7.0442 -4.5582 0.0 0 CFG=2
M  V30 28 O 10.7462 -1.2009 0.0 0
M  V30 29 C 11.549 -3.6718 0.0 0 CFG=1
M  V30 30 O 6.1625 -5.7717 0.0 0
M  V30 31 N 12.9756 -3.2083 0.0 0
M  V30 32 C 11.2371 -5.139 0.0 0
M  V30 33 C 13.2875 -1.7411 0.0 0
M  V30 34 C 12.7044 -5.4509 0.0 0
M  V30 35 C 10.9253 -6.6062 0.0 0
M  V30 36 C 9.7699 -4.8272 0.0 0
M  V30 37 O 12.1727 -0.7374 0.0 0
M  V30 38 C 14.714 -1.2775 0.0 0
M  V30 39 F 13.8971 -0.0195 0.0 0
M  V30 40 C 16.1813 -1.5894 0.0 0
M  V30 41 C 15.7177 -0.1628 0.0 0
M  V30 END ATOM
M  V30 BEGIN BOND
M  V30 1 1 1 2
M  V30 2 1 1 3
M  V30 3 1 2 4
M  V30 4 2 2 5
M  V30 5 2 3 6
M  V30 6 2 4 7
M  V30 7 1 4 8
M  V30 8 1 5 9
M  V30 9 1 7 10
M  V30 10 2 8 11
M  V30 11 2 10 12
M  V30 12 1 13 12
M  V30 13 1 13 14 CFG=1
M  V30 14 1 13 15
M  V30 15 1 14 16
M  V30 16 1 15 17
M  V30 17 2 16 18
M  V30 18 1 19 16 CFG=1
M  V30 19 2 17 20
M  V30 20 1 17 21
M  V30 21 1 19 22
M  V30 22 1 19 23
M  V30 23 1 21 24
M  V30 24 1 22 25
M  V30 25 1 22 26
M  V30 26 1 27 23
M  V30 27 2 25 28
M  V30 28 1 29 25
M  V30 29 1 27 30 CFG=3
M  V30 30 1 29 31 CFG=1
M  V30 31 1 29 32
M  V30 32 1 31 33
M  V30 33 1 32 34
M  V30 34 1 32 35
M  V30 35 1 32 36
M  V30 36 2 33 37
M  V30 37 1 33 38
M  V30 38 1 38 39
M  V30 39 1 38 40
M  V30 40 1 38 41
M  V30 41 1 5 6
M  V30 42 1 11 12
M  V30 43 1 26 27
M  V30 44 1 40 41
M  V30 END BOND
M  V30 BEGIN COLLECTION
M  V30 MDLV30/STEABS ATOMS=(4 13 19 27 29)
M  V30 END COLLECTION
M  V30 END CTAB
M  END
>  <Compound ID>
25

>  <Name>


>  <Smiles>
CNC(=O)C[C@H](NC(=O)[C@@H]1C[C@@H](O)CN1C(=O)[C@@H](NC(=O)C1(F)CC1)C(C)(C)C)C1=CC=C(C2=C(C)N=CS2)C=C1

$$$$
Compound 26
Actelion Java MolfileCreator 2.0

  0  0  0  0  0  0              0 V3000
M  V30 BEGIN CTAB
M  V30 COUNTS 42 45 0 0 0
M  V30 BEGIN ATOM
M  V30 1 S 8.7077 2.5932 0.0 0
M  V30 2 C 7.7942 2.9999 0.0 0
M  V30 3 C 9.3769 3.3364 0.0 0
M  V30 4 C 6.9282 2.4999 0.0 0
M  V30 5 C 7.8987 3.9945 0.0 0
M  V30 6 N 8.8769 4.2024 0.0 0
M  V30 7 C 6.9282 1.4999 0.0 0
M  V30 8 C 6.0621 2.9999 0.0 0
M  V30 9 C 7.1556 4.6636 0.0 0
M  V30 10 C 6.0621 0.9999 0.0 0
M  V30 11 C 5.1961 2.4999 0.0 0
M  V30 12 C 5.1961 1.4999 0.0 0
M  V30 13 C 4.3301 1.0 0.0 0 CFG=1
M  V30 14 N 4.3301 0.0 0.0 0
M  V30 15 C 3.4641 1.5 0.0 0
M  V30 16 C 5.1961 -0.5 0.0 0
M  V30 17 C 3.4641 2.5 0.0 0
M  V30 18 O 6.0621 0.0 0.0 0
M  V30 19 C 5.1961 -1.4999 0.0 0 CFG=1
M  V30 20 O 4.3301 3.0 0.0 0
M  V30 21 N 2.598 3.0 0.0 0
M  V30 22 N 6.0051 -2.0877 0.0 0
M  V30 23 C 4.3871 -2.0877 0.0 0
M  V30 24 C 2.598 4.0 0.0 0
M  V30 25 C 6.9562 -1.7787 0.0 0
M  V30 26 C 5.6961 -3.0388 0.0 0
M  V30 27 C 4.6961 -3.0388 0.0 0 CFG=2
M  V30 28 O 7.1641 -0.8006 0.0 0
M  V30 29 C 7.6993 -2.4478 0.0 0 CFG=1
M  V30 30 O 4.1083 -3.8478 0.0 0
M  V30 31 N 8.6504 -2.1388 0.0 0
M  V30 32 C 7.4914 -3.426 0.0 0
M  V30 33 C 8.8583 -1.1607 0.0 0
M  V30 34 C 8.4696 -3.6339 0.0 0
M  V30 35 C 7.2835 -4.4041 0.0 0
M  V30 36 C 6.5133 -3.2181 0.0 0
M  V30 37 O 8.1151 -0.4916 0.0 0
M  V30 38 C 9.8093 -0.8517 0.0 0
M  V30 39 C 9.2647 -0.013 0.0 0
M  V30 40 C 10.7004 -1.3057 0.0 0
M  V30 41 C 9.8617 -1.8503 0.0 0
M  V30 42 N 8.7201 0.8256 0.0 0
M  V30 END ATOM
M  V30 BEGIN BOND
M  V30 1 1 1 2
M  V30 2 1 1 3
M  V30 3 1 2 4
M  V30 4 2 2 5
M  V30 5 2 3 6
M  V30 6 2 4 7
M  V30 7 1 4 8
M  V30 8 1 5 9
M  V30 9 1 7 10
M  V30 10 2 8 11
M  V30 11 2 10 12
M  V30 12 1 13 12
M  V30 13 1 13 14 CFG=1
M  V30 14 1 13 15
M  V30 15 1 14 16
M  V30 16 1 15 17
M  V30 17 2 16 18
M  V30 18 1 19 16 CFG=1
M  V30 19 2 17 20
M  V30 20 1 17 21
M  V30 21 1 19 22
M  V30 22 1 19 23
M  V30 23 1 21 24
M  V30 24 1 22 25
M  V30 25 1 22 26
M  V30 26 1 27 23
M  V30 27 2 25 28
M  V30 28 1 29 25
M  V30 29 1 27 30 CFG=3
M  V30 30 1 29 31 CFG=1
M  V30 31 1 29 32
M  V30 32 1 31 33
M  V30 33 1 32 34
M  V30 34 1 32 35
M  V30 35 1 32 36
M  V30 36 2 33 37
M  V30 37 1 33 38
M  V30 38 1 38 39
M  V30 39 1 38 40
M  V30 40 1 38 41
M  V30 41 3 39 42
M  V30 42 1 5 6
M  V30 43 1 11 12
M  V30 44 1 26 27
M  V30 45 1 40 41
M  V30 END BOND
M  V30 BEGIN COLLECTION
M  V30 MDLV30/STEABS ATOMS=(4 13 19 27 29)
M  V30 END COLLECTION
M  V30 END CTAB
M  END
>  <Compound ID>
26

>  <Name>


>  <Smiles>
CNC(=O)C[C@H](NC(=O)[C@@H]1C[C@@H](O)CN1C(=O)[C@@H](NC(=O)C1(C#N)CC1)C(C)(C)C)C1=CC=C(C2=C(C)N=CS2)C=C1

$$$$
Compound 27
Actelion Java MolfileCreator 2.0

  0  0  0  0  0  0              0 V3000
M  V30 BEGIN CTAB
M  V30 COUNTS 41 44 0 0 0
M  V30 BEGIN ATOM
M  V30 1 S -0.1567 3.7417 0.0 0
M  V30 2 C 0.0 2.25 0.0 0
M  V30 3 C -1.624 4.0536 0.0 0
M  V30 4 C 1.299 1.5 0.0 0
M  V30 5 C -1.3703 1.6398 0.0 0
M  V30 6 N -2.374 2.7546 0.0 0
M  V30 7 C 2.598 2.25 0.0 0
M  V30 8 C 1.299 0.0 0.0 0
M  V30 9 C -1.6821 0.1726 0.0 0
M  V30 10 C 3.8971 1.5 0.0 0
M  V30 11 C 2.598 -0.7499 0.0 0
M  V30 12 C 3.8971 0.0 0.0 0
M  V30 13 C 5.1961 -0.75 0.0 0 CFG=2
M  V30 14 N 6.4951 0.0 0.0 0
M  V30 15 C 5.1961 -2.25 0.0 0
M  V30 16 C 7.7942 -0.75 0.0 0
M  V30 17 C 3.8971 -3.0 0.0 0
M  V30 18 O 9.0932 0.0 0.0 0
M  V30 19 C 7.7942 -2.25 0.0 0 CFG=1
M  V30 20 O 2.598 -2.25 0.0 0
M  V30 21 N 3.8971 -4.5 0.0 0
M  V30 22 N 9.0077 -3.1316 0.0 0
M  V30 23 C 6.5807 -3.1316 0.0 0
M  V30 24 C 2.598 -5.25 0.0 0
M  V30 25 C 10.4343 -2.6681 0.0 0
M  V30 26 C 8.5442 -4.5582 0.0 0
M  V30 27 C 7.0442 -4.5582 0.0 0 CFG=2
M  V30 28 O 10.7462 -1.2009 0.0 0
M  V30 29 C 11.549 -3.6718 0.0 0 CFG=1
M  V30 30 O 6.1625 -5.7717 0.0 0
M  V30 31 N 12.9756 -3.2083 0.0 0
M  V30 32 C 11.2371 -5.139 0.0 0
M  V30 33 C 13.2875 -1.7411 0.0 0
M  V30 34 C 12.7044 -5.4509 0.0 0
M  V30 35 C 10.9253 -6.6062 0.0 0
M  V30 36 C 9.7699 -4.8272 0.0 0
M  V30 37 O 12.1727 -0.7374 0.0 0
M  V30 38 C 14.714 -1.2775 0.0 0
M  V30 39 F 13.8971 -0.0195 0.0 0
M  V30 40 C 16.1813 -1.5894 0.0 0
M  V30 41 C 15.7177 -0.1628 0.0 0
M  V30 END ATOM
M  V30 BEGIN BOND
M  V30 1 1 1 2
M  V30 2 1 1 3
M  V30 3 1 2 4
M  V30 4 2 2 5
M  V30 5 2 3 6
M  V30 6 2 4 7
M  V30 7 1 4 8
M  V30 8 1 5 9
M  V30 9 1 7 10
M  V30 10 2 8 11
M  V30 11 2 10 12
M  V30 12 1 13 12
M  V30 13 1 13 14 CFG=3
M  V30 14 1 13 15
M  V30 15 1 14 16
M  V30 16 1 15 17
M  V30 17 2 16 18
M  V30 18 1 19 16 CFG=1
M  V30 19 2 17 20
M  V30 20 1 17 21
M  V30 21 1 19 22
M  V30 22 1 19 23
M  V30 23 1 21 24
M  V30 24 1 22 25
M  V30 25 1 22 26
M  V30 26 1 27 23
M  V30 27 2 25 28
M  V30 28 1 29 25
M  V30 29 1 27 30 CFG=3
M  V30 30 1 29 31 CFG=1
M  V30 31 1 29 32
M  V30 32 1 31 33
M  V30 33 1 32 34
M  V30 34 1 32 35
M  V30 35 1 32 36
M  V30 36 2 33 37
M  V30 37 1 33 38
M  V30 38 1 38 39
M  V30 39 1 38 40
M  V30 40 1 38 41
M  V30 41 1 5 6
M  V30 42 1 11 12
M  V30 43 1 26 27
M  V30 44 1 40 41
M  V30 END BOND
M  V30 BEGIN COLLECTION
M  V30 MDLV30/STEABS ATOMS=(4 13 19 27 29)
M  V30 END COLLECTION
M  V30 END CTAB
M  END
>  <Compound ID>
27

>  <Name>


>  <Smiles>
CNC(=O)C[C@@H](NC(=O)[C@@H]1C[C@@H](O)CN1C(=O)[C@@H](NC(=O)C1(F)CC1)C(C)(C)C)C1=CC=C(C2=C(C)N=CS2)C=C1

$$$$
Compound 28
Actelion Java MolfileCreator 2.0

  0  0  0  0  0  0              0 V3000
M  V30 BEGIN CTAB
M  V30 COUNTS 41 44 0 0 0
M  V30 BEGIN ATOM
M  V30 1 S -0.1567 3.7417 0.0 0
M  V30 2 C 0.0 2.25 0.0 0
M  V30 3 C -1.624 4.0536 0.0 0
M  V30 4 C 1.299 1.5 0.0 0
M  V30 5 C -1.3703 1.6398 0.0 0
M  V30 6 N -2.374 2.7546 0.0 0
M  V30 7 C 2.598 2.25 0.0 0
M  V30 8 C 1.299 0.0 0.0 0
M  V30 9 C -1.6821 0.1726 0.0 0
M  V30 10 C 3.8971 1.5 0.0 0
M  V30 11 C 2.598 -0.7499 0.0 0
M  V30 12 C 3.8971 0.0 0.0 0
M  V30 13 C 5.1961 -0.75 0.0 0 CFG=1
M  V30 14 N 6.4951 0.0 0.0 0
M  V30 15 C 5.1961 -2.25 0.0 0
M  V30 16 C 7.7942 -0.75 0.0 0
M  V30 17 C 3.8971 -3.0 0.0 0
M  V30 18 O 9.0932 0.0 0.0 0
M  V30 19 C 7.7942 -2.25 0.0 0 CFG=1
M  V30 20 O 2.598 -2.25 0.0 0
M  V30 21 N 3.8971 -4.5 0.0 0
M  V30 22 N 9.0077 -3.1316 0.0 0
M  V30 23 C 6.5807 -3.1316 0.0 0
M  V30 24 C 2.598 -5.25 0.0 0
M  V30 25 C 10.4343 -2.6681 0.0 0
M  V30 26 C 8.5442 -4.5582 0.0 0
M  V30 27 C 7.0442 -4.5582 0.0 0 CFG=2
M  V30 28 O 10.7462 -1.2009 0.0 0
M  V30 29 C 11.549 -3.6718 0.0 0 CFG=2
M  V30 30 O 6.1625 -5.7717 0.0 0
M  V30 31 N 12.9756 -3.2083 0.0 0
M  V30 32 C 11.2371 -5.139 0.0 0
M  V30 33 C 13.2875 -1.7411 0.0 0
M  V30 34 C 12.7044 -5.4509 0.0 0
M  V30 35 C 10.9253 -6.6062 0.0 0
M  V30 36 C 9.7699 -4.8272 0.0 0
M  V30 37 O 12.1727 -0.7374 0.0 0
M  V30 38 C 14.714 -1.2775 0.0 0
M  V30 39 F 13.8971 -0.0195 0.0 0
M  V30 40 C 16.1813 -1.5894 0.0 0
M  V30 41 C 15.7177 -0.1628 0.0 0
M  V30 END ATOM
M  V30 BEGIN BOND
M  V30 1 1 1 2
M  V30 2 1 1 3
M  V30 3 1 2 4
M  V30 4 2 2 5
M  V30 5 2 3 6
M  V30 6 2 4 7
M  V30 7 1 4 8
M  V30 8 1 5 9
M  V30 9 1 7 10
M  V30 10 2 8 11
M  V30 11 2 10 12
M  V30 12 1 13 12
M  V30 13 1 13 14 CFG=1
M  V30 14 1 13 15
M  V30 15 1 14 16
M  V30 16 1 15 17
M  V30 17 2 16 18
M  V30 18 1 19 16 CFG=1
M  V30 19 2 17 20
M  V30 20 1 17 21
M  V30 21 1 19 22
M  V30 22 1 19 23
M  V30 23 1 21 24
M  V30 24 1 22 25
M  V30 25 1 22 26
M  V30 26 1 27 23
M  V30 27 2 25 28
M  V30 28 1 29 25
M  V30 29 1 27 30 CFG=3
M  V30 30 1 29 31 CFG=3
M  V30 31 1 29 32
M  V30 32 1 31 33
M  V30 33 1 32 34
M  V30 34 1 32 35
M  V30 35 1 32 36
M  V30 36 2 33 37
M  V30 37 1 33 38
M  V30 38 1 38 39
M  V30 39 1 38 40
M  V30 40 1 38 41
M  V30 41 1 5 6
M  V30 42 1 11 12
M  V30 43 1 26 27
M  V30 44 1 40 41
M  V30 END BOND
M  V30 BEGIN COLLECTION
M  V30 MDLV30/STEABS ATOMS=(4 13 19 27 29)
M  V30 END COLLECTION
M  V30 END CTAB
M  END
>  <Compound ID>
28

>  <Name>


>  <Smiles>
CNC(=O)C[C@H](NC(=O)[C@@H]1C[C@@H](O)CN1C(=O)[C@H](NC(=O)C1(F)CC1)C(C)(C)C)C1=CC=C(C2=C(C)N=CS2)C=C1

$$$$
Compound 29
Actelion Java MolfileCreator 2.0

  0  0  0  0  0  0              0 V3000
M  V30 BEGIN CTAB
M  V30 COUNTS 38 42 0 0 0
M  V30 BEGIN ATOM
M  V30 1 S 6.9757 -1.5932 0.0 0
M  V30 2 C 6.0621 -1.9999 0.0 0
M  V30 3 C 7.6448 -2.3364 0.0 0
M  V30 4 C 5.1961 -1.4999 0.0 0
M  V30 5 C 6.1667 -2.9945 0.0 0
M  V30 6 N 7.1448 -3.2024 0.0 0
M  V30 7 C 5.1961 -0.5 0.0 0
M  V30 8 C 4.3301 -1.9999 0.0 0
M  V30 9 C 5.4235 -3.6636 0.0 0
M  V30 10 C 4.3301 0.0 0.0 0
M  V30 11 C 3.4641 -1.5 0.0 0
M  V30 12 C 3.4641 -0.5 0.0 0
M  V30 13 C 2.598 0.0 0.0 0
M  V30 14 N 1.732 -0.5 0.0 0
M  V30 15 C 0.866 0.0 0.0 0
M  V30 16 O 0.866 1.0 0.0 0
M  V30 17 C 0.0 -0.5 0.0 0 CFG=1
M  V30 18 N -0.9135 -0.0932 0.0 0
M  V30 19 C -0.1045 -1.4945 0.0 0
M  V30 20 C -1.1214 0.8848 0.0 0
M  V30 21 C -1.5826 -0.8364 0.0 0
M  V30 22 C -1.0826 -1.7024 0.0 0 CFG=2
M  V30 23 O -0.3783 1.554 0.0 0
M  V30 24 C -2.0725 1.1939 0.0 0 CFG=1
M  V30 25 O -1.4894 -2.6159 0.0 0
M  V30 26 N -2.8156 0.5247 0.0 0
M  V30 27 C -2.2804 2.172 0.0 0
M  V30 28 C -3.7938 0.7326 0.0 0
M  V30 29 C -2.7111 -0.4697 0.0 0
M  V30 30 C -1.5372 2.8411 0.0 0
M  V30 31 C -3.2314 2.481 0.0 0
M  V30 32 O -4.2005 1.6462 0.0 0
M  V30 33 C -4.2938 -0.1333 0.0 0
M  V30 34 C -3.6246 -0.8764 0.0 0
M  V30 35 C -5.2719 -0.3412 0.0 0
M  V30 36 C -3.9336 -1.8275 0.0 0
M  V30 37 C -5.5809 -1.2923 0.0 0
M  V30 38 C -4.9118 -2.0354 0.0 0
M  V30 END ATOM
M  V30 BEGIN BOND
M  V30 1 1 1 2
M  V30 2 1 1 3
M  V30 3 1 2 4
M  V30 4 2 2 5
M  V30 5 2 3 6
M  V30 6 2 4 7
M  V30 7 1 4 8
M  V30 8 1 5 9
M  V30 9 1 7 10
M  V30 10 2 8 11
M  V30 11 2 10 12
M  V30 12 1 12 13
M  V30 13 1 13 14
M  V30 14 1 14 15
M  V30 15 2 15 16
M  V30 16 1 17 15 CFG=3
M  V30 17 1 17 18
M  V30 18 1 17 19
M  V30 19 1 18 20
M  V30 20 1 18 21
M  V30 21 1 22 19
M  V30 22 2 20 23
M  V30 23 1 24 20
M  V30 24 1 22 25 CFG=1
M  V30 25 1 24 26 CFG=1
M  V30 26 1 24 27
M  V30 27 1 26 28
M  V30 28 1 26 29
M  V30 29 1 27 30
M  V30 30 1 27 31
M  V30 31 2 28 32
M  V30 32 1 28 33
M  V30 33 1 29 34
M  V30 34 1 33 35
M  V30 35 1 34 36
M  V30 36 2 35 37
M  V30 37 2 36 38
M  V30 38 1 5 6
M  V30 39 1 11 12
M  V30 40 1 21 22
M  V30 41 2 33 34
M  V30 42 1 37 38
M  V30 END BOND
M  V30 BEGIN COLLECTION
M  V30 MDLV30/STEABS ATOMS=(3 17 22 24)
M  V30 END COLLECTION
M  V30 END CTAB
M  END
>  <Compound ID>
29

>  <Name>
VL285

>  <Smiles>
CC1=C(C2=CC=C(CNC(=O)[C@@H]3C[C@@H](O)CN3C(=O)[C@H](C(C)C)N3CC4=CC=CC=C4C3=O)C=C2)SC=N1

$$$$
Compound 30
Actelion Java MolfileCreator 2.0

  0  0  0  0  0  0              0 V3000
M  V30 BEGIN CTAB
M  V30 COUNTS 35 37 0 0 0
M  V30 BEGIN ATOM
M  V30 1 O 4.3301 0.0 0.0 0
M  V30 2 C 5.1961 -0.5 0.0 0
M  V30 3 N 6.0621 0.0 0.0 0
M  V30 4 C 5.1961 -1.4999 0.0 0 CFG=1
M  V30 5 C 6.0621 1.0 0.0 0 CFG=2
M  V30 6 N 4.3871 -2.0877 0.0 0
M  V30 7 C 6.0051 -2.0877 0.0 0
M  V30 8 C 5.1961 1.4999 0.0 0
M  V30 9 C 6.9282 1.4999 0.0 0
M  V30 10 C 3.436 -1.7787 0.0 0
M  V30 11 C 4.6961 -3.0388 0.0 0
M  V30 12 C 5.6961 -3.0388 0.0 0 CFG=2
M  V30 13 C 5.1961 2.4999 0.0 0
M  V30 14 C 4.3301 1.0 0.0 0
M  V30 15 C 6.9282 2.4999 0.0 0
M  V30 16 O 3.2281 -0.8006 0.0 0
M  V30 17 C 2.6929 -2.4478 0.0 0 CFG=1
M  V30 18 O 6.2839 -3.8478 0.0 0
M  V30 19 C 4.3301 3.0 0.0 0
M  V30 20 C 3.4641 1.5 0.0 0
M  V30 21 O 6.0621 2.9999 0.0 0
M  V30 22 N 7.7942 2.9999 0.0 0
M  V30 23 C 2.9008 -3.426 0.0 0
M  V30 24 C 1.7418 -2.1388 0.0 0
M  V30 25 C 3.4641 2.5 0.0 0
M  V30 26 C 7.7942 3.9999 0.0 0
M  V30 27 O 2.2317 -4.1691 0.0 0
M  V30 28 C 3.8143 -3.8327 0.0 0
M  V30 29 C 1.5339 -1.1607 0.0 0
M  V30 30 C 0.9987 -2.808 0.0 0
M  V30 31 C 2.598 3.0 0.0 0
M  V30 32 N 2.7317 -5.0352 0.0 0
M  V30 33 C 3.7098 -4.8273 0.0 0
M  V30 34 C 1.732 3.5 0.0 0
M  V30 35 C 4.453 -5.4964 0.0 0
M  V30 END ATOM
M  V30 BEGIN BOND
M  V30 1 2 1 2
M  V30 2 1 2 3
M  V30 3 1 4 2 CFG=3
M  V30 4 1 5 3 CFG=3
M  V30 5 1 4 6
M  V30 6 1 4 7
M  V30 7 1 5 8
M  V30 8 1 5 9
M  V30 9 1 6 10
M  V30 10 1 6 11
M  V30 11 1 12 7
M  V30 12 2 8 13
M  V30 13 1 8 14
M  V30 14 1 9 15
M  V30 15 2 10 16
M  V30 16 1 17 10 CFG=1
M  V30 17 1 12 18 CFG=1
M  V30 18 1 13 19
M  V30 19 2 14 20
M  V30 20 2 15 21
M  V30 21 1 15 22
M  V30 22 1 17 23
M  V30 23 1 17 24
M  V30 24 2 19 25
M  V30 25 1 22 26
M  V30 26 1 23 27
M  V30 27 2 23 28
M  V30 28 1 24 29
M  V30 29 1 24 30
M  V30 30 1 25 31
M  V30 31 1 27 32
M  V30 32 1 28 33
M  V30 33 3 31 34
M  V30 34 1 33 35
M  V30 35 1 11 12
M  V30 36 1 20 25
M  V30 37 2 32 33
M  V30 END BOND
M  V30 BEGIN COLLECTION
M  V30 MDLV30/STEABS ATOMS=(4 4 5 12 17)
M  V30 END COLLECTION
M  V30 END CTAB
M  END
>  <Compound ID>
30

>  <Name>


>  <Smiles>
C#CC1=CC=C([C@H](CC(=O)NC)NC(=O)[C@@H]2C[C@@H](O)CN2C(=O)[C@@H](C2=CC(C)=NO2)C(C)C)C=C1

$$$$
Compound 31
Actelion Java MolfileCreator 2.0

  0  0  0  0  0  0              0 V3000
M  V30 BEGIN CTAB
M  V30 COUNTS 35 37 0 0 0
M  V30 BEGIN ATOM
M  V30 1 O 4.3301 0.0 0.0 0
M  V30 2 C 5.1961 -0.5 0.0 0
M  V30 3 N 6.0621 0.0 0.0 0
M  V30 4 C 5.1961 -1.4999 0.0 0 CFG=1
M  V30 5 C 6.0621 1.0 0.0 0 CFG=2
M  V30 6 N 4.3871 -2.0877 0.0 0
M  V30 7 C 6.0051 -2.0877 0.0 0
M  V30 8 C 5.1961 1.4999 0.0 0
M  V30 9 C 6.9282 1.4999 0.0 0
M  V30 10 C 3.436 -1.7787 0.0 0
M  V30 11 C 4.6961 -3.0388 0.0 0
M  V30 12 C 5.6961 -3.0388 0.0 0 CFG=2
M  V30 13 C 5.1961 2.4999 0.0 0
M  V30 14 C 4.3301 1.0 0.0 0
M  V30 15 C 6.9282 2.4999 0.0 0
M  V30 16 O 3.2281 -0.8006 0.0 0
M  V30 17 C 2.6929 -2.4478 0.0 0 CFG=1
M  V30 18 O 6.2839 -3.8478 0.0 0
M  V30 19 C 4.3301 3.0 0.0 0
M  V30 20 C 3.4641 1.5 0.0 0
M  V30 21 O 6.0621 2.9999 0.0 0
M  V30 22 N 7.7942 2.9999 0.0 0
M  V30 23 C 2.9008 -3.426 0.0 0
M  V30 24 C 1.7418 -2.1388 0.0 0
M  V30 25 C 3.4641 2.5 0.0 0
M  V30 26 C 7.7942 3.9999 0.0 0
M  V30 27 O 2.2317 -4.1691 0.0 0
M  V30 28 C 3.8143 -3.8327 0.0 0
M  V30 29 C 1.5339 -1.1607 0.0 0
M  V30 30 C 0.9987 -2.808 0.0 0
M  V30 31 C 2.598 3.0 0.0 0
M  V30 32 N 2.7317 -5.0352 0.0 0
M  V30 33 C 3.7098 -4.8273 0.0 0
M  V30 34 N 1.732 3.5 0.0 0
M  V30 35 C 4.453 -5.4964 0.0 0
M  V30 END ATOM
M  V30 BEGIN BOND
M  V30 1 2 1 2
M  V30 2 1 2 3
M  V30 3 1 4 2 CFG=3
M  V30 4 1 5 3 CFG=3
M  V30 5 1 4 6
M  V30 6 1 4 7
M  V30 7 1 5 8
M  V30 8 1 5 9
M  V30 9 1 6 10
M  V30 10 1 6 11
M  V30 11 1 12 7
M  V30 12 2 8 13
M  V30 13 1 8 14
M  V30 14 1 9 15
M  V30 15 2 10 16
M  V30 16 1 17 10 CFG=1
M  V30 17 1 12 18 CFG=1
M  V30 18 1 13 19
M  V30 19 2 14 20
M  V30 20 2 15 21
M  V30 21 1 15 22
M  V30 22 1 17 23
M  V30 23 1 17 24
M  V30 24 2 19 25
M  V30 25 1 22 26
M  V30 26 1 23 27
M  V30 27 2 23 28
M  V30 28 1 24 29
M  V30 29 1 24 30
M  V30 30 1 25 31
M  V30 31 1 27 32
M  V30 32 1 28 33
M  V30 33 3 31 34
M  V30 34 1 33 35
M  V30 35 1 11 12
M  V30 36 1 20 25
M  V30 37 2 32 33
M  V30 END BOND
M  V30 BEGIN COLLECTION
M  V30 MDLV30/STEABS ATOMS=(4 4 5 12 17)
M  V30 END COLLECTION
M  V30 END CTAB
M  END
>  <Compound ID>
31

>  <Name>


>  <Smiles>
CNC(=O)C[C@H](NC(=O)[C@@H]1C[C@@H](O)CN1C(=O)[C@@H](C1=CC(C)=NO1)C(C)C)C1=CC=C(C#N)C=C1

$$$$
Compound 32
Actelion Java MolfileCreator 2.0

  0  0  0  0  0  0              0 V3000
M  V30 BEGIN CTAB
M  V30 COUNTS 34 36 0 0 0
M  V30 BEGIN ATOM
M  V30 1 Br 2.598 3.0 0.0 0
M  V30 2 C 3.4641 2.5 0.0 0
M  V30 3 C 3.4641 1.5 0.0 0
M  V30 4 C 4.3301 3.0 0.0 0
M  V30 5 C 4.3301 1.0 0.0 0
M  V30 6 C 5.1961 2.5 0.0 0
M  V30 7 C 5.1961 1.4999 0.0 0
M  V30 8 C 6.0621 1.0 0.0 0 CFG=1
M  V30 9 N 6.0621 0.0 0.0 0
M  V30 10 C 6.9282 1.4999 0.0 0
M  V30 11 C 5.1961 -0.5 0.0 0
M  V30 12 C 6.9282 2.4999 0.0 0
M  V30 13 O 4.3301 0.0 0.0 0
M  V30 14 C 5.1961 -1.4999 0.0 0 CFG=1
M  V30 15 O 6.0621 2.9999 0.0 0
M  V30 16 N 7.7942 2.9999 0.0 0
M  V30 17 N 4.3871 -2.0877 0.0 0
M  V30 18 C 6.0051 -2.0877 0.0 0
M  V30 19 C 7.7942 3.9999 0.0 0
M  V30 20 C 3.436 -1.7787 0.0 0
M  V30 21 C 4.6961 -3.0388 0.0 0
M  V30 22 C 5.6961 -3.0388 0.0 0 CFG=2
M  V30 23 O 3.2281 -0.8006 0.0 0
M  V30 24 C 2.6929 -2.4478 0.0 0 CFG=1
M  V30 25 O 6.2839 -3.8478 0.0 0
M  V30 26 C 2.9008 -3.426 0.0 0
M  V30 27 C 1.7418 -2.1388 0.0 0
M  V30 28 O 2.2317 -4.1691 0.0 0
M  V30 29 C 3.8143 -3.8327 0.0 0
M  V30 30 C 1.5339 -1.1607 0.0 0
M  V30 31 C 0.9987 -2.808 0.0 0
M  V30 32 N 2.7317 -5.0352 0.0 0
M  V30 33 C 3.7098 -4.8273 0.0 0
M  V30 34 C 4.453 -5.4964 0.0 0
M  V30 END ATOM
M  V30 BEGIN BOND
M  V30 1 1 1 2
M  V30 2 2 2 3
M  V30 3 1 2 4
M  V30 4 1 3 5
M  V30 5 2 4 6
M  V30 6 2 5 7
M  V30 7 1 8 7
M  V30 8 1 8 9 CFG=3
M  V30 9 1 8 10
M  V30 10 1 9 11
M  V30 11 1 10 12
M  V30 12 2 11 13
M  V30 13 1 14 11 CFG=3
M  V30 14 2 12 15
M  V30 15 1 12 16
M  V30 16 1 14 17
M  V30 17 1 14 18
M  V30 18 1 16 19
M  V30 19 1 17 20
M  V30 20 1 17 21
M  V30 21 1 22 18
M  V30 22 2 20 23
M  V30 23 1 24 20 CFG=1
M  V30 24 1 22 25 CFG=1
M  V30 25 1 24 26
M  V30 26 1 24 27
M  V30 27 1 26 28
M  V30 28 2 26 29
M  V30 29 1 27 30
M  V30 30 1 27 31
M  V30 31 1 28 32
M  V30 32 1 29 33
M  V30 33 1 33 34
M  V30 34 1 6 7
M  V30 35 1 21 22
M  V30 36 2 32 33
M  V30 END BOND
M  V30 BEGIN COLLECTION
M  V30 MDLV30/STEABS ATOMS=(4 8 14 22 24)
M  V30 END COLLECTION
M  V30 END CTAB
M  END
>  <Compound ID>
32

>  <Name>


>  <Smiles>
CNC(=O)C[C@H](NC(=O)[C@@H]1C[C@@H](O)CN1C(=O)[C@@H](C1=CC(C)=NO1)C(C)C)C1=CC=C(Br)C=C1

$$$$
Compound 33
Actelion Java MolfileCreator 2.0

  0  0  0  0  0  0              0 V3000
M  V30 BEGIN CTAB
M  V30 COUNTS 34 36 0 0 0
M  V30 BEGIN ATOM
M  V30 1 Cl 2.598 3.0 0.0 0
M  V30 2 C 3.4641 2.5 0.0 0
M  V30 3 C 3.4641 1.5 0.0 0
M  V30 4 C 4.3301 3.0 0.0 0
M  V30 5 C 4.3301 1.0 0.0 0
M  V30 6 C 5.1961 2.5 0.0 0
M  V30 7 C 5.1961 1.4999 0.0 0
M  V30 8 C 6.0621 1.0 0.0 0 CFG=1
M  V30 9 N 6.0621 0.0 0.0 0
M  V30 10 C 6.9282 1.4999 0.0 0
M  V30 11 C 5.1961 -0.5 0.0 0
M  V30 12 C 6.9282 2.4999 0.0 0
M  V30 13 O 4.3301 0.0 0.0 0
M  V30 14 C 5.1961 -1.4999 0.0 0 CFG=1
M  V30 15 O 6.0621 2.9999 0.0 0
M  V30 16 N 7.7942 2.9999 0.0 0
M  V30 17 N 4.3871 -2.0877 0.0 0
M  V30 18 C 6.0051 -2.0877 0.0 0
M  V30 19 C 7.7942 3.9999 0.0 0
M  V30 20 C 3.436 -1.7787 0.0 0
M  V30 21 C 4.6961 -3.0388 0.0 0
M  V30 22 C 5.6961 -3.0388 0.0 0 CFG=2
M  V30 23 O 3.2281 -0.8006 0.0 0
M  V30 24 C 2.6929 -2.4478 0.0 0 CFG=1
M  V30 25 O 6.2839 -3.8478 0.0 0
M  V30 26 C 2.9008 -3.426 0.0 0
M  V30 27 C 1.7418 -2.1388 0.0 0
M  V30 28 O 2.2317 -4.1691 0.0 0
M  V30 29 C 3.8143 -3.8327 0.0 0
M  V30 30 C 1.5339 -1.1607 0.0 0
M  V30 31 C 0.9987 -2.808 0.0 0
M  V30 32 N 2.7317 -5.0352 0.0 0
M  V30 33 C 3.7098 -4.8273 0.0 0
M  V30 34 C 4.453 -5.4964 0.0 0
M  V30 END ATOM
M  V30 BEGIN BOND
M  V30 1 1 1 2
M  V30 2 2 2 3
M  V30 3 1 2 4
M  V30 4 1 3 5
M  V30 5 2 4 6
M  V30 6 2 5 7
M  V30 7 1 8 7
M  V30 8 1 8 9 CFG=3
M  V30 9 1 8 10
M  V30 10 1 9 11
M  V30 11 1 10 12
M  V30 12 2 11 13
M  V30 13 1 14 11 CFG=3
M  V30 14 2 12 15
M  V30 15 1 12 16
M  V30 16 1 14 17
M  V30 17 1 14 18
M  V30 18 1 16 19
M  V30 19 1 17 20
M  V30 20 1 17 21
M  V30 21 1 22 18
M  V30 22 2 20 23
M  V30 23 1 24 20 CFG=1
M  V30 24 1 22 25 CFG=1
M  V30 25 1 24 26
M  V30 26 1 24 27
M  V30 27 1 26 28
M  V30 28 2 26 29
M  V30 29 1 27 30
M  V30 30 1 27 31
M  V30 31 1 28 32
M  V30 32 1 29 33
M  V30 33 1 33 34
M  V30 34 1 6 7
M  V30 35 1 21 22
M  V30 36 2 32 33
M  V30 END BOND
M  V30 BEGIN COLLECTION
M  V30 MDLV30/STEABS ATOMS=(4 8 14 22 24)
M  V30 END COLLECTION
M  V30 END CTAB
M  END
>  <Compound ID>
33

>  <Name>


>  <Smiles>
CNC(=O)C[C@H](NC(=O)[C@@H]1C[C@@H](O)CN1C(=O)[C@@H](C1=CC(C)=NO1)C(C)C)C1=CC=C(Cl)C=C1

$$$$
Compound 34
Actelion Java MolfileCreator 2.0

  0  0  0  0  0  0              0 V3000
M  V30 BEGIN CTAB
M  V30 COUNTS 34 36 0 0 0
M  V30 BEGIN ATOM
M  V30 1 F 2.598 3.0 0.0 0
M  V30 2 C 3.4641 2.5 0.0 0
M  V30 3 C 3.4641 1.5 0.0 0
M  V30 4 C 4.3301 3.0 0.0 0
M  V30 5 C 4.3301 1.0 0.0 0
M  V30 6 C 5.1961 2.5 0.0 0
M  V30 7 C 5.1961 1.4999 0.0 0
M  V30 8 C 6.0621 1.0 0.0 0 CFG=1
M  V30 9 N 6.0621 0.0 0.0 0
M  V30 10 C 6.9282 1.4999 0.0 0
M  V30 11 C 5.1961 -0.5 0.0 0
M  V30 12 C 6.9282 2.4999 0.0 0
M  V30 13 O 4.3301 0.0 0.0 0
M  V30 14 C 5.1961 -1.4999 0.0 0 CFG=1
M  V30 15 O 6.0621 2.9999 0.0 0
M  V30 16 N 7.7942 2.9999 0.0 0
M  V30 17 N 4.3871 -2.0877 0.0 0
M  V30 18 C 6.0051 -2.0877 0.0 0
M  V30 19 C 7.7942 3.9999 0.0 0
M  V30 20 C 3.436 -1.7787 0.0 0
M  V30 21 C 4.6961 -3.0388 0.0 0
M  V30 22 C 5.6961 -3.0388 0.0 0 CFG=2
M  V30 23 O 3.2281 -0.8006 0.0 0
M  V30 24 C 2.6929 -2.4478 0.0 0 CFG=1
M  V30 25 O 6.2839 -3.8478 0.0 0
M  V30 26 C 2.9008 -3.426 0.0 0
M  V30 27 C 1.7418 -2.1388 0.0 0
M  V30 28 O 2.2317 -4.1691 0.0 0
M  V30 29 C 3.8143 -3.8327 0.0 0
M  V30 30 C 1.5339 -1.1607 0.0 0
M  V30 31 C 0.9987 -2.808 0.0 0
M  V30 32 N 2.7317 -5.0352 0.0 0
M  V30 33 C 3.7098 -4.8273 0.0 0
M  V30 34 C 4.453 -5.4964 0.0 0
M  V30 END ATOM
M  V30 BEGIN BOND
M  V30 1 1 1 2
M  V30 2 2 2 3
M  V30 3 1 2 4
M  V30 4 1 3 5
M  V30 5 2 4 6
M  V30 6 2 5 7
M  V30 7 1 8 7
M  V30 8 1 8 9 CFG=3
M  V30 9 1 8 10
M  V30 10 1 9 11
M  V30 11 1 10 12
M  V30 12 2 11 13
M  V30 13 1 14 11 CFG=3
M  V30 14 2 12 15
M  V30 15 1 12 16
M  V30 16 1 14 17
M  V30 17 1 14 18
M  V30 18 1 16 19
M  V30 19 1 17 20
M  V30 20 1 17 21
M  V30 21 1 22 18
M  V30 22 2 20 23
M  V30 23 1 24 20 CFG=1
M  V30 24 1 22 25 CFG=1
M  V30 25 1 24 26
M  V30 26 1 24 27
M  V30 27 1 26 28
M  V30 28 2 26 29
M  V30 29 1 27 30
M  V30 30 1 27 31
M  V30 31 1 28 32
M  V30 32 1 29 33
M  V30 33 1 33 34
M  V30 34 1 6 7
M  V30 35 1 21 22
M  V30 36 2 32 33
M  V30 END BOND
M  V30 BEGIN COLLECTION
M  V30 MDLV30/STEABS ATOMS=(4 8 14 22 24)
M  V30 END COLLECTION
M  V30 END CTAB
M  END
>  <Compound ID>
34

>  <Name>


>  <Smiles>
CNC(=O)C[C@H](NC(=O)[C@@H]1C[C@@H](O)CN1C(=O)[C@@H](C1=CC(C)=NO1)C(C)C)C1=CC=C(F)C=C1

$$$$
Compound 35
Actelion Java MolfileCreator 2.0

  0  0  0  0  0  0              0 V3000
M  V30 BEGIN CTAB
M  V30 COUNTS 33 35 0 0 0
M  V30 BEGIN ATOM
M  V30 1 O 4.3301 0.0 0.0 0
M  V30 2 C 5.1961 -0.5 0.0 0
M  V30 3 N 6.0621 0.0 0.0 0
M  V30 4 C 5.1961 -1.4999 0.0 0 CFG=1
M  V30 5 C 6.0621 1.0 0.0 0 CFG=2
M  V30 6 N 4.3871 -2.0877 0.0 0
M  V30 7 C 6.0051 -2.0877 0.0 0
M  V30 8 C 5.1961 1.4999 0.0 0
M  V30 9 C 6.9282 1.4999 0.0 0
M  V30 10 C 3.436 -1.7787 0.0 0
M  V30 11 C 4.6961 -3.0388 0.0 0
M  V30 12 C 5.6961 -3.0388 0.0 0 CFG=2
M  V30 13 C 5.1961 2.4999 0.0 0
M  V30 14 C 4.3301 1.0 0.0 0
M  V30 15 C 6.9282 2.4999 0.0 0
M  V30 16 O 3.2281 -0.8006 0.0 0
M  V30 17 C 2.6929 -2.4478 0.0 0 CFG=1
M  V30 18 O 6.2839 -3.8478 0.0 0
M  V30 19 C 4.3301 3.0 0.0 0
M  V30 20 C 3.4641 1.5 0.0 0
M  V30 21 O 6.0621 2.9999 0.0 0
M  V30 22 N 7.7942 2.9999 0.0 0
M  V30 23 C 2.9008 -3.426 0.0 0
M  V30 24 C 1.7418 -2.1388 0.0 0
M  V30 25 C 3.4641 2.5 0.0 0
M  V30 26 C 7.7942 3.9999 0.0 0
M  V30 27 O 2.2317 -4.1691 0.0 0
M  V30 28 C 3.8143 -3.8327 0.0 0
M  V30 29 C 1.5339 -1.1607 0.0 0
M  V30 30 C 0.9987 -2.808 0.0 0
M  V30 31 N 2.7317 -5.0352 0.0 0
M  V30 32 C 3.7098 -4.8273 0.0 0
M  V30 33 C 4.453 -5.4964 0.0 0
M  V30 END ATOM
M  V30 BEGIN BOND
M  V30 1 2 1 2
M  V30 2 1 2 3
M  V30 3 1 4 2 CFG=3
M  V30 4 1 5 3 CFG=3
M  V30 5 1 4 6
M  V30 6 1 4 7
M  V30 7 1 5 8
M  V30 8 1 5 9
M  V30 9 1 6 10
M  V30 10 1 6 11
M  V30 11 1 12 7
M  V30 12 2 8 13
M  V30 13 1 8 14
M  V30 14 1 9 15
M  V30 15 2 10 16
M  V30 16 1 17 10 CFG=1
M  V30 17 1 12 18 CFG=1
M  V30 18 1 13 19
M  V30 19 2 14 20
M  V30 20 2 15 21
M  V30 21 1 15 22
M  V30 22 1 17 23
M  V30 23 1 17 24
M  V30 24 2 19 25
M  V30 25 1 22 26
M  V30 26 1 23 27
M  V30 27 2 23 28
M  V30 28 1 24 29
M  V30 29 1 24 30
M  V30 30 1 27 31
M  V30 31 1 28 32
M  V30 32 1 32 33
M  V30 33 1 11 12
M  V30 34 1 20 25
M  V30 35 2 31 32
M  V30 END BOND
M  V30 BEGIN COLLECTION
M  V30 MDLV30/STEABS ATOMS=(4 4 5 12 17)
M  V30 END COLLECTION
M  V30 END CTAB
M  END
>  <Compound ID>
35

>  <Name>


>  <Smiles>
CNC(=O)C[C@H](NC(=O)[C@@H]1C[C@@H](O)CN1C(=O)[C@@H](C1=CC(C)=NO1)C(C)C)C1=CC=CC=C1

$$$$
Compound 36
Actelion Java MolfileCreator 2.0

  0  0  0  0  0  0              0 V3000
M  V30 BEGIN CTAB
M  V30 COUNTS 31 32 0 0 0
M  V30 BEGIN ATOM
M  V30 1 O 6.4951 0.0 0.0 0
M  V30 2 C 7.7942 -0.75 0.0 0
M  V30 3 N 9.0932 0.0 0.0 0
M  V30 4 C 7.7942 -2.25 0.0 0 CFG=1
M  V30 5 C 9.0932 1.5 0.0 0 CFG=2
M  V30 6 N 6.5807 -3.1316 0.0 0
M  V30 7 C 9.0077 -3.1316 0.0 0
M  V30 8 C 7.7942 2.2499 0.0 0
M  V30 9 C 10.3923 2.2499 0.0 0
M  V30 10 C 5.1541 -2.6681 0.0 0
M  V30 11 C 7.0442 -4.5582 0.0 0
M  V30 12 C 8.5442 -4.5582 0.0 0 CFG=2
M  V30 13 C 7.7942 3.7499 0.0 0
M  V30 14 C 6.4951 1.5 0.0 0
M  V30 15 C 10.3923 3.7499 0.0 0
M  V30 16 O 4.8422 -1.2009 0.0 0
M  V30 17 C 4.0394 -3.6718 0.0 0 CFG=1
M  V30 18 O 9.4259 -5.7717 0.0 0
M  V30 19 C 6.4951 4.5 0.0 0
M  V30 20 C 5.1961 2.25 0.0 0
M  V30 21 O 9.0932 4.5 0.0 0
M  V30 22 N 11.6913 4.4999 0.0 0
M  V30 23 N 2.6128 -3.2083 0.0 0
M  V30 24 C 4.3512 -5.139 0.0 0
M  V30 25 C 5.1961 3.75 0.0 0
M  V30 26 C 11.6913 5.9999 0.0 0
M  V30 27 C 1.498 -4.212 0.0 0
M  V30 28 C 5.7778 -5.6025 0.0 0
M  V30 29 C 3.2365 -6.1427 0.0 0
M  V30 30 O 1.8099 -5.6792 0.0 0
M  V30 31 C 0.0715 -3.7484 0.0 0
M  V30 END ATOM
M  V30 BEGIN BOND
M  V30 1 2 1 2
M  V30 2 1 2 3
M  V30 3 1 4 2 CFG=3
M  V30 4 1 5 3 CFG=3
M  V30 5 1 4 6
M  V30 6 1 4 7
M  V30 7 1 5 8
M  V30 8 1 5 9
M  V30 9 1 6 10
M  V30 10 1 6 11
M  V30 11 1 12 7
M  V30 12 2 8 13
M  V30 13 1 8 14
M  V30 14 1 9 15
M  V30 15 2 10 16
M  V30 16 1 17 10
M  V30 17 1 12 18 CFG=1
M  V30 18 1 13 19
M  V30 19 2 14 20
M  V30 20 2 15 21
M  V30 21 1 15 22
M  V30 22 1 17 23 CFG=3
M  V30 23 1 17 24
M  V30 24 2 19 25
M  V30 25 1 22 26
M  V30 26 1 23 27
M  V30 27 1 24 28
M  V30 28 1 24 29
M  V30 29 2 27 30
M  V30 30 1 27 31
M  V30 31 1 11 12
M  V30 32 1 20 25
M  V30 END BOND
M  V30 BEGIN COLLECTION
M  V30 MDLV30/STEABS ATOMS=(4 4 5 12 17)
M  V30 END COLLECTION
M  V30 END CTAB
M  END
>  <Compound ID>
36

>  <Name>


>  <Smiles>
CNC(=O)C[C@H](NC(=O)[C@@H]1C[C@@H](O)CN1C(=O)[C@@H](NC(C)=O)C(C)C)C1=CC=CC=C1

$$$$
Compound 37
Actelion Java MolfileCreator 2.0

  0  0  0  0  0  0              0 V3000
M  V30 BEGIN CTAB
M  V30 COUNTS 40 44 0 0 0
M  V30 BEGIN ATOM
M  V30 1 Cl -5.7525 2.1309 0.0 0
M  V30 2 C -4.2583 2.288 0.0 0
M  V30 3 C -3.3751 1.0724 0.0 0
M  V30 4 C -3.6472 3.6606 0.0 0
M  V30 5 C -1.8809 1.2295 0.0 0
M  V30 6 C -2.1529 3.8176 0.0 0
M  V30 7 C -1.2698 2.6021 0.0 0
M  V30 8 C 0.2244 2.7591 0.0 0 CFG=1
M  V30 9 N 1.2297 1.6426 0.0 0
M  V30 10 C 0.9756 4.0603 0.0 0 CFG=1
M  V30 11 C 2.6023 2.2537 0.0 0
M  V30 12 N 2.4453 3.7479 0.0 0
M  V30 13 C 0.3645 5.4329 0.0 0
M  V30 14 C 3.9035 1.5024 0.0 0
M  V30 15 C 3.5618 4.7533 0.0 0
M  V30 16 C 1.2035 6.6455 0.0 0
M  V30 17 C -1.1296 5.59 0.0 0
M  V30 18 C 3.9035 0.0 0.0 0
M  V30 19 C 5.2047 2.2537 0.0 0
M  V30 20 O 4.9908 4.289 0.0 0
M  V30 21 N 3.2495 6.2229 0.0 0
M  V30 22 C 0.6365 8.021 0.0 0
M  V30 23 C -1.7408 6.9625 0.0 0
M  V30 24 O 2.6023 -0.7512 0.0 0
M  V30 25 C 5.2047 -0.7512 0.0 0
M  V30 26 C 6.5059 1.5024 0.0 0
M  V30 27 C 4.366 7.2283 0.0 0
M  V30 28 C 1.9088 6.6932 0.0 0
M  V30 29 C -0.8576 8.1781 0.0 0
M  V30 30 C 2.6023 -2.2537 0.0 0
M  V30 31 C 6.5059 0.0 0.0 0
M  V30 32 C 4.0536 8.698 0.0 0
M  V30 33 C 1.5081 8.1569 0.0 0
M  V30 34 Cl -1.4687 9.5507 0.0 0
M  V30 35 C 3.9035 -3.0049 0.0 0
M  V30 36 C 1.3011 -3.0049 0.0 0
M  V30 37 O 7.8071 -0.7512 0.0 0
M  V30 38 O 5.1702 9.7033 0.0 0
M  V30 39 N 2.6247 9.1623 0.0 0
M  V30 40 C 9.1083 0.0 0.0 0
M  V30 END ATOM
M  V30 BEGIN BOND
M  V30 1 1 1 2
M  V30 2 2 2 3
M  V30 3 1 2 4
M  V30 4 1 3 5
M  V30 5 2 4 6
M  V30 6 2 5 7
M  V30 7 1 8 7 CFG=3
M  V30 8 1 8 9
M  V30 9 1 10 8
M  V30 10 2 9 11
M  V30 11 1 10 12
M  V30 12 1 10 13 CFG=3
M  V30 13 1 11 14
M  V30 14 1 12 15
M  V30 15 2 13 16
M  V30 16 1 13 17
M  V30 17 2 14 18
M  V30 18 1 14 19
M  V30 19 2 15 20
M  V30 20 1 15 21
M  V30 21 1 16 22
M  V30 22 2 17 23
M  V30 23 1 18 24
M  V30 24 1 18 25
M  V30 25 2 19 26
M  V30 26 1 21 27
M  V30 27 1 21 28
M  V30 28 2 22 29
M  V30 29 1 24 30
M  V30 30 2 25 31
M  V30 31 1 27 32
M  V30 32 1 28 33
M  V30 33 1 29 34
M  V30 34 1 30 35
M  V30 35 1 30 36
M  V30 36 1 31 37
M  V30 37 2 32 38
M  V30 38 1 32 39
M  V30 39 1 37 40
M  V30 40 1 6 7
M  V30 41 1 11 12
M  V30 42 1 23 29
M  V30 43 1 26 31
M  V30 44 1 33 39
M  V30 END BOND
M  V30 BEGIN COLLECTION
M  V30 MDLV30/STEABS ATOMS=(2 8 10)
M  V30 END COLLECTION
M  V30 END CTAB
M  END
>  <Compound ID>
37

>  <Name>
Nutlin-3B

>  <Smiles>
COC1=CC=C(C2=N[C@H](C3=CC=C(Cl)C=C3)[C@H](C3=CC=C(Cl)C=C3)N2C(=O)N2CCNC(=O)C2)C(OC(C)C)=C1

$$$$
Compound 38
Actelion Java MolfileCreator 2.0

  0  0  0  0  0  0              0 V3000
M  V30 BEGIN CTAB
M  V30 COUNTS 22 22 0 0 0
M  V30 BEGIN ATOM
M  V30 1 O 4.3301 -1.9999 0.0 0
M  V30 2 C 5.1961 -1.4999 0.0 0
M  V30 3 O 6.0621 -2.0 0.0 0
M  V30 4 C 5.1961 -0.5 0.0 0 CFG=1
M  V30 5 N 4.3301 0.0 0.0 0
M  V30 6 C 6.0621 0.0 0.0 0
M  V30 7 C 3.4641 -0.5 0.0 0
M  V30 8 C 6.9282 -0.5 0.0 0
M  V30 9 O 3.4641 -1.5 0.0 0
M  V30 10 C 2.598 0.0 0.0 0 CFG=1
M  V30 11 C 7.7942 0.0 0.0 0
M  V30 12 C 6.9282 -1.4999 0.0 0
M  V30 13 O 2.598 1.0 0.0 0
M  V30 14 C 1.732 -0.5 0.0 0 CFG=2
M  V30 15 N 1.732 -1.5 0.0 0
M  V30 16 C 0.866 0.0 0.0 0
M  V30 17 C 0.0 -0.5 0.0 0
M  V30 18 C -0.866 0.0 0.0 0
M  V30 19 C 0.0 -1.4999 0.0 0
M  V30 20 C -1.732 -0.4999 0.0 0
M  V30 21 C -0.866 -1.9999 0.0 0
M  V30 22 C -1.732 -1.4999 0.0 0
M  V30 END ATOM
M  V30 BEGIN BOND
M  V30 1 2 1 2
M  V30 2 1 2 3
M  V30 3 1 4 2
M  V30 4 1 4 5 CFG=1
M  V30 5 1 4 6
M  V30 6 1 5 7
M  V30 7 1 6 8
M  V30 8 2 7 9
M  V30 9 1 10 7
M  V30 10 1 8 11
M  V30 11 1 8 12
M  V30 12 1 10 13 CFG=3
M  V30 13 1 14 10
M  V30 14 1 14 15 CFG=3
M  V30 15 1 14 16
M  V30 16 1 16 17
M  V30 17 2 17 18
M  V30 18 1 17 19
M  V30 19 1 18 20
M  V30 20 2 19 21
M  V30 21 2 20 22
M  V30 22 1 21 22
M  V30 END BOND
M  V30 BEGIN COLLECTION
M  V30 MDLV30/STEABS ATOMS=(3 4 10 14)
M  V30 END COLLECTION
M  V30 END CTAB
M  END
>  <Compound ID>
38

>  <Name>
bestatin

>  <Smiles>
CC(C)C[C@H](NC(=O)[C@@H](O)[C@H](N)CC1=CC=CC=C1)C(=O)O

$$$$
Compound 39
Actelion Java MolfileCreator 2.0

  0  0  0  0  0  0              0 V3000
M  V30 BEGIN CTAB
M  V30 COUNTS 31 32 0 0 0
M  V30 BEGIN ATOM
M  V30 1 F 3.7293 2.0237 0.0 0
M  V30 2 C 3.9372 3.0019 0.0 0
M  V30 3 C 4.8883 3.3109 0.0 0
M  V30 4 C 3.1941 3.671 0.0 0
M  V30 5 N 5.6314 2.6418 0.0 0
M  V30 6 C 5.0962 4.289 0.0 0
M  V30 7 C 3.402 4.6491 0.0 0
M  V30 8 C 5.4235 1.6636 0.0 0
M  V30 9 F 6.0472 4.598 0.0 0
M  V30 10 C 4.353 4.9582 0.0 0
M  V30 11 O 4.4725 1.3546 0.0 0
M  V30 12 C 6.1667 0.9945 0.0 0 CFG=1
M  V30 13 N 6.0621 0.0 0.0 0
M  V30 14 C 7.1448 1.2024 0.0 0
M  V30 15 C 5.1961 -0.5 0.0 0
M  V30 16 C 6.9757 -0.4067 0.0 0
M  V30 17 C 7.6448 0.3364 0.0 0 CFG=1
M  V30 18 O 4.3301 0.0 0.0 0
M  V30 19 C 5.1961 -1.4999 0.0 0 CFG=1
M  V30 20 N 8.6393 0.2318 0.0 0
M  V30 21 N 4.3301 -1.9999 0.0 0
M  V30 22 C 6.0621 -1.9999 0.0 0
M  V30 23 C 3.4641 -1.5 0.0 0
M  V30 24 C 5.5621 -2.866 0.0 0
M  V30 25 C 6.9282 -2.4999 0.0 0
M  V30 26 C 6.5621 -1.1339 0.0 0
M  V30 27 O 3.4641 -0.5 0.0 0
M  V30 28 C 2.598 -1.9999 0.0 0 CFG=1
M  V30 29 N 2.598 -2.9999 0.0 0
M  V30 30 C 1.732 -1.4999 0.0 0
M  V30 31 C 1.732 -3.4999 0.0 0
M  V30 END ATOM
M  V30 BEGIN BOND
M  V30 1 1 1 2
M  V30 2 2 2 3
M  V30 3 1 2 4
M  V30 4 1 3 5
M  V30 5 1 3 6
M  V30 6 2 4 7
M  V30 7 1 5 8
M  V30 8 1 6 9
M  V30 9 2 6 10
M  V30 10 2 8 11
M  V30 11 1 12 8 CFG=3
M  V30 12 1 12 13
M  V30 13 1 12 14
M  V30 14 1 13 15
M  V30 15 1 13 16
M  V30 16 1 17 14
M  V30 17 2 15 18
M  V30 18 1 19 15
M  V30 19 1 17 20 CFG=3
M  V30 20 1 19 21 CFG=3
M  V30 21 1 19 22
M  V30 22 1 21 23
M  V30 23 1 22 24
M  V30 24 1 22 25
M  V30 25 1 22 26
M  V30 26 2 23 27
M  V30 27 1 28 23
M  V30 28 1 28 29 CFG=1
M  V30 29 1 28 30
M  V30 30 1 29 31
M  V30 31 1 7 10
M  V30 32 1 16 17
M  V30 END BOND
M  V30 BEGIN COLLECTION
M  V30 MDLV30/STEABS ATOMS=(4 12 17 19 28)
M  V30 END COLLECTION
M  V30 END CTAB
M  END
>  <Compound ID>
39

>  <Name>


>  <Smiles>
CN[C@@H](C)C(=O)N[C@H](C(=O)N1C[C@@H](N)C[C@H]1C(=O)NC1=C(F)C=CC=C1F)C(C)(C)C

$$$$
Compound 40
Actelion Java MolfileCreator 2.0

  0  0  0  0  0  0              0 V3000
M  V30 BEGIN CTAB
M  V30 COUNTS 34 37 0 0 0
M  V30 BEGIN ATOM
M  V30 1 O 4.4725 1.3546 0.0 0
M  V30 2 C 5.4235 1.6636 0.0 0
M  V30 3 N 5.6314 2.6418 0.0 0
M  V30 4 C 6.1667 0.9945 0.0 0 CFG=1
M  V30 5 C 6.5825 2.9508 0.0 0 CFG=1
M  V30 6 N 6.0621 0.0 0.0 0
M  V30 7 C 7.1448 1.2024 0.0 0
M  V30 8 C 6.7904 3.9289 0.0 0
M  V30 9 C 7.3256 2.2816 0.0 0
M  V30 10 C 5.1961 -0.5 0.0 0
M  V30 11 C 6.9757 -0.4067 0.0 0
M  V30 12 C 7.6448 0.3364 0.0 0
M  V30 13 C 7.7414 4.2379 0.0 0
M  V30 14 C 6.0472 4.598 0.0 0
M  V30 15 C 8.2767 2.5907 0.0 0
M  V30 16 O 4.3301 0.0 0.0 0
M  V30 17 C 5.1961 -1.4999 0.0 0 CFG=1
M  V30 18 C 7.9494 5.2161 0.0 0
M  V30 19 C 8.4846 3.5688 0.0 0
M  V30 20 C 6.2552 5.5762 0.0 0
M  V30 21 N 4.3301 -1.9999 0.0 0
M  V30 22 C 6.0621 -1.9999 0.0 0
M  V30 23 C 7.2062 5.8852 0.0 0
M  V30 24 C 4.3301 -2.9999 0.0 0
M  V30 25 C 6.9282 -1.4999 0.0 0
M  V30 26 C 6.0621 -2.9999 0.0 0
M  V30 27 O 5.1961 -3.5 0.0 0
M  V30 28 C 3.4641 -3.4999 0.0 0 CFG=1
M  V30 29 C 7.7942 -1.9999 0.0 0
M  V30 30 C 6.9282 -3.4999 0.0 0
M  V30 31 N 3.4641 -4.4999 0.0 0
M  V30 32 C 2.598 -2.9999 0.0 0
M  V30 33 C 7.7942 -2.9999 0.0 0
M  V30 34 C 2.598 -4.9999 0.0 0
M  V30 END ATOM
M  V30 BEGIN BOND
M  V30 1 2 1 2
M  V30 2 1 2 3
M  V30 3 1 4 2 CFG=3
M  V30 4 1 5 3 CFG=1
M  V30 5 1 4 6
M  V30 6 1 4 7
M  V30 7 1 5 8
M  V30 8 1 5 9
M  V30 9 1 6 10
M  V30 10 1 6 11
M  V30 11 1 7 12
M  V30 12 2 8 13
M  V30 13 1 8 14
M  V30 14 1 9 15
M  V30 15 2 10 16
M  V30 16 1 17 10
M  V30 17 1 13 18
M  V30 18 1 13 19
M  V30 19 2 14 20
M  V30 20 1 17 21 CFG=3
M  V30 21 1 17 22
M  V30 22 2 18 23
M  V30 23 1 21 24
M  V30 24 1 22 25
M  V30 25 1 22 26
M  V30 26 2 24 27
M  V30 27 1 28 24
M  V30 28 1 25 29
M  V30 29 1 26 30
M  V30 30 1 28 31 CFG=1
M  V30 31 1 28 32
M  V30 32 1 29 33
M  V30 33 1 31 34
M  V30 34 1 11 12
M  V30 35 1 15 19
M  V30 36 1 20 23
M  V30 37 1 30 33
M  V30 END BOND
M  V30 BEGIN COLLECTION
M  V30 MDLV30/STEABS ATOMS=(4 4 5 17 28)
M  V30 END COLLECTION
M  V30 END CTAB
M  END
>  <Compound ID>
40

>  <Name>


>  <Smiles>
CN[C@@H](C)C(=O)N[C@H](C(=O)N1CCC[C@H]1C(=O)N[C@@H]1CCCC2=CC=CC=C21)C1CCCCC1

$$$$
Compound 41
Actelion Java MolfileCreator 2.0

  0  0  0  0  0  0              0 V3000
M  V30 BEGIN CTAB
M  V30 COUNTS 16 17 0 0 0
M  V30 BEGIN ATOM
M  V30 1 Cl 3.8971 0.0 0.0 0
M  V30 2 C 2.598 -0.75 0.0 0
M  V30 3 C 1.299 0.0 0.0 0
M  V30 4 O 1.299 1.5 0.0 0
M  V30 5 N 0.0 -0.75 0.0 0
M  V30 6 C -1.299 0.0 0.0 0
M  V30 7 C 0.0 -2.25 0.0 0
M  V30 8 C -2.598 -0.7499 0.0 0
M  V30 9 C -1.299 1.5 0.0 0
M  V30 10 C -1.299 -2.9999 0.0 0
M  V30 11 C -3.8971 0.0 0.0 0
M  V30 12 C -2.598 -2.2499 0.0 0
M  V30 13 C -2.598 2.25 0.0 0
M  V30 14 C -3.8971 1.5 0.0 0
M  V30 15 O -5.1961 2.25 0.0 0
M  V30 16 C -6.4951 1.5 0.0 0
M  V30 END ATOM
M  V30 BEGIN BOND
M  V30 1 1 1 2
M  V30 2 1 2 3
M  V30 3 2 3 4
M  V30 4 1 3 5
M  V30 5 1 5 6
M  V30 6 1 5 7
M  V30 7 2 6 8
M  V30 8 1 6 9
M  V30 9 1 7 10
M  V30 10 1 8 11
M  V30 11 1 8 12
M  V30 12 2 9 13
M  V30 13 2 11 14
M  V30 14 1 14 15
M  V30 15 1 15 16
M  V30 16 1 10 12
M  V30 17 1 13 14
M  V30 END BOND
M  V30 END CTAB
M  END
>  <Compound ID>
41

>  <Name>


>  <Smiles>
COC1=CC=C2C(=C1)CCCN2C(=O)CCl

$$$$
Compound 42
Actelion Java MolfileCreator 2.0

  0  0  0  0  0  0              0 V3000
M  V30 BEGIN CTAB
M  V30 COUNTS 21 24 0 0 0
M  V30 BEGIN ATOM
M  V30 1 O 0.866 0.0 0.0 0
M  V30 2 C 0.0 -0.5 0.0 0
M  V30 3 C -0.866 0.0 0.0 0
M  V30 4 C 0.0 -1.4999 0.0 0
M  V30 5 C -1.732 -0.4999 0.0 0
M  V30 6 C -0.866 1.0 0.0 0
M  V30 7 C -0.866 -1.9999 0.0 0
M  V30 8 O -1.732 -1.4999 0.0 0
M  V30 9 C -2.598 0.0 0.0 0
M  V30 10 C -1.732 1.5 0.0 0
M  V30 11 C 0.0 1.4999 0.0 0
M  V30 12 C -0.866 -2.9999 0.0 0
M  V30 13 C -2.598 1.0 0.0 0
M  V30 14 C -1.732 2.5 0.0 0
M  V30 15 C 0.0 2.4999 0.0 0
M  V30 16 C -1.732 -3.4999 0.0 0
M  V30 17 C 0.0 -3.4999 0.0 0
M  V30 18 C -0.866 3.0 0.0 0
M  V30 19 C -1.732 -4.4999 0.0 0
M  V30 20 C 0.0 -4.4999 0.0 0
M  V30 21 C -0.866 -4.9999 0.0 0
M  V30 END ATOM
M  V30 BEGIN BOND
M  V30 1 2 1 2
M  V30 2 1 2 3
M  V30 3 1 2 4
M  V30 4 2 3 5
M  V30 5 1 3 6
M  V30 6 2 4 7
M  V30 7 1 5 8
M  V30 8 1 5 9
M  V30 9 1 6 10
M  V30 10 2 6 11
M  V30 11 1 7 12
M  V30 12 2 9 13
M  V30 13 2 10 14
M  V30 14 1 11 15
M  V30 15 2 12 16
M  V30 16 1 12 17
M  V30 17 1 14 18
M  V30 18 1 16 19
M  V30 19 2 17 20
M  V30 20 2 19 21
M  V30 21 1 7 8
M  V30 22 1 10 13
M  V30 23 2 15 18
M  V30 24 1 20 21
M  V30 END BOND
M  V30 END CTAB
M  END
>  <Compound ID>
42

>  <Name>
beta-naphthoflavone

>  <Smiles>
O=C1C=C(C2=CC=CC=C2)OC2=CC=C3C=CC=CC3=C12

$$$$
Compound 43
Actelion Java MolfileCreator 2.0

  0  0  0  0  0  0              0 V3000
M  V30 BEGIN CTAB
M  V30 COUNTS 21 24 0 0 0
M  V30 BEGIN ATOM
M  V30 1 O 1.299 0.0 0.0 0
M  V30 2 C 0.0 -0.75 0.0 0
M  V30 3 C -1.299 0.0 0.0 0
M  V30 4 C 0.0 -2.2499 0.0 0
M  V30 5 C -2.598 -0.7499 0.0 0
M  V30 6 C -1.299 1.5 0.0 0
M  V30 7 C -1.299 -2.9999 0.0 0
M  V30 8 O -2.598 -2.2499 0.0 0
M  V30 9 C -3.8971 0.0 0.0 0
M  V30 10 C -2.598 2.25 0.0 0
M  V30 11 C -1.299 -4.4999 0.0 0
M  V30 12 C -3.8971 1.5 0.0 0
M  V30 13 C -5.1961 -0.7499 0.0 0
M  V30 14 C -2.598 -5.2499 0.0 0
M  V30 15 C 0.0 -5.2499 0.0 0
M  V30 16 C -5.1961 2.25 0.0 0
M  V30 17 C -6.4951 0.0 0.0 0
M  V30 18 C -2.598 -6.7499 0.0 0
M  V30 19 C 0.0 -6.75 0.0 0
M  V30 20 C -6.4951 1.5 0.0 0
M  V30 21 C -1.299 -7.4999 0.0 0
M  V30 END ATOM
M  V30 BEGIN BOND
M  V30 1 2 1 2
M  V30 2 1 2 3
M  V30 3 1 2 4
M  V30 4 2 3 5
M  V30 5 1 3 6
M  V30 6 2 4 7
M  V30 7 1 5 8
M  V30 8 1 5 9
M  V30 9 2 6 10
M  V30 10 1 7 11
M  V30 11 1 9 12
M  V30 12 2 9 13
M  V30 13 2 11 14
M  V30 14 1 11 15
M  V30 15 2 12 16
M  V30 16 1 13 17
M  V30 17 1 14 18
M  V30 18 2 15 19
M  V30 19 1 16 20
M  V30 20 2 18 21
M  V30 21 1 7 8
M  V30 22 1 10 12
M  V30 23 2 17 20
M  V30 24 1 19 21
M  V30 END BOND
M  V30 END CTAB
M  END
>  <Compound ID>
43

>  <Name>
alpha-naphthoflavone

>  <Smiles>
O=C1C=C(C2=CC=CC=C2)OC2=C1C=CC1=CC=CC=C12

$$$$
Compound 44
Actelion Java MolfileCreator 2.0

  0  0  0  0  0  0              0 V3000
M  V30 BEGIN CTAB
M  V30 COUNTS 20 22 0 0 0
M  V30 BEGIN ATOM
M  V30 1 S 4.1807 0.3364 0.0 0
M  V30 2 C 3.6807 1.2024 0.0 0
M  V30 3 C 3.5116 -0.4067 0.0 0
M  V30 4 N 2.7026 0.9945 0.0 0
M  V30 5 C 4.0874 2.1159 0.0 0
M  V30 6 C 2.598 0.0 0.0 0
M  V30 7 O 5.082 2.2205 0.0 0
M  V30 8 C 3.4997 2.9249 0.0 0
M  V30 9 C 1.732 -0.5 0.0 0
M  V30 10 C 3.8087 3.876 0.0 0
M  V30 11 C 2.4997 2.9249 0.0 0
M  V30 12 O 1.732 -1.5 0.0 0
M  V30 13 O 0.866 0.0 0.0 0
M  V30 14 C 2.9997 4.4638 0.0 0
M  V30 15 C 4.7222 4.2827 0.0 0
M  V30 16 N 2.1906 3.876 0.0 0
M  V30 17 C 0.0 -0.5 0.0 0
M  V30 18 C 3.1042 5.4583 0.0 0
M  V30 19 C 4.8267 5.2773 0.0 0
M  V30 20 C 4.0177 5.865 0.0 0
M  V30 END ATOM
M  V30 BEGIN BOND
M  V30 1 1 1 2
M  V30 2 1 1 3
M  V30 3 2 2 4
M  V30 4 1 2 5
M  V30 5 2 3 6
M  V30 6 2 5 7
M  V30 7 1 5 8
M  V30 8 1 6 9
M  V30 9 1 8 10
M  V30 10 2 8 11
M  V30 11 2 9 12
M  V30 12 1 9 13
M  V30 13 2 10 14
M  V30 14 1 10 15
M  V30 15 1 11 16
M  V30 16 1 13 17
M  V30 17 1 14 18
M  V30 18 2 15 19
M  V30 19 2 18 20
M  V30 20 1 4 6
M  V30 21 1 14 16
M  V30 22 1 19 20
M  V30 END BOND
M  V30 END CTAB
M  END
>  <Compound ID>
44

>  <Name>
ITE

>  <Smiles>
COC(=O)C1=CSC(C(=O)C2=C[NH]C3=CC=CC=C23)=N1

$$$$
Compound 45
Actelion Java MolfileCreator 2.0

  0  0  0  0  0  0              0 V3000
M  V30 BEGIN CTAB
M  V30 COUNTS 36 39 0 0 0
M  V30 BEGIN ATOM
M  V30 1 S 5.528 2.6581 0.0 0
M  V30 2 C 5.4235 1.6636 0.0 0
M  V30 3 C 4.6145 3.0649 0.0 0
M  V30 4 N 4.4454 1.4557 0.0 0
M  V30 5 C 6.1667 0.9945 0.0 0 CFG=1
M  V30 6 C 3.9454 2.3217 0.0 0
M  V30 7 N 6.0621 0.0 0.0 0
M  V30 8 C 7.1448 1.2024 0.0 0
M  V30 9 C 2.9508 2.4262 0.0 0
M  V30 10 C 5.1961 -0.5 0.0 0
M  V30 11 C 6.9757 -0.4067 0.0 0
M  V30 12 C 7.6448 0.3364 0.0 0
M  V30 13 O 2.3631 1.6172 0.0 0
M  V30 14 C 2.5441 3.3398 0.0 0
M  V30 15 O 4.3301 0.0 0.0 0
M  V30 16 C 5.1961 -1.4999 0.0 0 CFG=1
M  V30 17 C 1.5496 3.4443 0.0 0
M  V30 18 C 3.1319 4.1488 0.0 0
M  V30 19 N 4.3301 -1.9999 0.0 0
M  V30 20 C 6.0621 -1.9999 0.0 0
M  V30 21 C 1.1428 4.3579 0.0 0
M  V30 22 C 2.7252 5.0624 0.0 0
M  V30 23 C 4.3301 -2.9999 0.0 0
M  V30 24 C 6.9282 -1.4999 0.0 0
M  V30 25 C 6.0621 -2.9999 0.0 0
M  V30 26 C 1.7306 5.1669 0.0 0
M  V30 27 O 5.1961 -3.5 0.0 0
M  V30 28 C 3.4641 -3.4999 0.0 0 CFG=1
M  V30 29 C 7.7942 -1.9999 0.0 0
M  V30 30 C 6.9282 -3.4999 0.0 0
M  V30 31 F 1.3239 6.0804 0.0 0
M  V30 32 N 3.4641 -4.4999 0.0 0
M  V30 33 C 2.598 -2.9999 0.0 0
M  V30 34 N 7.7942 -2.9999 0.0 0
M  V30 35 C 2.598 -4.9999 0.0 0
M  V30 36 C 8.6602 -3.4999 0.0 0
M  V30 END ATOM
M  V30 BEGIN BOND
M  V30 1 1 1 2
M  V30 2 1 1 3
M  V30 3 2 2 4
M  V30 4 1 5 2 CFG=3
M  V30 5 2 3 6
M  V30 6 1 5 7
M  V30 7 1 5 8
M  V30 8 1 6 9
M  V30 9 1 7 10
M  V30 10 1 7 11
M  V30 11 1 8 12
M  V30 12 2 9 13
M  V30 13 1 9 14
M  V30 14 2 10 15
M  V30 15 1 16 10
M  V30 16 2 14 17
M  V30 17 1 14 18
M  V30 18 1 16 19 CFG=3
M  V30 19 1 16 20
M  V30 20 1 17 21
M  V30 21 2 18 22
M  V30 22 1 19 23
M  V30 23 1 20 24
M  V30 24 1 20 25
M  V30 25 2 21 26
M  V30 26 2 23 27
M  V30 27 1 28 23
M  V30 28 1 24 29
M  V30 29 1 25 30
M  V30 30 1 26 31
M  V30 31 1 28 32 CFG=1
M  V30 32 1 28 33
M  V30 33 1 29 34
M  V30 34 1 32 35
M  V30 35 1 34 36
M  V30 36 1 4 6
M  V30 37 1 11 12
M  V30 38 1 22 26
M  V30 39 1 30 34
M  V30 END BOND
M  V30 BEGIN COLLECTION
M  V30 MDLV30/STEABS ATOMS=(3 5 16 28)
M  V30 END COLLECTION
M  V30 END CTAB
M  END
>  <Compound ID>
45

>  <Name>


>  <Smiles>
CN[C@@H](C)C(=O)N[C@H](C(=O)N1CCC[C@H]1C1=NC(C(=O)C2=CC=C(F)C=C2)=CS1)C1CCN(C)CC1

$$$$
Compound 46
Actelion Java MolfileCreator 2.0

  0  0  0  0  0  0              0 V3000
M  V30 BEGIN CTAB
M  V30 COUNTS 40 44 0 0 0
M  V30 BEGIN ATOM
M  V30 1 Cl -5.7525 2.1309 0.0 0
M  V30 2 C -4.2583 2.288 0.0 0
M  V30 3 C -3.3751 1.0724 0.0 0
M  V30 4 C -3.6472 3.6606 0.0 0
M  V30 5 C -1.8809 1.2295 0.0 0
M  V30 6 C -2.1529 3.8176 0.0 0
M  V30 7 C -1.2698 2.6021 0.0 0
M  V30 8 C 0.2244 2.7591 0.0 0 CFG=2
M  V30 9 N 1.2297 1.6426 0.0 0
M  V30 10 C 0.9756 4.0603 0.0 0 CFG=2
M  V30 11 C 2.6023 2.2537 0.0 0
M  V30 12 N 2.4453 3.7479 0.0 0
M  V30 13 C 0.3645 5.4329 0.0 0
M  V30 14 C 3.9035 1.5024 0.0 0
M  V30 15 C 3.5618 4.7533 0.0 0
M  V30 16 C 1.2035 6.6455 0.0 0
M  V30 17 C -1.1296 5.59 0.0 0
M  V30 18 C 3.9035 0.0 0.0 0
M  V30 19 C 5.2047 2.2537 0.0 0
M  V30 20 O 4.9908 4.289 0.0 0
M  V30 21 N 3.2495 6.2229 0.0 0
M  V30 22 C 0.6365 8.021 0.0 0
M  V30 23 C -1.7408 6.9625 0.0 0
M  V30 24 O 2.6023 -0.7512 0.0 0
M  V30 25 C 5.2047 -0.7512 0.0 0
M  V30 26 C 6.5059 1.5024 0.0 0
M  V30 27 C 4.366 7.2283 0.0 0
M  V30 28 C 1.9088 6.6932 0.0 0
M  V30 29 C -0.8576 8.1781 0.0 0
M  V30 30 C 2.6023 -2.2537 0.0 0
M  V30 31 C 6.5059 0.0 0.0 0
M  V30 32 C 4.0536 8.698 0.0 0
M  V30 33 C 1.5081 8.1569 0.0 0
M  V30 34 Cl -1.4687 9.5507 0.0 0
M  V30 35 C 3.9035 -3.0049 0.0 0
M  V30 36 C 1.3011 -3.0049 0.0 0
M  V30 37 O 7.8071 -0.7512 0.0 0
M  V30 38 O 5.1702 9.7033 0.0 0
M  V30 39 N 2.6247 9.1623 0.0 0
M  V30 40 C 9.1083 0.0 0.0 0
M  V30 END ATOM
M  V30 BEGIN BOND
M  V30 1 1 1 2
M  V30 2 2 2 3
M  V30 3 1 2 4
M  V30 4 1 3 5
M  V30 5 2 4 6
M  V30 6 2 5 7
M  V30 7 1 8 7 CFG=1
M  V30 8 1 8 9
M  V30 9 1 10 8
M  V30 10 2 9 11
M  V30 11 1 10 12
M  V30 12 1 10 13 CFG=1
M  V30 13 1 11 14
M  V30 14 1 12 15
M  V30 15 2 13 16
M  V30 16 1 13 17
M  V30 17 2 14 18
M  V30 18 1 14 19
M  V30 19 2 15 20
M  V30 20 1 15 21
M  V30 21 1 16 22
M  V30 22 2 17 23
M  V30 23 1 18 24
M  V30 24 1 18 25
M  V30 25 2 19 26
M  V30 26 1 21 27
M  V30 27 1 21 28
M  V30 28 2 22 29
M  V30 29 1 24 30
M  V30 30 2 25 31
M  V30 31 1 27 32
M  V30 32 1 28 33
M  V30 33 1 29 34
M  V30 34 1 30 35
M  V30 35 1 30 36
M  V30 36 1 31 37
M  V30 37 2 32 38
M  V30 38 1 32 39
M  V30 39 1 37 40
M  V30 40 1 6 7
M  V30 41 1 11 12
M  V30 42 1 23 29
M  V30 43 1 26 31
M  V30 44 1 33 39
M  V30 END BOND
M  V30 BEGIN COLLECTION
M  V30 MDLV30/STEABS ATOMS=(2 8 10)
M  V30 END COLLECTION
M  V30 END CTAB
M  END
>  <Compound ID>
46

>  <Name>
Nutlin-3A

>  <Smiles>
COC1=CC=C(C2=N[C@@H](C3=CC=C(Cl)C=C3)[C@@H](C3=CC=C(Cl)C=C3)N2C(=O)N2CCNC(=O)C2)C(OC(C)C)=C1

$$$$
Compound 47
Actelion Java MolfileCreator 2.0

  0  0  0  0  0  0              0 V3000
M  V30 BEGIN CTAB
M  V30 COUNTS 42 45 0 0 0
M  V30 BEGIN ATOM
M  V30 1 O 6.7087 2.0319 0.0 0
M  V30 2 C 8.1353 2.4954 0.0 0
M  V30 3 N 8.4472 3.9627 0.0 0
M  V30 4 C 9.25 1.4917 0.0 0 CFG=1
M  V30 5 C 7.3324 4.9663 0.0 0 CFG=2
M  V30 6 N 9.0932 0.0 0.0 0
M  V30 7 C 10.7172 1.8036 0.0 0
M  V30 8 C 5.9059 4.5028 0.0 0
M  V30 9 C 7.6443 6.4336 0.0 0
M  V30 10 C 7.7942 -0.7499 0.0 0
M  V30 11 C 10.4635 -0.6101 0.0 0
M  V30 12 C 11.4672 0.5046 0.0 0
M  V30 13 O 5.594 3.0356 0.0 0
M  V30 14 O 4.7911 5.5065 0.0 0
M  V30 15 C 9.0709 6.8971 0.0 0
M  V30 16 C 6.5296 7.4373 0.0 0
M  V30 17 O 6.4951 0.0 0.0 0
M  V30 18 C 7.7942 -2.2499 0.0 0 CFG=1
M  V30 19 C 3.3646 5.043 0.0 0
M  V30 20 C 10.1856 5.8934 0.0 0
M  V30 21 C 9.3828 8.3643 0.0 0
M  V30 22 C 6.8415 8.9045 0.0 0
M  V30 23 C 5.103 6.9737 0.0 0
M  V30 24 N 6.4951 -2.9999 0.0 0
M  V30 25 C 9.0932 -3.0 0.0 0
M  V30 26 C 11.6122 6.3569 0.0 0
M  V30 27 C 10.8093 8.8278 0.0 0
M  V30 28 C 5.7267 9.9082 0.0 0
M  V30 29 C 3.9883 7.9774 0.0 0
M  V30 30 C 6.4951 -4.4999 0.0 0
M  V30 31 C 10.3923 -2.2499 0.0 0
M  V30 32 C 9.0932 -4.4999 0.0 0
M  V30 33 C 11.9241 7.8241 0.0 0
M  V30 34 C 4.3002 9.4447 0.0 0
M  V30 35 O 7.7942 -5.2499 0.0 0
M  V30 36 C 5.1961 -5.2499 0.0 0 CFG=1
M  V30 37 C 11.6913 -2.9999 0.0 0
M  V30 38 C 10.3923 -5.2499 0.0 0
M  V30 39 N 5.1961 -6.7499 0.0 0
M  V30 40 C 3.8971 -4.4999 0.0 0
M  V30 41 C 11.6913 -4.5 0.0 0
M  V30 42 C 3.8971 -7.4999 0.0 0
M  V30 END ATOM
M  V30 BEGIN BOND
M  V30 1 2 1 2
M  V30 2 1 2 3
M  V30 3 1 4 2 CFG=3
M  V30 4 1 5 3 CFG=3
M  V30 5 1 4 6
M  V30 6 1 4 7
M  V30 7 1 5 8
M  V30 8 1 5 9
M  V30 9 1 6 10
M  V30 10 1 6 11
M  V30 11 1 7 12
M  V30 12 2 8 13
M  V30 13 1 8 14
M  V30 14 1 9 15
M  V30 15 1 9 16
M  V30 16 2 10 17
M  V30 17 1 18 10
M  V30 18 1 14 19
M  V30 19 2 15 20
M  V30 20 1 15 21
M  V30 21 2 16 22
M  V30 22 1 16 23
M  V30 23 1 18 24 CFG=3
M  V30 24 1 18 25
M  V30 25 1 20 26
M  V30 26 2 21 27
M  V30 27 1 22 28
M  V30 28 2 23 29
M  V30 29 1 24 30
M  V30 30 1 25 31
M  V30 31 1 25 32
M  V30 32 2 26 33
M  V30 33 2 28 34
M  V30 34 2 30 35
M  V30 35 1 36 30
M  V30 36 1 31 37
M  V30 37 1 32 38
M  V30 38 1 36 39 CFG=1
M  V30 39 1 36 40
M  V30 40 1 37 41
M  V30 41 1 39 42
M  V30 42 1 11 12
M  V30 43 1 27 33
M  V30 44 1 29 34
M  V30 45 1 38 41
M  V30 END BOND
M  V30 BEGIN COLLECTION
M  V30 MDLV30/STEABS ATOMS=(4 4 5 18 36)
M  V30 END COLLECTION
M  V30 END CTAB
M  END
>  <Compound ID>
47

>  <Name>
MV1

>  <Smiles>
CN[C@@H](C)C(=O)N[C@H](C(=O)N1CCC[C@H]1C(=O)N[C@H](C(=O)OC)C(C1=CC=CC=C1)C1=CC=CC=C1)C1CCCCC1

$$$$
Compound 48
Actelion Java MolfileCreator 2.0

  0  0  0  0  0  0              0 V3000
M  V30 BEGIN CTAB
M  V30 COUNTS 36 39 0 0 0
M  V30 BEGIN ATOM
M  V30 1 S 5.528 2.6581 0.0 0
M  V30 2 C 5.4235 1.6636 0.0 0
M  V30 3 C 4.6145 3.0649 0.0 0
M  V30 4 N 4.4454 1.4557 0.0 0
M  V30 5 C 6.1667 0.9945 0.0 0 CFG=1
M  V30 6 C 3.9454 2.3217 0.0 0
M  V30 7 N 6.0621 0.0 0.0 0
M  V30 8 C 7.1448 1.2024 0.0 0
M  V30 9 C 2.9508 2.4262 0.0 0
M  V30 10 C 5.1961 -0.5 0.0 0
M  V30 11 C 6.9757 -0.4067 0.0 0
M  V30 12 C 7.6448 0.3364 0.0 0
M  V30 13 O 2.3631 1.6172 0.0 0
M  V30 14 C 2.5441 3.3398 0.0 0
M  V30 15 O 4.3301 0.0 0.0 0
M  V30 16 C 5.1961 -1.4999 0.0 0 CFG=1
M  V30 17 C 1.5496 3.4443 0.0 0
M  V30 18 C 3.1319 4.1488 0.0 0
M  V30 19 N 4.3301 -1.9999 0.0 0
M  V30 20 C 6.0621 -1.9999 0.0 0
M  V30 21 C 1.1428 4.3579 0.0 0
M  V30 22 C 2.7252 5.0624 0.0 0
M  V30 23 C 4.3301 -2.9999 0.0 0
M  V30 24 C 6.9282 -1.4999 0.0 0
M  V30 25 C 6.0621 -2.9999 0.0 0
M  V30 26 O 0.1483 4.4624 0.0 0
M  V30 27 C 1.7306 5.1669 0.0 0
M  V30 28 O 5.1961 -3.5 0.0 0
M  V30 29 C 3.4641 -3.4999 0.0 0 CFG=1
M  V30 30 C 7.7942 -1.9999 0.0 0
M  V30 31 C 6.9282 -3.4999 0.0 0
M  V30 32 C -0.2583 5.3759 0.0 0
M  V30 33 N 3.4641 -4.4999 0.0 0
M  V30 34 C 2.598 -2.9999 0.0 0
M  V30 35 C 7.7942 -2.9999 0.0 0
M  V30 36 C 2.598 -4.9999 0.0 0
M  V30 END ATOM
M  V30 BEGIN BOND
M  V30 1 1 1 2
M  V30 2 1 1 3
M  V30 3 2 2 4
M  V30 4 1 5 2 CFG=3
M  V30 5 2 3 6
M  V30 6 1 5 7
M  V30 7 1 5 8
M  V30 8 1 6 9
M  V30 9 1 7 10
M  V30 10 1 7 11
M  V30 11 1 8 12
M  V30 12 2 9 13
M  V30 13 1 9 14
M  V30 14 2 10 15
M  V30 15 1 16 10
M  V30 16 2 14 17
M  V30 17 1 14 18
M  V30 18 1 16 19 CFG=3
M  V30 19 1 16 20
M  V30 20 1 17 21
M  V30 21 2 18 22
M  V30 22 1 19 23
M  V30 23 1 20 24
M  V30 24 1 20 25
M  V30 25 1 21 26
M  V30 26 2 21 27
M  V30 27 2 23 28
M  V30 28 1 29 23
M  V30 29 1 24 30
M  V30 30 1 25 31
M  V30 31 1 26 32
M  V30 32 1 29 33 CFG=1
M  V30 33 1 29 34
M  V30 34 1 30 35
M  V30 35 1 33 36
M  V30 36 1 4 6
M  V30 37 1 11 12
M  V30 38 1 22 27
M  V30 39 1 31 35
M  V30 END BOND
M  V30 BEGIN COLLECTION
M  V30 MDLV30/STEABS ATOMS=(3 5 16 29)
M  V30 END COLLECTION
M  V30 END CTAB
M  END
>  <Compound ID>
48

>  <Name>
LCL161 derivative

>  <Smiles>
CN[C@@H](C)C(=O)N[C@H](C(=O)N1CCC[C@H]1C1=NC(C(=O)C2=CC=CC(OC)=C2)=CS1)C1CCCCC1

$$$$
Compound 49
Actelion Java MolfileCreator 2.0

  0  0  0  0  0  0              0 V3000
M  V30 BEGIN CTAB
M  V30 COUNTS 41 45 0 0 0
M  V30 BEGIN ATOM
M  V30 1 O 4.4725 1.3546 0.0 0
M  V30 2 C 5.4235 1.6636 0.0 0
M  V30 3 N 5.6314 2.6418 0.0 0
M  V30 4 C 6.1667 0.9945 0.0 0 CFG=1
M  V30 5 C 6.5825 2.9508 0.0 0 CFG=1
M  V30 6 N 6.0621 0.0 0.0 0
M  V30 7 C 7.1448 1.2024 0.0 0
M  V30 8 C 6.7904 3.9289 0.0 0
M  V30 9 C 7.3256 2.2816 0.0 0
M  V30 10 C 5.1961 -0.5 0.0 0
M  V30 11 C 6.9757 -0.4067 0.0 0
M  V30 12 C 7.6448 0.3364 0.0 0 CFG=1
M  V30 13 C 7.7414 4.2379 0.0 0
M  V30 14 C 6.0472 4.598 0.0 0
M  V30 15 C 8.2767 2.5907 0.0 0
M  V30 16 O 4.3301 0.0 0.0 0
M  V30 17 C 5.1961 -1.4999 0.0 0 CFG=1
M  V30 18 O 8.6393 0.2318 0.0 0
M  V30 19 C 7.9494 5.2161 0.0 0
M  V30 20 C 8.4846 3.5688 0.0 0
M  V30 21 C 6.2552 5.5762 0.0 0
M  V30 22 N 4.3301 -1.9999 0.0 0
M  V30 23 C 6.0621 -1.9999 0.0 0
M  V30 24 C 9.2271 1.0408 0.0 0
M  V30 25 C 7.2062 5.8852 0.0 0
M  V30 26 C 4.3301 -2.9999 0.0 0
M  V30 27 C 6.9282 -1.4999 0.0 0
M  V30 28 C 6.0621 -2.9999 0.0 0
M  V30 29 C 10.2216 0.9363 0.0 0
M  V30 30 C 8.8204 1.9544 0.0 0
M  V30 31 O 5.1961 -3.5 0.0 0
M  V30 32 C 3.4641 -3.4999 0.0 0 CFG=1
M  V30 33 C 7.7942 -1.9999 0.0 0
M  V30 34 C 6.9282 -3.4999 0.0 0
M  V30 35 C 10.8094 1.7453 0.0 0
M  V30 36 C 9.4082 2.7634 0.0 0
M  V30 37 N 3.4641 -4.4999 0.0 0
M  V30 38 C 2.598 -2.9999 0.0 0
M  V30 39 C 7.7942 -2.9999 0.0 0
M  V30 40 C 10.4027 2.6589 0.0 0
M  V30 41 C 2.598 -4.9999 0.0 0
M  V30 END ATOM
M  V30 BEGIN BOND
M  V30 1 2 1 2
M  V30 2 1 2 3
M  V30 3 1 4 2 CFG=3
M  V30 4 1 5 3 CFG=1
M  V30 5 1 4 6
M  V30 6 1 4 7
M  V30 7 1 5 8
M  V30 8 1 5 9
M  V30 9 1 6 10
M  V30 10 1 6 11
M  V30 11 1 12 7
M  V30 12 2 8 13
M  V30 13 1 8 14
M  V30 14 1 9 15
M  V30 15 2 10 16
M  V30 16 1 17 10
M  V30 17 1 12 18 CFG=3
M  V30 18 1 13 19
M  V30 19 1 13 20
M  V30 20 2 14 21
M  V30 21 1 17 22 CFG=3
M  V30 22 1 17 23
M  V30 23 1 18 24
M  V30 24 2 19 25
M  V30 25 1 22 26
M  V30 26 1 23 27
M  V30 27 1 23 28
M  V30 28 2 24 29
M  V30 29 1 24 30
M  V30 30 2 26 31
M  V30 31 1 32 26
M  V30 32 1 27 33
M  V30 33 1 28 34
M  V30 34 1 29 35
M  V30 35 2 30 36
M  V30 36 1 32 37 CFG=1
M  V30 37 1 32 38
M  V30 38 1 33 39
M  V30 39 2 35 40
M  V30 40 1 37 41
M  V30 41 1 11 12
M  V30 42 1 15 20
M  V30 43 1 21 25
M  V30 44 1 34 39
M  V30 45 1 36 40
M  V30 END BOND
M  V30 BEGIN COLLECTION
M  V30 MDLV30/STEABS ATOMS=(5 4 5 12 17 32)
M  V30 END COLLECTION
M  V30 END CTAB
M  END
>  <Compound ID>
49

>  <Name>


>  <Smiles>
CN[C@@H](C)C(=O)N[C@H](C(=O)N1C[C@@H](OC2=CC=CC=C2)C[C@H]1C(=O)N[C@@H]1CCCC2=CC=CC=C21)C1CCCCC1

$$$$
Compound 50
Actelion Java MolfileCreator 2.0

  0  0  0  0  0  0              0 V3000
M  V30 BEGIN CTAB
M  V30 COUNTS 41 45 0 0 0
M  V30 BEGIN ATOM
M  V30 1 O 4.4725 1.3546 0.0 0
M  V30 2 C 5.4235 1.6636 0.0 0
M  V30 3 N 5.6314 2.6418 0.0 0
M  V30 4 C 6.1667 0.9945 0.0 0 CFG=1
M  V30 5 C 6.5825 2.9508 0.0 0 CFG=1
M  V30 6 N 6.0621 0.0 0.0 0
M  V30 7 C 7.1448 1.2024 0.0 0
M  V30 8 C 6.7904 3.9289 0.0 0
M  V30 9 C 7.3256 2.2816 0.0 0
M  V30 10 C 5.1961 -0.5 0.0 0
M  V30 11 C 6.9757 -0.4067 0.0 0
M  V30 12 C 7.6448 0.3364 0.0 0 CFG=2
M  V30 13 C 7.7414 4.2379 0.0 0
M  V30 14 C 6.0472 4.598 0.0 0
M  V30 15 C 8.2767 2.5907 0.0 0
M  V30 16 O 4.3301 0.0 0.0 0
M  V30 17 C 5.1961 -1.4999 0.0 0 CFG=1
M  V30 18 O 8.6393 0.2318 0.0 0
M  V30 19 C 7.9494 5.2161 0.0 0
M  V30 20 C 8.4846 3.5688 0.0 0
M  V30 21 C 6.2552 5.5762 0.0 0
M  V30 22 N 4.3301 -1.9999 0.0 0
M  V30 23 C 6.0621 -1.9999 0.0 0
M  V30 24 C 9.2271 1.0408 0.0 0
M  V30 25 C 7.2062 5.8852 0.0 0
M  V30 26 C 4.3301 -2.9999 0.0 0
M  V30 27 C 6.9282 -1.4999 0.0 0
M  V30 28 C 6.0621 -2.9999 0.0 0
M  V30 29 C 10.2216 0.9363 0.0 0
M  V30 30 C 8.8204 1.9544 0.0 0
M  V30 31 O 5.1961 -3.5 0.0 0
M  V30 32 C 3.4641 -3.4999 0.0 0 CFG=1
M  V30 33 C 7.7942 -1.9999 0.0 0
M  V30 34 C 6.9282 -3.4999 0.0 0
M  V30 35 C 10.8094 1.7453 0.0 0
M  V30 36 C 9.4082 2.7634 0.0 0
M  V30 37 N 3.4641 -4.4999 0.0 0
M  V30 38 C 2.598 -2.9999 0.0 0
M  V30 39 C 7.7942 -2.9999 0.0 0
M  V30 40 C 10.4027 2.6589 0.0 0
M  V30 41 C 2.598 -4.9999 0.0 0
M  V30 END ATOM
M  V30 BEGIN BOND
M  V30 1 2 1 2
M  V30 2 1 2 3
M  V30 3 1 4 2 CFG=3
M  V30 4 1 5 3 CFG=1
M  V30 5 1 4 6
M  V30 6 1 4 7
M  V30 7 1 5 8
M  V30 8 1 5 9
M  V30 9 1 6 10
M  V30 10 1 6 11
M  V30 11 1 12 7
M  V30 12 2 8 13
M  V30 13 1 8 14
M  V30 14 1 9 15
M  V30 15 2 10 16
M  V30 16 1 17 10
M  V30 17 1 12 18 CFG=1
M  V30 18 1 13 19
M  V30 19 1 13 20
M  V30 20 2 14 21
M  V30 21 1 17 22 CFG=3
M  V30 22 1 17 23
M  V30 23 1 18 24
M  V30 24 2 19 25
M  V30 25 1 22 26
M  V30 26 1 23 27
M  V30 27 1 23 28
M  V30 28 2 24 29
M  V30 29 1 24 30
M  V30 30 2 26 31
M  V30 31 1 32 26
M  V30 32 1 27 33
M  V30 33 1 28 34
M  V30 34 1 29 35
M  V30 35 2 30 36
M  V30 36 1 32 37 CFG=1
M  V30 37 1 32 38
M  V30 38 1 33 39
M  V30 39 2 35 40
M  V30 40 1 37 41
M  V30 41 1 11 12
M  V30 42 1 15 20
M  V30 43 1 21 25
M  V30 44 1 34 39
M  V30 45 1 36 40
M  V30 END BOND
M  V30 BEGIN COLLECTION
M  V30 MDLV30/STEABS ATOMS=(5 4 5 12 17 32)
M  V30 END COLLECTION
M  V30 END CTAB
M  END
>  <Compound ID>
50

>  <Name>


>  <Smiles>
CN[C@@H](C)C(=O)N[C@H](C(=O)N1C[C@H](OC2=CC=CC=C2)C[C@H]1C(=O)N[C@@H]1CCCC2=CC=CC=C21)C1CCCCC1

$$$$
Compound 51
Actelion Java MolfileCreator 2.0

  0  0  0  0  0  0              0 V3000
M  V30 BEGIN CTAB
M  V30 COUNTS 33 36 0 0 0
M  V30 BEGIN ATOM
M  V30 1 O 5.1961 -1.4999 0.0 0
M  V30 2 C 5.1961 -0.5 0.0 0
M  V30 3 N 6.0621 0.0 0.0 0
M  V30 4 C 4.3301 0.0 0.0 0 CFG=1
M  V30 5 C 6.9282 -0.5 0.0 0 CFG=2
M  V30 6 N 3.4641 -0.5 0.0 0
M  V30 7 C 4.3301 1.0 0.0 0
M  V30 8 C 6.9282 -1.5 0.0 0 CFG=1
M  V30 9 C 7.7942 0.0 0.0 0
M  V30 10 C 2.598 0.0 0.0 0
M  V30 11 C 5.1961 1.4999 0.0 0
M  V30 12 C 3.4641 1.5 0.0 0
M  V30 13 N 7.8872 -1.9009 0.0 0
M  V30 14 C 8.2594 -2.7501 0.0 0
M  V30 15 C 8.6602 -0.5 0.0 0 CFG=2
M  V30 16 O 2.598 1.0 0.0 0
M  V30 17 C 1.732 -0.5 0.0 0 CFG=1
M  V30 18 C 5.1961 2.4999 0.0 0
M  V30 19 C 3.4641 2.5 0.0 0
M  V30 20 C 8.5341 -1.5312 0.0 0
M  V30 21 C 7.7908 -3.0035 0.0 0
M  V30 22 C 9.0932 -2.25 0.0 0
M  V30 23 N 0.866 0.0 0.0 0
M  V30 24 C 1.732 -1.5 0.0 0
M  V30 25 C 4.3301 2.9999 0.0 0
M  V30 26 C 6.9282 -3.5 0.0 0
M  V30 27 C 0.0 -0.5 0.0 0
M  V30 28 C 6.9282 -4.5 0.0 0
M  V30 29 C 6.0621 -4.9999 0.0 0
M  V30 30 C 7.7942 -5.0 0.0 0
M  V30 31 C 6.0621 -5.9999 0.0 0
M  V30 32 C 7.7942 -6.0 0.0 0
M  V30 33 C 6.9282 -6.5 0.0 0
M  V30 END ATOM
M  V30 BEGIN BOND
M  V30 1 2 1 2
M  V30 2 1 2 3
M  V30 3 1 4 2
M  V30 4 1 5 3 CFG=1
M  V30 5 1 4 6 CFG=1
M  V30 6 1 4 7
M  V30 7 1 8 5
M  V30 8 1 5 9
M  V30 9 1 6 10
M  V30 10 1 7 11
M  V30 11 1 7 12
M  V30 12 1 8 13 CFG=3
M  V30 13 1 8 14
M  V30 14 1 15 9 CFG=1
M  V30 15 2 10 16
M  V30 16 1 17 10
M  V30 17 1 11 18
M  V30 18 1 12 19
M  V30 19 1 13 20
M  V30 20 1 13 21
M  V30 21 1 14 22
M  V30 22 1 17 23 CFG=3
M  V30 23 1 17 24
M  V30 24 1 18 25
M  V30 25 1 21 26
M  V30 26 1 23 27
M  V30 27 1 26 28
M  V30 28 2 28 29
M  V30 29 1 28 30
M  V30 30 1 29 31
M  V30 31 2 30 32
M  V30 32 2 31 33
M  V30 33 1 15 20
M  V30 34 1 15 22
M  V30 35 1 19 25
M  V30 36 1 32 33
M  V30 END BOND
M  V30 BEGIN COLLECTION
M  V30 MDLV30/STEABS ATOMS=(5 4 5 8 15 17)
M  V30 END COLLECTION
M  V30 END CTAB
M  END
>  <Compound ID>
51

>  <Name>


>  <Smiles>
CN[C@@H](C)C(=O)N[C@H](C(=O)N[C@H]1C[C@H]2CC[C@@H]1N(CCC1=CC=CC=C1)C2)C1CCCCC1

$$$$
Compound 52
Actelion Java MolfileCreator 2.0

  0  0  0  0  0  0              0 V3000
M  V30 BEGIN CTAB
M  V30 COUNTS 37 41 0 0 0
M  V30 BEGIN ATOM
M  V30 1 S 5.528 2.6581 0.0 0
M  V30 2 C 5.4235 1.6636 0.0 0
M  V30 3 C 4.6145 3.0649 0.0 0
M  V30 4 N 4.4454 1.4557 0.0 0
M  V30 5 C 6.1667 0.9945 0.0 0 CFG=1
M  V30 6 C 3.9454 2.3217 0.0 0
M  V30 7 N 6.0621 0.0 0.0 0
M  V30 8 C 7.1448 1.2024 0.0 0
M  V30 9 C 2.9508 2.4262 0.0 0
M  V30 10 C 5.1961 -0.5 0.0 0
M  V30 11 C 6.9757 -0.4067 0.0 0
M  V30 12 C 7.6448 0.3364 0.0 0
M  V30 13 C 2.3631 1.6172 0.0 0
M  V30 14 C 2.5441 3.3398 0.0 0
M  V30 15 O 4.3301 0.0 0.0 0
M  V30 16 C 5.1961 -1.4999 0.0 0 CFG=1
M  V30 17 C 1.3685 1.7218 0.0 0
M  V30 18 C 2.7698 0.7037 0.0 0
M  V30 19 C 1.5496 3.4443 0.0 0
M  V30 20 N 4.3301 -1.9999 0.0 0
M  V30 21 C 6.0621 -1.9999 0.0 0
M  V30 22 C 0.9618 2.6353 0.0 0
M  V30 23 C 0.7807 0.9127 0.0 0
M  V30 24 C 2.182 -0.1052 0.0 0
M  V30 25 C 4.3301 -2.9999 0.0 0
M  V30 26 C 6.9282 -1.4999 0.0 0
M  V30 27 C 6.0621 -2.9999 0.0 0
M  V30 28 F -0.0326 2.7398 0.0 0
M  V30 29 C 1.1875 -7.0E-4 0.0 0
M  V30 30 O 5.1961 -3.5 0.0 0
M  V30 31 C 3.4641 -3.4999 0.0 0 CFG=1
M  V30 32 C 7.7942 -1.9999 0.0 0
M  V30 33 C 6.9282 -3.4999 0.0 0
M  V30 34 N 3.4641 -4.4999 0.0 0
M  V30 35 C 2.598 -2.9999 0.0 0
M  V30 36 C 7.7942 -2.9999 0.0 0
M  V30 37 C 2.598 -4.9999 0.0 0
M  V30 END ATOM
M  V30 BEGIN BOND
M  V30 1 1 1 2
M  V30 2 1 1 3
M  V30 3 2 2 4
M  V30 4 1 5 2 CFG=3
M  V30 5 2 3 6
M  V30 6 1 5 7
M  V30 7 1 5 8
M  V30 8 1 6 9
M  V30 9 1 7 10
M  V30 10 1 7 11
M  V30 11 1 8 12
M  V30 12 1 9 13
M  V30 13 2 9 14
M  V30 14 2 10 15
M  V30 15 1 16 10
M  V30 16 1 13 17
M  V30 17 2 13 18
M  V30 18 1 14 19
M  V30 19 1 16 20 CFG=3
M  V30 20 1 16 21
M  V30 21 1 17 22
M  V30 22 2 17 23
M  V30 23 1 18 24
M  V30 24 1 20 25
M  V30 25 1 21 26
M  V30 26 1 21 27
M  V30 27 1 22 28
M  V30 28 1 23 29
M  V30 29 2 25 30
M  V30 30 1 31 25
M  V30 31 1 26 32
M  V30 32 1 27 33
M  V30 33 1 31 34 CFG=1
M  V30 34 1 31 35
M  V30 35 1 32 36
M  V30 36 1 34 37
M  V30 37 1 4 6
M  V30 38 1 11 12
M  V30 39 2 19 22
M  V30 40 2 24 29
M  V30 41 1 33 36
M  V30 END BOND
M  V30 BEGIN COLLECTION
M  V30 MDLV30/STEABS ATOMS=(3 5 16 31)
M  V30 END COLLECTION
M  V30 END CTAB
M  END
>  <Compound ID>
52

>  <Name>


>  <Smiles>
CN[C@@H](C)C(=O)N[C@H](C(=O)N1CCC[C@H]1C1=NC(C2=CC=C(F)C3=CC=CC=C23)=CS1)C1CCCCC1

$$$$
Compound 53
Actelion Java MolfileCreator 2.0

  0  0  0  0  0  0              0 V3000
M  V30 BEGIN CTAB
M  V30 COUNTS 36 40 0 0 0
M  V30 BEGIN ATOM
M  V30 1 S 5.528 2.6581 0.0 0
M  V30 2 C 4.6145 3.0649 0.0 0
M  V30 3 C 5.4235 1.6636 0.0 0
M  V30 4 C 3.9454 2.3217 0.0 0
M  V30 5 C 4.3055 4.0159 0.0 0
M  V30 6 N 4.4454 1.4557 0.0 0
M  V30 7 C 6.1667 0.9945 0.0 0 CFG=1
M  V30 8 C 2.9672 2.5296 0.0 0
M  V30 9 C 3.3273 4.2238 0.0 0
M  V30 10 N 6.0621 0.0 0.0 0
M  V30 11 C 7.1448 1.2024 0.0 0
M  V30 12 N 2.6582 3.4807 0.0 0
M  V30 13 C 2.2981 1.7865 0.0 0
M  V30 14 C 5.1961 -0.5 0.0 0
M  V30 15 C 6.9757 -0.4067 0.0 0
M  V30 16 C 7.6448 0.3364 0.0 0
M  V30 17 C 1.3199 1.9944 0.0 0
M  V30 18 C 2.6071 0.8354 0.0 0
M  V30 19 O 4.3301 0.0 0.0 0
M  V30 20 C 5.1961 -1.4999 0.0 0 CFG=1
M  V30 21 C 0.6508 1.2512 0.0 0
M  V30 22 C 1.938 0.0923 0.0 0
M  V30 23 N 4.3301 -1.9999 0.0 0
M  V30 24 C 6.0621 -1.9999 0.0 0
M  V30 25 C 0.9598 0.3002 0.0 0
M  V30 26 C 4.3301 -2.9999 0.0 0
M  V30 27 C 6.9282 -1.4999 0.0 0
M  V30 28 C 6.0621 -2.9999 0.0 0
M  V30 29 O 5.1961 -3.5 0.0 0
M  V30 30 C 3.4641 -3.4999 0.0 0 CFG=1
M  V30 31 C 7.7942 -1.9999 0.0 0
M  V30 32 C 6.9282 -3.4999 0.0 0
M  V30 33 N 3.4641 -4.4999 0.0 0
M  V30 34 C 2.598 -2.9999 0.0 0
M  V30 35 C 7.7942 -2.9999 0.0 0
M  V30 36 C 2.598 -4.9999 0.0 0
M  V30 END ATOM
M  V30 BEGIN BOND
M  V30 1 1 1 2
M  V30 2 1 1 3
M  V30 3 2 2 4
M  V30 4 1 2 5
M  V30 5 2 3 6
M  V30 6 1 7 3 CFG=3
M  V30 7 1 4 8
M  V30 8 2 5 9
M  V30 9 1 7 10
M  V30 10 1 7 11
M  V30 11 2 8 12
M  V30 12 1 8 13
M  V30 13 1 10 14
M  V30 14 1 10 15
M  V30 15 1 11 16
M  V30 16 2 13 17
M  V30 17 1 13 18
M  V30 18 2 14 19
M  V30 19 1 20 14
M  V30 20 1 17 21
M  V30 21 2 18 22
M  V30 22 1 20 23 CFG=3
M  V30 23 1 20 24
M  V30 24 2 21 25
M  V30 25 1 23 26
M  V30 26 1 24 27
M  V30 27 1 24 28
M  V30 28 2 26 29
M  V30 29 1 30 26
M  V30 30 1 27 31
M  V30 31 1 28 32
M  V30 32 1 30 33 CFG=1
M  V30 33 1 30 34
M  V30 34 1 31 35
M  V30 35 1 33 36
M  V30 36 1 4 6
M  V30 37 1 9 12
M  V30 38 1 15 16
M  V30 39 1 22 25
M  V30 40 1 32 35
M  V30 END BOND
M  V30 BEGIN COLLECTION
M  V30 MDLV30/STEABS ATOMS=(3 7 20 30)
M  V30 END COLLECTION
M  V30 END CTAB
M  END
>  <Compound ID>
53

>  <Name>


>  <Smiles>
CN[C@@H](C)C(=O)N[C@H](C(=O)N1CCC[C@H]1C1=NC2=C(C3=CC=CC=C3)N=CC=C2S1)C1CCCCC1

$$$$
Compound 54
Actelion Java MolfileCreator 2.0

  0  0  0  0  0  0              0 V3000
M  V30 BEGIN CTAB
M  V30 COUNTS 37 40 0 0 0
M  V30 BEGIN ATOM
M  V30 1 F -0.0748 0.7876 0.0 0
M  V30 2 C 0.8761 1.0967 0.0 0
M  V30 3 C 1.0841 2.0748 0.0 0
M  V30 4 C 1.6193 0.4275 0.0 0
M  V30 5 C 0.3409 2.7439 0.0 0
M  V30 6 C 2.0351 2.3838 0.0 0
M  V30 7 C 2.5703 0.7366 0.0 0
M  V30 8 O -0.61 2.4349 0.0 0
M  V30 9 O 0.5488 3.7221 0.0 0
M  V30 10 C 2.7783 1.7147 0.0 0
M  V30 11 C 3.7293 2.0237 0.0 0
M  V30 12 C 3.9372 3.0019 0.0 0
M  V30 13 C 4.4725 1.3546 0.0 0
M  V30 14 N 4.8883 3.3109 0.0 0
M  V30 15 C 5.4235 1.6636 0.0 0
M  V30 16 C 5.6314 2.6418 0.0 0
M  V30 17 C 6.1667 0.9945 0.0 0 CFG=1
M  V30 18 N 6.0621 0.0 0.0 0
M  V30 19 C 7.1448 1.2024 0.0 0
M  V30 20 C 5.1961 -0.5 0.0 0
M  V30 21 C 6.9757 -0.4067 0.0 0
M  V30 22 C 7.6448 0.3364 0.0 0
M  V30 23 O 4.3301 0.0 0.0 0
M  V30 24 C 5.1961 -1.4999 0.0 0 CFG=1
M  V30 25 N 4.3301 -1.9999 0.0 0
M  V30 26 C 6.0621 -1.9999 0.0 0
M  V30 27 C 4.3301 -2.9999 0.0 0
M  V30 28 C 6.9282 -1.4999 0.0 0
M  V30 29 C 6.0621 -2.9999 0.0 0
M  V30 30 O 5.1961 -3.5 0.0 0
M  V30 31 C 3.4641 -3.4999 0.0 0 CFG=1
M  V30 32 C 7.7942 -1.9999 0.0 0
M  V30 33 C 6.9282 -3.4999 0.0 0
M  V30 34 N 3.4641 -4.4999 0.0 0
M  V30 35 C 2.598 -2.9999 0.0 0
M  V30 36 C 7.7942 -2.9999 0.0 0
M  V30 37 C 2.598 -4.9999 0.0 0
M  V30 END ATOM
M  V30 BEGIN BOND
M  V30 1 1 1 2
M  V30 2 2 2 3
M  V30 3 1 2 4
M  V30 4 1 3 5
M  V30 5 1 3 6
M  V30 6 2 4 7
M  V30 7 2 5 8
M  V30 8 1 5 9
M  V30 9 2 6 10
M  V30 10 1 10 11
M  V30 11 2 11 12
M  V30 12 1 11 13
M  V30 13 1 12 14
M  V30 14 2 13 15
M  V30 15 2 14 16
M  V30 16 1 17 15 CFG=3
M  V30 17 1 17 18
M  V30 18 1 17 19
M  V30 19 1 18 20
M  V30 20 1 18 21
M  V30 21 1 19 22
M  V30 22 2 20 23
M  V30 23 1 24 20
M  V30 24 1 24 25 CFG=3
M  V30 25 1 24 26
M  V30 26 1 25 27
M  V30 27 1 26 28
M  V30 28 1 26 29
M  V30 29 2 27 30
M  V30 30 1 31 27
M  V30 31 1 28 32
M  V30 32 1 29 33
M  V30 33 1 31 34 CFG=1
M  V30 34 1 31 35
M  V30 35 1 32 36
M  V30 36 1 34 37
M  V30 37 1 7 10
M  V30 38 1 15 16
M  V30 39 1 21 22
M  V30 40 1 33 36
M  V30 END BOND
M  V30 BEGIN COLLECTION
M  V30 MDLV30/STEABS ATOMS=(3 17 24 31)
M  V30 END COLLECTION
M  V30 END CTAB
M  END
>  <Compound ID>
54

>  <Name>


>  <Smiles>
CN[C@@H](C)C(=O)N[C@H](C(=O)N1CCC[C@H]1C1=CN=CC(C2=CC=C(F)C(C(=O)O)=C2)=C1)C1CCCCC1

$$$$
Compound 55
Actelion Java MolfileCreator 2.0

  0  0  0  0  0  0              0 V3000
M  V30 BEGIN CTAB
M  V30 COUNTS 36 39 0 0 0
M  V30 BEGIN ATOM
M  V30 1 O 5.9271 7.6302 0.0 0
M  V30 2 C 4.9271 7.6302 0.0 0
M  V30 3 O 4.4271 8.4963 0.0 0
M  V30 4 C 4.4271 6.7642 0.0 0
M  V30 5 C 4.9271 5.8982 0.0 0
M  V30 6 C 3.4271 6.7642 0.0 0
M  V30 7 C 4.4271 5.0322 0.0 0
M  V30 8 C 5.9052 5.6903 0.0 0
M  V30 9 C 2.9271 5.8982 0.0 0
M  V30 10 N 5.0962 4.289 0.0 0
M  V30 11 C 3.4271 5.0322 0.0 0
M  V30 12 C 6.0097 4.6958 0.0 0
M  V30 13 C 4.8883 3.3109 0.0 0
M  V30 14 C 3.9372 3.0019 0.0 0
M  V30 15 C 5.6314 2.6418 0.0 0
M  V30 16 N 3.7293 2.0237 0.0 0
M  V30 17 C 5.4235 1.6636 0.0 0
M  V30 18 C 4.4725 1.3546 0.0 0
M  V30 19 C 6.1667 0.9945 0.0 0 CFG=1
M  V30 20 N 6.0621 0.0 0.0 0
M  V30 21 C 7.1448 1.2024 0.0 0
M  V30 22 C 5.1961 -0.5 0.0 0
M  V30 23 C 6.9757 -0.4067 0.0 0
M  V30 24 C 7.6448 0.3364 0.0 0
M  V30 25 O 4.3301 0.0 0.0 0
M  V30 26 C 5.1961 -1.4999 0.0 0 CFG=1
M  V30 27 N 4.3301 -1.9999 0.0 0
M  V30 28 C 6.0621 -1.9999 0.0 0
M  V30 29 C 4.3301 -2.9999 0.0 0
M  V30 30 C 6.9282 -1.4999 0.0 0
M  V30 31 C 6.0621 -2.9999 0.0 0
M  V30 32 O 5.1961 -3.5 0.0 0
M  V30 33 C 3.4641 -3.4999 0.0 0 CFG=1
M  V30 34 N 3.4641 -4.4999 0.0 0
M  V30 35 C 2.598 -2.9999 0.0 0
M  V30 36 C 2.598 -4.9999 0.0 0
M  V30 END ATOM
M  V30 BEGIN BOND
M  V30 1 2 1 2
M  V30 2 1 2 3
M  V30 3 1 2 4
M  V30 4 2 4 5
M  V30 5 1 4 6
M  V30 6 1 5 7
M  V30 7 1 5 8
M  V30 8 2 6 9
M  V30 9 1 7 10
M  V30 10 2 7 11
M  V30 11 2 8 12
M  V30 12 1 10 13
M  V30 13 2 13 14
M  V30 14 1 13 15
M  V30 15 1 14 16
M  V30 16 2 15 17
M  V30 17 2 16 18
M  V30 18 1 19 17 CFG=3
M  V30 19 1 19 20
M  V30 20 1 19 21
M  V30 21 1 20 22
M  V30 22 1 20 23
M  V30 23 1 21 24
M  V30 24 2 22 25
M  V30 25 1 26 22
M  V30 26 1 26 27 CFG=3
M  V30 27 1 26 28
M  V30 28 1 27 29
M  V30 29 1 28 30
M  V30 30 1 28 31
M  V30 31 2 29 32
M  V30 32 1 33 29
M  V30 33 1 33 34 CFG=1
M  V30 34 1 33 35
M  V30 35 1 34 36
M  V30 36 1 9 11
M  V30 37 1 10 12
M  V30 38 1 17 18
M  V30 39 1 23 24
M  V30 END BOND
M  V30 BEGIN COLLECTION
M  V30 MDLV30/STEABS ATOMS=(3 19 26 33)
M  V30 END COLLECTION
M  V30 END CTAB
M  END
>  <Compound ID>
55

>  <Name>


>  <Smiles>
CN[C@@H](C)C(=O)N[C@H](C(=O)N1CCC[C@H]1C1=CN=CC(N2C=CC3=C(C(=O)O)C=CC=C32)=C1)C(C)C

$$$$
Compound 56
Actelion Java MolfileCreator 2.0

  0  0  0  0  0  0              0 V3000
M  V30 BEGIN CTAB
M  V30 COUNTS 35 38 0 0 0
M  V30 BEGIN ATOM
M  V30 1 S 5.8652 4.6545 0.0 0
M  V30 2 N 5.1152 5.9535 0.0 0
M  V30 3 C 7.3324 4.9663 0.0 0
M  V30 4 N 6.1189 7.0682 0.0 0
M  V30 5 N 8.4472 3.9627 0.0 0
M  V30 6 C 7.4892 6.4581 0.0 0
M  V30 7 C 8.1353 2.4954 0.0 0
M  V30 8 C 8.7883 7.2081 0.0 0
M  V30 9 O 6.7087 2.0319 0.0 0
M  V30 10 C 9.25 1.4917 0.0 0 CFG=1
M  V30 11 C 8.7883 8.7081 0.0 0
M  V30 12 C 10.0873 6.4581 0.0 0
M  V30 13 N 9.0932 0.0 0.0 0
M  V30 14 C 10.7172 1.8036 0.0 0
M  V30 15 C 10.0873 9.4581 0.0 0
M  V30 16 C 11.3863 7.2081 0.0 0
M  V30 17 C 7.7942 -0.75 0.0 0
M  V30 18 C 10.4635 -0.6101 0.0 0
M  V30 19 C 11.4672 0.5046 0.0 0
M  V30 20 C 11.3863 8.7081 0.0 0
M  V30 21 O 6.4951 0.0 0.0 0
M  V30 22 C 7.7942 -2.25 0.0 0 CFG=1
M  V30 23 N 6.4951 -2.9999 0.0 0
M  V30 24 C 9.0932 -3.0 0.0 0
M  V30 25 C 6.4951 -4.5 0.0 0
M  V30 26 C 10.3923 -2.2499 0.0 0
M  V30 27 C 9.0932 -4.5 0.0 0
M  V30 28 O 7.7942 -5.25 0.0 0
M  V30 29 C 5.1961 -5.25 0.0 0 CFG=1
M  V30 30 C 11.6913 -3.0 0.0 0
M  V30 31 C 10.3923 -5.25 0.0 0
M  V30 32 N 5.1961 -6.75 0.0 0
M  V30 33 C 3.8971 -4.4999 0.0 0
M  V30 34 C 11.6913 -4.4999 0.0 0
M  V30 35 C 3.8971 -7.4999 0.0 0
M  V30 END ATOM
M  V30 BEGIN BOND
M  V30 1 1 1 2
M  V30 2 1 1 3
M  V30 3 2 2 4
M  V30 4 1 3 5
M  V30 5 2 3 6
M  V30 6 1 5 7
M  V30 7 1 6 8
M  V30 8 2 7 9
M  V30 9 1 10 7 CFG=3
M  V30 10 2 8 11
M  V30 11 1 8 12
M  V30 12 1 10 13
M  V30 13 1 10 14
M  V30 14 1 11 15
M  V30 15 2 12 16
M  V30 16 1 13 17
M  V30 17 1 13 18
M  V30 18 1 14 19
M  V30 19 2 15 20
M  V30 20 2 17 21
M  V30 21 1 22 17
M  V30 22 1 22 23 CFG=3
M  V30 23 1 22 24
M  V30 24 1 23 25
M  V30 25 1 24 26
M  V30 26 1 24 27
M  V30 27 2 25 28
M  V30 28 1 29 25
M  V30 29 1 26 30
M  V30 30 1 27 31
M  V30 31 1 29 32 CFG=1
M  V30 32 1 29 33
M  V30 33 1 30 34
M  V30 34 1 32 35
M  V30 35 1 4 6
M  V30 36 1 16 20
M  V30 37 1 18 19
M  V30 38 1 31 34
M  V30 END BOND
M  V30 BEGIN COLLECTION
M  V30 MDLV30/STEABS ATOMS=(3 10 22 29)
M  V30 END COLLECTION
M  V30 END CTAB
M  END
>  <Compound ID>
56

>  <Name>
GDC-0152

>  <Smiles>
CN[C@@H](C)C(=O)N[C@H](C(=O)N1CCC[C@H]1C(=O)NC1=C(C2=CC=CC=C2)N=NS1)C1CCCCC1

$$$$
Compound 57
Actelion Java MolfileCreator 2.0

  0  0  0  0  0  0              0 V3000
M  V30 BEGIN CTAB
M  V30 COUNTS 36 39 0 0 0
M  V30 BEGIN ATOM
M  V30 1 F 1.9466 -2.1978 0.0 0
M  V30 2 C 2.1545 -1.2196 0.0 0
M  V30 3 C 1.4114 -0.5505 0.0 0
M  V30 4 C 3.1056 -0.9106 0.0 0
M  V30 5 C 1.6193 0.4275 0.0 0
M  V30 6 C 3.3135 0.0674 0.0 0
M  V30 7 C 2.5703 0.7366 0.0 0
M  V30 8 C 2.7783 1.7147 0.0 0
M  V30 9 O 2.0351 2.3838 0.0 0
M  V30 10 C 3.7293 2.0237 0.0 0
M  V30 11 C 3.9372 3.0019 0.0 0
M  V30 12 C 4.4725 1.3546 0.0 0
M  V30 13 N 4.8883 3.3109 0.0 0
M  V30 14 C 5.4235 1.6636 0.0 0
M  V30 15 C 5.6314 2.6418 0.0 0
M  V30 16 C 6.1667 0.9945 0.0 0 CFG=1
M  V30 17 N 6.0621 0.0 0.0 0
M  V30 18 C 7.1448 1.2024 0.0 0
M  V30 19 C 5.1961 -0.5 0.0 0
M  V30 20 C 6.9757 -0.4067 0.0 0
M  V30 21 C 7.6448 0.3364 0.0 0
M  V30 22 O 4.3301 0.0 0.0 0
M  V30 23 C 5.1961 -1.4999 0.0 0 CFG=1
M  V30 24 N 4.3301 -1.9999 0.0 0
M  V30 25 C 6.0621 -1.9999 0.0 0
M  V30 26 C 4.3301 -2.9999 0.0 0
M  V30 27 C 6.9282 -1.4999 0.0 0
M  V30 28 C 6.0621 -2.9999 0.0 0
M  V30 29 O 5.1961 -3.5 0.0 0
M  V30 30 C 3.4641 -3.4999 0.0 0 CFG=1
M  V30 31 C 7.7942 -1.9999 0.0 0
M  V30 32 C 6.9282 -3.4999 0.0 0
M  V30 33 N 3.4641 -4.4999 0.0 0
M  V30 34 C 2.598 -2.9999 0.0 0
M  V30 35 C 7.7942 -2.9999 0.0 0
M  V30 36 C 2.598 -4.9999 0.0 0
M  V30 END ATOM
M  V30 BEGIN BOND
M  V30 1 1 1 2
M  V30 2 2 2 3
M  V30 3 1 2 4
M  V30 4 1 3 5
M  V30 5 2 4 6
M  V30 6 2 5 7
M  V30 7 1 7 8
M  V30 8 2 8 9
M  V30 9 1 8 10
M  V30 10 2 10 11
M  V30 11 1 10 12
M  V30 12 1 11 13
M  V30 13 2 12 14
M  V30 14 2 13 15
M  V30 15 1 16 14 CFG=3
M  V30 16 1 16 17
M  V30 17 1 16 18
M  V30 18 1 17 19
M  V30 19 1 17 20
M  V30 20 1 18 21
M  V30 21 2 19 22
M  V30 22 1 23 19
M  V30 23 1 23 24 CFG=3
M  V30 24 1 23 25
M  V30 25 1 24 26
M  V30 26 1 25 27
M  V30 27 1 25 28
M  V30 28 2 26 29
M  V30 29 1 30 26
M  V30 30 1 27 31
M  V30 31 1 28 32
M  V30 32 1 30 33 CFG=1
M  V30 33 1 30 34
M  V30 34 1 31 35
M  V30 35 1 33 36
M  V30 36 1 6 7
M  V30 37 1 14 15
M  V30 38 1 20 21
M  V30 39 1 32 35
M  V30 END BOND
M  V30 BEGIN COLLECTION
M  V30 MDLV30/STEABS ATOMS=(3 16 23 30)
M  V30 END COLLECTION
M  V30 END CTAB
M  END
>  <Compound ID>
57

>  <Name>


>  <Smiles>
CN[C@@H](C)C(=O)N[C@H](C(=O)N1CCC[C@H]1C1=CN=CC(C(=O)C2=CC=C(F)C=C2)=C1)C1CCCCC1

$$$$
Compound 58
Actelion Java MolfileCreator 2.0

  0  0  0  0  0  0              0 V3000
M  V30 BEGIN CTAB
M  V30 COUNTS 20 22 0 0 0
M  V30 BEGIN ATOM
M  V30 1 O 1.732 -1.5 0.0 0
M  V30 2 C 1.732 -0.5 0.0 0
M  V30 3 N 2.598 0.0 0.0 0
M  V30 4 C 0.866 0.0 0.0 0 CFG=1
M  V30 5 C 2.598 0.9999 0.0 0
M  V30 6 N 0.0 -0.5 0.0 0
M  V30 7 C 0.866 1.0 0.0 0
M  V30 8 O 3.4641 1.4999 0.0 0
M  V30 9 C 1.732 1.4999 0.0 0
M  V30 10 C -0.9135 -0.0932 0.0 0
M  V30 11 C -0.1045 -1.4945 0.0 0
M  V30 12 O -1.1214 0.8848 0.0 0
M  V30 13 C -1.5826 -0.8364 0.0 0
M  V30 14 O 0.6386 -2.1636 0.0 0
M  V30 15 C -1.0826 -1.7024 0.0 0
M  V30 16 C -2.5826 -0.8364 0.0 0
M  V30 17 C -1.5826 -2.5684 0.0 0
M  V30 18 C -3.0826 -1.7024 0.0 0
M  V30 19 C -2.5826 -2.5684 0.0 0
M  V30 20 N -4.0826 -1.7024 0.0 0
M  V30 END ATOM
M  V30 BEGIN BOND
M  V30 1 2 1 2
M  V30 2 1 2 3
M  V30 3 1 4 2
M  V30 4 1 3 5
M  V30 5 1 4 6 CFG=1
M  V30 6 1 4 7
M  V30 7 2 5 8
M  V30 8 1 5 9
M  V30 9 1 6 10
M  V30 10 1 6 11
M  V30 11 2 10 12
M  V30 12 1 10 13
M  V30 13 2 11 14
M  V30 14 1 11 15
M  V30 15 1 13 16
M  V30 16 1 15 17
M  V30 17 2 16 18
M  V30 18 2 17 19
M  V30 19 1 18 20
M  V30 20 1 7 9
M  V30 21 2 13 15
M  V30 22 1 18 19
M  V30 END BOND
M  V30 BEGIN COLLECTION
M  V30 MDLV30/STERAC1 ATOMS=(1 4)
M  V30 END COLLECTION
M  V30 END CTAB
M  END
>  <Compound ID>
58

>  <Name>


>  <Smiles>
NC1=CC=C2C(=O)N(C3CCC(=O)NC3=O)C(=O)C2=C1

$$$$
Compound 59
Actelion Java MolfileCreator 2.0

  0  0  0  0  0  0              0 V3000
M  V30 BEGIN CTAB
M  V30 COUNTS 33 36 0 0 0
M  V30 BEGIN ATOM
M  V30 1 O 7.5109 -2.3282 0.0 0
M  V30 2 C 7.7345 -0.8449 0.0 0
M  V30 3 N 9.1679 -0.4028 0.0 0
M  V30 4 C 6.4951 0.0 0.0 0 CFG=1
M  V30 5 C 10.3265 -1.3555 0.0 0 CFG=2
M  V30 6 C 9.7159 0.9934 0.0 0 CFG=1
M  V30 7 N 5.1961 -0.75 0.0 0
M  V30 8 C 6.3831 1.4958 0.0 0
M  V30 9 C 10.2368 -2.8528 0.0 0
M  V30 10 C 11.5906 -0.5479 0.0 0
M  V30 11 O 8.9659 2.2925 0.0 0
M  V30 12 C 11.2132 0.9037 0.0 0
M  V30 13 C 3.8971 0.0 0.0 0
M  V30 14 C 7.4826 2.516 0.0 0
M  V30 15 O 11.4887 -3.6791 0.0 0
M  V30 16 N 8.8952 -3.5238 0.0 0
M  V30 17 C 12.5258 -1.7207 0.0 0
M  V30 18 C 13.0738 -0.3244 0.0 0
M  V30 19 O 3.8971 1.5 0.0 0
M  V30 20 C 2.598 -0.75 0.0 0 CFG=1
M  V30 21 C 8.8055 -5.0211 0.0 0 CFG=1
M  V30 22 N 1.299 0.0 0.0 0
M  V30 23 C 2.598 -2.25 0.0 0
M  V30 24 C 7.4639 -5.692 0.0 0
M  V30 25 C 10.0574 -5.8474 0.0 0
M  V30 26 C 0.0 -0.75 0.0 0
M  V30 27 C 7.3742 -7.1894 0.0 0
M  V30 28 C 6.2121 -4.8657 0.0 0
M  V30 29 C 9.9677 -7.3447 0.0 0
M  V30 30 C 6.0327 -7.8603 0.0 0
M  V30 31 C 8.6261 -8.0157 0.0 0
M  V30 32 C 4.8705 -5.5367 0.0 0
M  V30 33 C 4.7808 -7.034 0.0 0
M  V30 END ATOM
M  V30 BEGIN BOND
M  V30 1 2 1 2
M  V30 2 1 2 3
M  V30 3 1 4 2
M  V30 4 1 5 3
M  V30 5 1 6 3
M  V30 6 1 4 7 CFG=1
M  V30 7 1 4 8
M  V30 8 1 5 9 CFG=1
M  V30 9 1 5 10
M  V30 10 1 6 11 CFG=1
M  V30 11 1 6 12
M  V30 12 1 7 13
M  V30 13 1 8 14
M  V30 14 2 9 15
M  V30 15 1 9 16
M  V30 16 1 10 17
M  V30 17 1 10 18
M  V30 18 2 13 19
M  V30 19 1 20 13
M  V30 20 1 21 16 CFG=3
M  V30 21 1 20 22 CFG=3
M  V30 22 1 20 23
M  V30 23 1 21 24
M  V30 24 1 21 25
M  V30 25 1 22 26
M  V30 26 2 24 27
M  V30 27 1 24 28
M  V30 28 1 25 29
M  V30 29 1 27 30
M  V30 30 1 27 31
M  V30 31 2 28 32
M  V30 32 2 30 33
M  V30 33 1 10 12
M  V30 34 1 11 14
M  V30 35 1 29 31
M  V30 36 1 32 33
M  V30 END BOND
M  V30 BEGIN COLLECTION
M  V30 MDLV30/STEABS ATOMS=(5 4 5 6 20 21)
M  V30 END COLLECTION
M  V30 END CTAB
M  END
>  <Compound ID>
59

>  <Name>


>  <Smiles>
CN[C@@H](C)C(=O)N[C@H]1CCO[C@H]2CC(C)(C)[C@@H](C(=O)N[C@@H]3CCCC4=CC=CC=C43)N2C1=O

$$$$
Compound 60
Actelion Java MolfileCreator 2.0

  0  0  0  0  0  0              0 V3000
M  V30 BEGIN CTAB
M  V30 COUNTS 23 26 0 0 0
M  V30 BEGIN ATOM
M  V30 1 O 0.866 0.0 0.0 0
M  V30 2 C 0.0 -0.5 0.0 0
M  V30 3 N -0.866 0.0 0.0 0
M  V30 4 C 0.0 -1.4999 0.0 0
M  V30 5 C -1.732 -0.4999 0.0 0
M  V30 6 C -0.866 1.0 0.0 0 CFG=2
M  V30 7 C -0.866 -1.9999 0.0 0
M  V30 8 C 0.866 -1.9999 0.0 0
M  V30 9 O -2.598 0.0 0.0 0
M  V30 10 C -1.732 -1.4999 0.0 0
M  V30 11 C 0.0 1.4999 0.0 0
M  V30 12 C -1.732 1.5 0.0 0
M  V30 13 C -0.866 -2.9999 0.0 0
M  V30 14 C 0.866 -3.0 0.0 0
M  V30 15 C -2.598 -1.9999 0.0 0
M  V30 16 O 0.866 0.9999 0.0 0
M  V30 17 N 0.0 2.4999 0.0 0
M  V30 18 C -1.732 2.5 0.0 0
M  V30 19 C 0.0 -3.4999 0.0 0
M  V30 20 C -1.732 -3.4999 0.0 0
M  V30 21 C -2.598 -2.9999 0.0 0
M  V30 22 C -0.866 3.0 0.0 0
M  V30 23 O -0.866 4.0 0.0 0
M  V30 END ATOM
M  V30 BEGIN BOND
M  V30 1 2 1 2
M  V30 2 1 2 3
M  V30 3 1 2 4
M  V30 4 1 3 5
M  V30 5 1 6 3 CFG=1
M  V30 6 1 4 7
M  V30 7 2 4 8
M  V30 8 2 5 9
M  V30 9 1 5 10
M  V30 10 1 6 11
M  V30 11 1 6 12
M  V30 12 1 7 13
M  V30 13 1 8 14
M  V30 14 1 10 15
M  V30 15 2 11 16
M  V30 16 1 11 17
M  V30 17 1 12 18
M  V30 18 1 13 19
M  V30 19 2 13 20
M  V30 20 2 15 21
M  V30 21 1 17 22
M  V30 22 2 22 23
M  V30 23 2 7 10
M  V30 24 2 14 19
M  V30 25 1 18 22
M  V30 26 1 20 21
M  V30 END BOND
M  V30 BEGIN COLLECTION
M  V30 MDLV30/STERAC1 ATOMS=(1 6)
M  V30 END COLLECTION
M  V30 END CTAB
M  END
>  <Compound ID>
60

>  <Name>


>  <Smiles>
O=C1CCC(N2C(=O)C3=CC=CC4=CC=CC(=C34)C2=O)C(=O)N1

$$$$
Compound 61
Actelion Java MolfileCreator 2.0

  0  0  0  0  0  0              0 V3000
M  V30 BEGIN CTAB
M  V30 COUNTS 27 29 0 0 0
M  V30 BEGIN ATOM
M  V30 1 Cl 6.4951 0.0 0.0 0
M  V30 2 C 5.1961 -0.75 0.0 0
M  V30 3 C 3.8971 0.0 0.0 0
M  V30 4 O 3.8971 1.5 0.0 0
M  V30 5 N 2.598 -0.75 0.0 0
M  V30 6 C 2.598 -2.25 0.0 0
M  V30 7 C 1.299 0.0 0.0 0
M  V30 8 C 1.299 -3.0 0.0 0
M  V30 9 C 3.8971 -3.0 0.0 0
M  V30 10 C 0.0 -0.75 0.0 0
M  V30 11 C 1.299 -4.5 0.0 0
M  V30 12 C 3.8971 -4.4999 0.0 0
M  V30 13 C -1.299 0.0 0.0 0
M  V30 14 C 0.0 -2.2499 0.0 0
M  V30 15 C 2.598 -5.2499 0.0 0
M  V30 16 C -2.598 -0.7499 0.0 0
M  V30 17 C -1.299 -2.9999 0.0 0
M  V30 18 O 2.598 -6.75 0.0 0
M  V30 19 C -2.598 -2.2499 0.0 0
M  V30 20 C 3.8971 -7.5 0.0 0
M  V30 21 C 3.8971 -9.0 0.0 0
M  V30 22 C 5.1961 -6.75 0.0 0
M  V30 23 C 5.1961 -9.75 0.0 0
M  V30 24 C 6.4951 -7.5 0.0 0
M  V30 25 C 6.4951 -9.0 0.0 0
M  V30 26 O 7.7942 -9.75 0.0 0
M  V30 27 C 9.0932 -9.0 0.0 0
M  V30 END ATOM
M  V30 BEGIN BOND
M  V30 1 1 1 2
M  V30 2 1 2 3
M  V30 3 2 3 4
M  V30 4 1 3 5
M  V30 5 1 5 6
M  V30 6 1 5 7
M  V30 7 2 6 8
M  V30 8 1 6 9
M  V30 9 1 7 10
M  V30 10 1 8 11
M  V30 11 2 9 12
M  V30 12 2 10 13
M  V30 13 1 10 14
M  V30 14 2 11 15
M  V30 15 1 13 16
M  V30 16 2 14 17
M  V30 17 1 15 18
M  V30 18 2 16 19
M  V30 19 1 18 20
M  V30 20 2 20 21
M  V30 21 1 20 22
M  V30 22 1 21 23
M  V30 23 2 22 24
M  V30 24 2 23 25
M  V30 25 1 25 26
M  V30 26 1 26 27
M  V30 27 1 12 15
M  V30 28 1 17 19
M  V30 29 1 24 25
M  V30 END BOND
M  V30 END CTAB
M  END
>  <Compound ID>
61

>  <Name>
CCW 16

>  <Smiles>
COC1=CC=C(OC2=CC=C(N(CC3=CC=CC=C3)C(=O)CCl)C=C2)C=C1

$$$$
Compound 62
Actelion Java MolfileCreator 2.0

  0  0  0  0  0  0              0 V3000
M  V30 BEGIN CTAB
M  V30 COUNTS 22 24 0 0 0
M  V30 BEGIN ATOM
M  V30 1 O 0.866 -1.9999 0.0 0
M  V30 2 C 1.732 -1.4999 0.0 0
M  V30 3 N 2.598 -1.9999 0.0 0
M  V30 4 C 1.732 -0.5 0.0 0 CFG=1
M  V30 5 C 3.4641 -1.4999 0.0 0
M  V30 6 N 0.866 0.0 0.0 0
M  V30 7 C 2.598 0.0 0.0 0
M  V30 8 O 4.3301 -1.9999 0.0 0
M  V30 9 C 3.4641 -0.5 0.0 0
M  V30 10 C 0.0 -0.5 0.0 0
M  V30 11 C -0.866 0.0 0.0 0
M  V30 12 C 0.0 -1.4999 0.0 0
M  V30 13 C -1.732 -0.4999 0.0 0
M  V30 14 C -0.866 -1.9999 0.0 0
M  V30 15 C -1.732 -1.4999 0.0 0
M  V30 16 N -2.598 -1.9999 0.0 0
M  V30 17 C -3.4641 -1.4999 0.0 0
M  V30 18 C -2.598 -2.9999 0.0 0
M  V30 19 C -4.3301 -1.9999 0.0 0
M  V30 20 C -3.4641 -3.4999 0.0 0
M  V30 21 N -4.3301 -2.9999 0.0 0
M  V30 22 C -5.1961 -3.4999 0.0 0
M  V30 END ATOM
M  V30 BEGIN BOND
M  V30 1 2 1 2
M  V30 2 1 2 3
M  V30 3 1 4 2
M  V30 4 1 3 5
M  V30 5 1 4 6 CFG=1
M  V30 6 1 4 7
M  V30 7 2 5 8
M  V30 8 1 5 9
M  V30 9 1 6 10
M  V30 10 2 10 11
M  V30 11 1 10 12
M  V30 12 1 11 13
M  V30 13 2 12 14
M  V30 14 2 13 15
M  V30 15 1 15 16
M  V30 16 1 16 17
M  V30 17 1 16 18
M  V30 18 1 17 19
M  V30 19 1 18 20
M  V30 20 1 19 21
M  V30 21 1 21 22
M  V30 22 1 7 9
M  V30 23 1 14 15
M  V30 24 1 20 21
M  V30 END BOND
M  V30 BEGIN COLLECTION
M  V30 MDLV30/STERAC1 ATOMS=(1 4)
M  V30 END COLLECTION
M  V30 END CTAB
M  END
>  <Compound ID>
62

>  <Name>


>  <Smiles>
CN1CCN(C2=CC=C(NC3CCC(=O)NC3=O)C=C2)CC1

$$$$
Compound 63
Actelion Java MolfileCreator 2.0

  0  0  0  0  0  0              0 V3000
M  V30 BEGIN CTAB
M  V30 COUNTS 18 20 0 0 0
M  V30 BEGIN ATOM
M  V30 1 O 1.732 -1.5 0.0 0
M  V30 2 C 1.732 -0.5 0.0 0
M  V30 3 N 2.598 0.0 0.0 0
M  V30 4 C 0.866 0.0 0.0 0 CFG=1
M  V30 5 C 2.598 0.9999 0.0 0
M  V30 6 N 0.0 -0.5 0.0 0
M  V30 7 C 0.866 1.0 0.0 0
M  V30 8 O 3.4641 1.4999 0.0 0
M  V30 9 C 1.732 1.4999 0.0 0
M  V30 10 C -0.9135 -0.0932 0.0 0
M  V30 11 C -0.1045 -1.4945 0.0 0
M  V30 12 O -1.1214 0.8848 0.0 0
M  V30 13 O -1.5826 -0.8364 0.0 0
M  V30 14 C -1.0826 -1.7024 0.0 0
M  V30 15 C 0.5646 -2.2376 0.0 0
M  V30 16 C -1.3916 -2.6534 0.0 0
M  V30 17 C 0.2555 -3.1887 0.0 0
M  V30 18 C -0.7225 -3.3966 0.0 0
M  V30 END ATOM
M  V30 BEGIN BOND
M  V30 1 2 1 2
M  V30 2 1 2 3
M  V30 3 1 4 2
M  V30 4 1 3 5
M  V30 5 1 4 6 CFG=1
M  V30 6 1 4 7
M  V30 7 2 5 8
M  V30 8 1 5 9
M  V30 9 1 6 10
M  V30 10 1 6 11
M  V30 11 2 10 12
M  V30 12 1 10 13
M  V30 13 2 11 14
M  V30 14 1 11 15
M  V30 15 1 14 16
M  V30 16 2 15 17
M  V30 17 2 16 18
M  V30 18 1 7 9
M  V30 19 1 13 14
M  V30 20 1 17 18
M  V30 END BOND
M  V30 BEGIN COLLECTION
M  V30 MDLV30/STERAC1 ATOMS=(1 4)
M  V30 END COLLECTION
M  V30 END CTAB
M  END
>  <Compound ID>
63

>  <Name>


>  <Smiles>
O=C1CCC(N2C(=O)OC3=CC=CC=C32)C(=O)N1

$$$$
Compound 64
Actelion Java MolfileCreator 2.0

  0  0  0  0  0  0              0 V3000
M  V30 BEGIN CTAB
M  V30 COUNTS 19 21 0 0 0
M  V30 BEGIN ATOM
M  V30 1 O 1.732 -1.5 0.0 0
M  V30 2 C 1.732 -0.5 0.0 0
M  V30 3 N 2.598 0.0 0.0 0
M  V30 4 C 0.866 0.0 0.0 0 CFG=1
M  V30 5 C 2.598 0.9999 0.0 0
M  V30 6 N 0.0 -0.5 0.0 0
M  V30 7 C 0.866 1.0 0.0 0
M  V30 8 O 3.4641 1.4999 0.0 0
M  V30 9 C 1.732 1.4999 0.0 0
M  V30 10 C -0.9135 -0.0932 0.0 0
M  V30 11 C -0.1045 -1.4945 0.0 0
M  V30 12 O -1.1214 0.8848 0.0 0
M  V30 13 C -1.5826 -0.8364 0.0 0
M  V30 14 C -1.0826 -1.7024 0.0 0
M  V30 15 C -2.5826 -0.8364 0.0 0
M  V30 16 C -1.5826 -2.5684 0.0 0
M  V30 17 C -3.0826 -1.7024 0.0 0
M  V30 18 N -1.0826 -3.4344 0.0 0
M  V30 19 C -2.5826 -2.5684 0.0 0
M  V30 END ATOM
M  V30 BEGIN BOND
M  V30 1 2 1 2
M  V30 2 1 2 3
M  V30 3 1 4 2
M  V30 4 1 3 5
M  V30 5 1 4 6 CFG=1
M  V30 6 1 4 7
M  V30 7 2 5 8
M  V30 8 1 5 9
M  V30 9 1 6 10
M  V30 10 1 6 11
M  V30 11 2 10 12
M  V30 12 1 10 13
M  V30 13 1 11 14
M  V30 14 1 13 15
M  V30 15 1 14 16
M  V30 16 2 15 17
M  V30 17 1 16 18
M  V30 18 2 16 19
M  V30 19 1 7 9
M  V30 20 2 13 14
M  V30 21 1 17 19
M  V30 END BOND
M  V30 BEGIN COLLECTION
M  V30 MDLV30/STEABS ATOMS=(1 4)
M  V30 END COLLECTION
M  V30 END CTAB
M  END
>  <Compound ID>
64

>  <Name>
S-Lenalidomide

>  <Smiles>
NC1=CC=CC2=C1CN([C@H]1CCC(=O)NC1=O)C2=O

$$$$
Compound 65
Actelion Java MolfileCreator 2.0

  0  0  0  0  0  0              0 V3000
M  V30 BEGIN CTAB
M  V30 COUNTS 34 39 0 0 0
M  V30 BEGIN ATOM
M  V30 1 O 1.7223 -1.7525 0.0 0
M  V30 2 C 2.645 -2.1381 0.0 0
M  V30 3 C 2.7724 -3.13 0.0 0
M  V30 4 C 3.4403 -1.5319 0.0 0 CFG=2
M  V30 5 C 3.6951 -3.5156 0.0 0
M  V30 6 C 3.4641 -0.5 0.0 0 CFG=2
M  V30 7 C 4.363 -1.9175 0.0 0 CFG=2
M  V30 8 C 2.5493 -1.0779 0.0 0
M  V30 9 C 4.4904 -2.9093 0.0 0 CFG=2
M  V30 10 C 4.3183 0.0198 0.0 0 CFG=2
M  V30 11 C 2.598 0.0 0.0 0
M  V30 12 C 5.2669 -1.4898 0.0 0 CFG=2
M  V30 13 C 5.473 -3.0946 0.0 0
M  V30 14 C 4.7207 -3.8824 0.0 0
M  V30 15 C 4.5037 1.0024 0.0 0
M  V30 16 C 5.1956 -0.4601 0.0 0 CFG=1
M  V30 17 C 3.496 0.5888 0.0 0
M  V30 18 C 2.598 1.0 0.0 0
M  V30 19 O 5.953 -2.2173 0.0 0
M  V30 20 O 5.9007 -3.9986 0.0 0
M  V30 21 C 4.076 1.9064 0.0 0
M  V30 22 C 5.4955 1.1298 0.0 0 CFG=2
M  V30 23 O 5.9232 0.2259 0.0 0
M  V30 24 O 3.4641 1.4999 0.0 0
M  V30 25 O 1.732 1.5 0.0 0
M  V30 26 C 4.8035 2.5924 0.0 0 CFG=1
M  V30 27 C 3.0933 2.0917 0.0 0
M  V30 28 C 5.6809 2.1125 0.0 0
M  V30 29 C 1.732 2.4999 0.0 0
M  V30 30 C 4.6761 3.5843 0.0 0
M  V30 31 C 5.4037 4.2704 0.0 0
M  V30 32 C 3.7988 4.0642 0.0 0
M  V30 33 O 4.976 5.1743 0.0 0
M  V30 34 C 3.9842 5.0469 0.0 0
M  V30 END ATOM
M  V30 BEGIN BOND
M  V30 1 2 1 2
M  V30 2 1 2 3
M  V30 3 1 4 2
M  V30 4 2 3 5
M  V30 5 1 6 4
M  V30 6 1 7 4
M  V30 7 1 4 8 CFG=1
M  V30 8 1 9 5
M  V30 9 1 10 6
M  V30 10 1 6 11 CFG=1
M  V30 11 1 7 12 CFG=1
M  V30 12 1 9 13
M  V30 13 1 9 14 CFG=1
M  V30 14 1 10 15
M  V30 15 1 16 10
M  V30 16 1 10 17 CFG=1
M  V30 17 1 11 18
M  V30 18 1 12 19 CFG=3
M  V30 19 2 13 20
M  V30 20 2 15 21
M  V30 21 1 22 15
M  V30 22 1 16 23 CFG=3
M  V30 23 2 18 24
M  V30 24 1 18 25
M  V30 25 1 26 21
M  V30 26 1 21 27
M  V30 27 1 22 28
M  V30 28 1 25 29
M  V30 29 1 26 30 CFG=3
M  V30 30 2 30 31
M  V30 31 1 30 32
M  V30 32 1 31 33
M  V30 33 2 32 34
M  V30 34 1 7 9
M  V30 35 1 12 16
M  V30 36 1 13 19
M  V30 37 1 22 23 CFG=1
M  V30 38 1 26 28
M  V30 39 1 33 34
M  V30 END BOND
M  V30 BEGIN COLLECTION
M  V30 MDLV30/STEABS ATOMS=(9 4 6 7 9 10 12 16 22 26)
M  V30 END COLLECTION
M  V30 END CTAB
M  END
>  <Compound ID>
65

>  <Name>
Nimbolide

>  <Smiles>
COC(=O)C[C@H]1[C@]2(C)C3=C(C)[C@H](C4=COC=C4)C[C@H]3O[C@@H]2[C@@H]2OC(=O)[C@]3(C)C=CC(=O)[C@@]1(C)[C@@H]23

$$$$
Compound 66
Actelion Java MolfileCreator 2.0

  0  0  0  0  0  0              0 V3000
M  V30 BEGIN CTAB
M  V30 COUNTS 20 22 0 0 0
M  V30 BEGIN ATOM
M  V30 1 O 5.8005 1.0826 0.0 0
M  V30 2 C 5.3005 1.9487 0.0 0
M  V30 3 N 5.8005 2.8147 0.0 0
M  V30 4 C 4.3005 1.9487 0.0 0 CFG=1
M  V30 5 C 5.3005 3.6807 0.0 0
M  V30 6 N 3.8005 1.0826 0.0 0
M  V30 7 C 3.8005 2.8147 0.0 0
M  V30 8 O 5.8005 4.5467 0.0 0
M  V30 9 C 4.3005 3.6807 0.0 0
M  V30 10 C 2.8059 0.9781 0.0 0
M  V30 11 C 4.2072 0.1691 0.0 0
M  V30 12 O 2.1368 1.7212 0.0 0
M  V30 13 C 2.598 0.0 0.0 0
M  V30 14 C 3.4641 -0.5 0.0 0
M  V30 15 C 1.732 -0.5 0.0 0
M  V30 16 C 3.4641 -1.5 0.0 0
M  V30 17 O 0.866 0.0 0.0 0
M  V30 18 C 1.732 -1.5 0.0 0
M  V30 19 C 2.598 -2.0 0.0 0
M  V30 20 C 0.0 -0.5 0.0 0
M  V30 END ATOM
M  V30 BEGIN BOND
M  V30 1 2 1 2
M  V30 2 1 2 3
M  V30 3 1 4 2
M  V30 4 1 3 5
M  V30 5 1 4 6 CFG=1
M  V30 6 1 4 7
M  V30 7 2 5 8
M  V30 8 1 5 9
M  V30 9 1 6 10
M  V30 10 1 6 11
M  V30 11 2 10 12
M  V30 12 1 10 13
M  V30 13 1 11 14
M  V30 14 1 13 15
M  V30 15 1 14 16
M  V30 16 1 15 17
M  V30 17 2 15 18
M  V30 18 2 16 19
M  V30 19 1 17 20
M  V30 20 1 7 9
M  V30 21 2 13 14
M  V30 22 1 18 19
M  V30 END BOND
M  V30 BEGIN COLLECTION
M  V30 MDLV30/STERAC1 ATOMS=(1 4)
M  V30 END COLLECTION
M  V30 END CTAB
M  END
>  <Compound ID>
66

>  <Name>


>  <Smiles>
COC1=CC=CC2=C1C(=O)N(C1CCC(=O)NC1=O)C2

$$$$
Compound 67
Actelion Java MolfileCreator 2.0

  0  0  0  0  0  0              0 V3000
M  V30 BEGIN CTAB
M  V30 COUNTS 24 25 0 0 0
M  V30 BEGIN ATOM
M  V30 1 Cl 1.732 -3.5 0.0 0
M  V30 2 C 2.598 -3.0 0.0 0
M  V30 3 C 3.4641 -3.5 0.0 0
M  V30 4 C 2.598 -2.0 0.0 0
M  V30 5 Cl 3.4641 -4.5 0.0 0
M  V30 6 C 4.3301 -3.0 0.0 0
M  V30 7 C 3.4641 -1.5 0.0 0
M  V30 8 C 4.3301 -2.0 0.0 0
M  V30 9 C 3.4641 -0.5 0.0 0 CFG=1
M  V30 10 N 4.3301 0.0 0.0 0
M  V30 11 C 2.598 0.0 0.0 0
M  V30 12 C 5.1961 -0.5 0.0 0
M  V30 13 O 2.598 1.0 0.0 0
M  V30 14 N 1.732 -0.5 0.0 0
M  V30 15 O 5.1961 -1.4999 0.0 0
M  V30 16 C 6.0621 0.0 0.0 0
M  V30 17 C 0.866 0.0 0.0 0
M  V30 18 Cl 6.9282 -0.5 0.0 0
M  V30 19 C 0.0 -0.5 0.0 0
M  V30 20 C -0.866 0.0 0.0 0
M  V30 21 C 0.0 -1.4999 0.0 0
M  V30 22 C -1.732 -0.4999 0.0 0
M  V30 23 C -0.866 -1.9999 0.0 0
M  V30 24 C -1.732 -1.4999 0.0 0
M  V30 END ATOM
M  V30 BEGIN BOND
M  V30 1 1 1 2
M  V30 2 2 2 3
M  V30 3 1 2 4
M  V30 4 1 3 5
M  V30 5 1 3 6
M  V30 6 2 4 7
M  V30 7 2 6 8
M  V30 8 1 9 7
M  V30 9 1 9 10 CFG=3
M  V30 10 1 9 11
M  V30 11 1 10 12
M  V30 12 2 11 13
M  V30 13 1 11 14
M  V30 14 2 12 15
M  V30 15 1 12 16
M  V30 16 1 14 17
M  V30 17 1 16 18
M  V30 18 1 17 19
M  V30 19 2 19 20
M  V30 20 1 19 21
M  V30 21 1 20 22
M  V30 22 2 21 23
M  V30 23 2 22 24
M  V30 24 1 7 8
M  V30 25 1 23 24
M  V30 END BOND
M  V30 BEGIN COLLECTION
M  V30 MDLV30/STERAC1 ATOMS=(1 9)
M  V30 END COLLECTION
M  V30 END CTAB
M  END
>  <Compound ID>
67

>  <Name>


>  <Smiles>
O=C(CCl)NC(C(=O)NCC1=CC=CC=C1)C1=CC=C(Cl)C(Cl)=C1

$$$$
Compound 68
Actelion Java MolfileCreator 2.0

  0  0  0  0  0  0              0 V3000
M  V30 BEGIN CTAB
M  V30 COUNTS 23 24 0 0 0
M  V30 BEGIN ATOM
M  V30 1 Cl 3.4641 -4.5 0.0 0
M  V30 2 C 3.4641 -3.5 0.0 0
M  V30 3 C 4.3301 -3.0 0.0 0
M  V30 4 C 2.598 -3.0 0.0 0
M  V30 5 C 4.3301 -1.9999 0.0 0
M  V30 6 C 2.598 -2.0 0.0 0
M  V30 7 C 3.4641 -1.5 0.0 0
M  V30 8 C 3.4641 -0.5 0.0 0 CFG=1
M  V30 9 N 4.3301 0.0 0.0 0
M  V30 10 C 2.598 0.0 0.0 0
M  V30 11 C 5.1961 -0.5 0.0 0
M  V30 12 O 2.598 1.0 0.0 0
M  V30 13 N 1.732 -0.5 0.0 0
M  V30 14 O 5.1961 -1.4999 0.0 0
M  V30 15 C 6.0621 0.0 0.0 0
M  V30 16 C 0.866 0.0 0.0 0
M  V30 17 Cl 6.9282 -0.5 0.0 0
M  V30 18 C 0.0 -0.5 0.0 0
M  V30 19 C -0.866 0.0 0.0 0
M  V30 20 C 0.0 -1.4999 0.0 0
M  V30 21 C -1.732 -0.4999 0.0 0
M  V30 22 C -0.866 -1.9999 0.0 0
M  V30 23 C -1.732 -1.4999 0.0 0
M  V30 END ATOM
M  V30 BEGIN BOND
M  V30 1 1 1 2
M  V30 2 2 2 3
M  V30 3 1 2 4
M  V30 4 1 3 5
M  V30 5 2 4 6
M  V30 6 2 5 7
M  V30 7 1 8 7
M  V30 8 1 8 9 CFG=3
M  V30 9 1 8 10
M  V30 10 1 9 11
M  V30 11 2 10 12
M  V30 12 1 10 13
M  V30 13 2 11 14
M  V30 14 1 11 15
M  V30 15 1 13 16
M  V30 16 1 15 17
M  V30 17 1 16 18
M  V30 18 2 18 19
M  V30 19 1 18 20
M  V30 20 1 19 21
M  V30 21 2 20 22
M  V30 22 2 21 23
M  V30 23 1 6 7
M  V30 24 1 22 23
M  V30 END BOND
M  V30 BEGIN COLLECTION
M  V30 MDLV30/STERAC1 ATOMS=(1 8)
M  V30 END COLLECTION
M  V30 END CTAB
M  END
>  <Compound ID>
68

>  <Name>


>  <Smiles>
O=C(CCl)NC(C(=O)NCC1=CC=CC=C1)C1=CC=C(Cl)C=C1

$$$$
Compound 69
Actelion Java MolfileCreator 2.0

  0  0  0  0  0  0              0 V3000
M  V30 BEGIN CTAB
M  V30 COUNTS 31 32 0 0 0
M  V30 BEGIN ATOM
M  V30 1 O 4.4725 1.3546 0.0 0
M  V30 2 C 5.4235 1.6636 0.0 0
M  V30 3 N 5.6314 2.6418 0.0 0
M  V30 4 C 6.1667 0.9945 0.0 0 CFG=1
M  V30 5 C 6.5825 2.9508 0.0 0 CFG=1
M  V30 6 N 6.0621 0.0 0.0 0
M  V30 7 C 7.1448 1.2024 0.0 0
M  V30 8 C 6.7904 3.9289 0.0 0
M  V30 9 C 7.3256 2.2816 0.0 0
M  V30 10 C 5.1961 -0.5 0.0 0
M  V30 11 C 6.9757 -0.4067 0.0 0
M  V30 12 C 7.6448 0.3364 0.0 0
M  V30 13 C 7.7414 4.2379 0.0 0
M  V30 14 C 6.0472 4.598 0.0 0
M  V30 15 C 8.2767 2.5907 0.0 0
M  V30 16 O 4.3301 0.0 0.0 0
M  V30 17 C 5.1961 -1.4999 0.0 0 CFG=1
M  V30 18 C 7.9494 5.2161 0.0 0
M  V30 19 C 6.2552 5.5762 0.0 0
M  V30 20 N 4.3301 -1.9999 0.0 0
M  V30 21 C 6.0621 -1.9999 0.0 0
M  V30 22 C 7.2062 5.8852 0.0 0
M  V30 23 C 3.4641 -1.5 0.0 0
M  V30 24 C 5.5621 -2.866 0.0 0
M  V30 25 C 6.9282 -2.4999 0.0 0
M  V30 26 C 6.5621 -1.1339 0.0 0
M  V30 27 O 3.4641 -0.5 0.0 0
M  V30 28 C 2.598 -1.9999 0.0 0 CFG=1
M  V30 29 N 1.732 -1.5 0.0 0
M  V30 30 C 2.598 -3.0 0.0 0
M  V30 31 C 0.866 -2.0 0.0 0
M  V30 END ATOM
M  V30 BEGIN BOND
M  V30 1 2 1 2
M  V30 2 1 2 3
M  V30 3 1 4 2 CFG=3
M  V30 4 1 5 3 CFG=1
M  V30 5 1 4 6
M  V30 6 1 4 7
M  V30 7 1 5 8
M  V30 8 1 5 9
M  V30 9 1 6 10
M  V30 10 1 6 11
M  V30 11 1 7 12
M  V30 12 2 8 13
M  V30 13 1 8 14
M  V30 14 1 9 15
M  V30 15 2 10 16
M  V30 16 1 17 10
M  V30 17 1 13 18
M  V30 18 2 14 19
M  V30 19 1 17 20 CFG=3
M  V30 20 1 17 21
M  V30 21 2 18 22
M  V30 22 1 20 23
M  V30 23 1 21 24
M  V30 24 1 21 25
M  V30 25 1 21 26
M  V30 26 2 23 27
M  V30 27 1 28 23
M  V30 28 1 28 29 CFG=3
M  V30 29 1 28 30
M  V30 30 1 29 31
M  V30 31 1 11 12
M  V30 32 1 19 22
M  V30 END BOND
M  V30 BEGIN COLLECTION
M  V30 MDLV30/STEABS ATOMS=(4 4 5 17 28)
M  V30 END COLLECTION
M  V30 END CTAB
M  END
>  <Compound ID>
69

>  <Name>


>  <Smiles>
CC[C@@H](NC(=O)[C@@H]1CCCN1C(=O)[C@@H](NC(=O)[C@H](C)NC)C(C)(C)C)C1=CC=CC=C1

$$$$
Compound 70
Actelion Java MolfileCreator 2.0

  0  0  0  0  0  0              0 V3000
M  V30 BEGIN CTAB
M  V30 COUNTS 32 34 0 0 0
M  V30 BEGIN ATOM
M  V30 1 O 4.4725 1.3546 0.0 0
M  V30 2 C 5.4235 1.6636 0.0 0
M  V30 3 N 5.6314 2.6418 0.0 0
M  V30 4 C 6.1667 0.9945 0.0 0 CFG=1
M  V30 5 C 6.5825 2.9508 0.0 0 CFG=1
M  V30 6 N 6.0621 0.0 0.0 0
M  V30 7 C 7.1448 1.2024 0.0 0
M  V30 8 C 6.7904 3.9289 0.0 0
M  V30 9 C 7.3256 2.2816 0.0 0
M  V30 10 C 5.1961 -0.5 0.0 0
M  V30 11 C 6.9757 -0.4067 0.0 0
M  V30 12 C 7.6448 0.3364 0.0 0
M  V30 13 C 7.7414 4.2379 0.0 0
M  V30 14 C 6.0472 4.598 0.0 0
M  V30 15 C 8.2767 2.5907 0.0 0
M  V30 16 O 4.3301 0.0 0.0 0
M  V30 17 C 5.1961 -1.4999 0.0 0 CFG=1
M  V30 18 C 7.9494 5.2161 0.0 0
M  V30 19 C 8.4846 3.5688 0.0 0
M  V30 20 C 6.2552 5.5762 0.0 0
M  V30 21 N 4.3301 -1.9999 0.0 0
M  V30 22 C 6.0621 -1.9999 0.0 0
M  V30 23 C 7.2062 5.8852 0.0 0
M  V30 24 C 3.4641 -1.5 0.0 0
M  V30 25 C 5.5621 -2.866 0.0 0
M  V30 26 C 6.9282 -2.4999 0.0 0
M  V30 27 C 6.5621 -1.1339 0.0 0
M  V30 28 O 3.4641 -0.5 0.0 0
M  V30 29 C 2.598 -1.9999 0.0 0 CFG=1
M  V30 30 N 1.732 -1.5 0.0 0
M  V30 31 C 2.598 -3.0 0.0 0
M  V30 32 C 0.866 -2.0 0.0 0
M  V30 END ATOM
M  V30 BEGIN BOND
M  V30 1 2 1 2
M  V30 2 1 2 3
M  V30 3 1 4 2 CFG=3
M  V30 4 1 5 3 CFG=1
M  V30 5 1 4 6
M  V30 6 1 4 7
M  V30 7 1 5 8
M  V30 8 1 5 9
M  V30 9 1 6 10
M  V30 10 1 6 11
M  V30 11 1 7 12
M  V30 12 2 8 13
M  V30 13 1 8 14
M  V30 14 1 9 15
M  V30 15 2 10 16
M  V30 16 1 17 10
M  V30 17 1 13 18
M  V30 18 1 13 19
M  V30 19 2 14 20
M  V30 20 1 17 21 CFG=3
M  V30 21 1 17 22
M  V30 22 2 18 23
M  V30 23 1 21 24
M  V30 24 1 22 25
M  V30 25 1 22 26
M  V30 26 1 22 27
M  V30 27 2 24 28
M  V30 28 1 29 24
M  V30 29 1 29 30 CFG=3
M  V30 30 1 29 31
M  V30 31 1 30 32
M  V30 32 1 11 12
M  V30 33 1 15 19
M  V30 34 1 20 23
M  V30 END BOND
M  V30 BEGIN COLLECTION
M  V30 MDLV30/STEABS ATOMS=(4 4 5 17 29)
M  V30 END COLLECTION
M  V30 END CTAB
M  END
>  <Compound ID>
70

>  <Name>


>  <Smiles>
CN[C@@H](C)C(=O)N[C@H](C(=O)N1CCC[C@H]1C(=O)N[C@@H]1CCCC2=CC=CC=C21)C(C)(C)C

$$$$
Compound 71
Actelion Java MolfileCreator 2.0

  0  0  0  0  0  0              0 V3000
M  V30 BEGIN CTAB
M  V30 COUNTS 35 38 0 0 0
M  V30 BEGIN ATOM
M  V30 1 O 4.8646 -1.5746 0.0 0
M  V30 2 C 5.1234 -0.6087 0.0 0
M  V30 3 N 6.1149 -0.4782 0.0 0
M  V30 4 C 4.3301 0.0 0.0 0 CFG=1
M  V30 5 C 6.6813 -1.3023 0.0 0
M  V30 6 C 6.7236 0.3151 0.0 0 CFG=1
M  V30 7 N 3.4641 -0.5 0.0 0
M  V30 8 C 4.1996 0.9914 0.0 0
M  V30 9 C 6.3475 -2.245 0.0 0
M  V30 10 C 7.6401 -1.0183 0.0 0
M  V30 11 C 6.5931 1.3065 0.0 0
M  V30 12 C 7.6663 -0.0186 0.0 0
M  V30 13 C 2.598 0.0 0.0 0
M  V30 14 N 4.8083 1.7847 0.0 0
M  V30 15 O 6.9969 -3.0054 0.0 0
M  V30 16 N 5.3642 -2.4272 0.0 0
M  V30 17 C 5.7998 1.9153 0.0 0
M  V30 18 O 2.598 1.0 0.0 0
M  V30 19 C 1.732 -0.5 0.0 0 CFG=1
M  V30 20 C 4.3083 2.6508 0.0 0
M  V30 21 C 5.0304 -3.3698 0.0 0 CFG=1
M  V30 22 N 0.866 0.0 0.0 0
M  V30 23 C 1.732 -1.5 0.0 0
M  V30 24 O 4.8083 3.5168 0.0 0
M  V30 25 N 3.3083 2.6508 0.0 0
M  V30 26 C 4.0472 -3.5521 0.0 0
M  V30 27 C 5.6799 -4.1302 0.0 0
M  V30 28 C 0.0 -0.5 0.0 0
M  V30 29 C 3.7134 -4.4947 0.0 0
M  V30 30 C 3.3977 -2.7917 0.0 0
M  V30 31 C 5.3461 -5.0729 0.0 0
M  V30 32 C 2.7301 -4.6769 0.0 0
M  V30 33 C 4.3628 -5.2551 0.0 0
M  V30 34 C 2.4145 -2.9739 0.0 0
M  V30 35 C 2.0806 -3.9165 0.0 0
M  V30 END ATOM
M  V30 BEGIN BOND
M  V30 1 2 1 2
M  V30 2 1 2 3
M  V30 3 1 4 2
M  V30 4 1 3 5
M  V30 5 1 6 3 CFG=1
M  V30 6 1 4 7 CFG=1
M  V30 7 1 4 8
M  V30 8 1 5 9
M  V30 9 1 5 10
M  V30 10 1 6 11
M  V30 11 1 6 12
M  V30 12 1 7 13
M  V30 13 1 8 14
M  V30 14 2 9 15
M  V30 15 1 9 16
M  V30 16 1 11 17
M  V30 17 2 13 18
M  V30 18 1 19 13
M  V30 19 1 14 20
M  V30 20 1 21 16 CFG=3
M  V30 21 1 19 22 CFG=3
M  V30 22 1 19 23
M  V30 23 2 20 24
M  V30 24 1 20 25
M  V30 25 1 21 26
M  V30 26 1 21 27
M  V30 27 1 22 28
M  V30 28 2 26 29
M  V30 29 1 26 30
M  V30 30 1 27 31
M  V30 31 1 29 32
M  V30 32 1 29 33
M  V30 33 2 30 34
M  V30 34 2 32 35
M  V30 35 1 10 12
M  V30 36 1 14 17
M  V30 37 1 31 33
M  V30 38 1 34 35
M  V30 END BOND
M  V30 BEGIN COLLECTION
M  V30 MDLV30/STEABS ATOMS=(4 4 6 19 21)
M  V30 END COLLECTION
M  V30 END CTAB
M  END
>  <Compound ID>
71

>  <Name>


>  <Smiles>
CN[C@@H](C)C(=O)N[C@H]1CN(C(N)=O)CC[C@H]2CCC(C(=O)N[C@@H]3CCCC4=CC=CC=C43)N2C1=O

$$$$
Compound 72
Actelion Java MolfileCreator 2.0

  0  0  0  0  0  0              0 V3000
M  V30 BEGIN CTAB
M  V30 COUNTS 40 44 0 0 0
M  V30 BEGIN ATOM
M  V30 1 F 3.6469 -8.234 0.0 0
M  V30 2 C 4.6506 -7.1193 0.0 0
M  V30 3 C 6.1178 -7.4311 0.0 0
M  V30 4 C 4.187 -5.6927 0.0 0
M  V30 5 C 7.1215 -6.3164 0.0 0
M  V30 6 C 5.1907 -4.5779 0.0 0
M  V30 7 C 6.658 -4.8898 0.0 0
M  V30 8 C 7.6617 -3.7751 0.0 0
M  V30 9 C 7.1981 -2.3485 0.0 0
M  V30 10 C 8.2018 -1.2338 0.0 0
M  V30 11 C 5.7309 -2.0366 0.0 0
M  V30 12 O 9.6691 -1.5457 0.0 0
M  V30 13 N 7.7383 0.1927 0.0 0
M  V30 14 C 5.2674 -0.6101 0.0 0
M  V30 15 C 6.2711 0.5046 0.0 0
M  V30 16 C 8.742 1.3074 0.0 0
M  V30 17 N 3.8971 0.0 0.0 0
M  V30 18 C 5.5211 1.8036 0.0 0
M  V30 19 C 2.598 -0.75 0.0 0
M  V30 20 C 4.0539 1.4917 0.0 0
M  V30 21 C 6.7346 2.6852 0.0 0
M  V30 22 C 5.3643 3.2954 0.0 0
M  V30 23 O 2.598 -2.25 0.0 0
M  V30 24 C 1.299 0.0 0.0 0
M  V30 25 N 0.0 -0.75 0.0 0
M  V30 26 C -1.299 0.0 0.0 0 CFG=2
M  V30 27 C 0.0 -2.25 0.0 0
M  V30 28 C -2.598 -0.75 0.0 0
M  V30 29 C -1.299 1.5 0.0 0
M  V30 30 C -1.299 -3.0 0.0 0 CFG=2
M  V30 31 N -2.598 -2.25 0.0 0
M  V30 32 N -2.598 2.25 0.0 0
M  V30 33 C -1.299 -4.5 0.0 0
M  V30 34 C -2.598 3.75 0.0 0 CFG=1
M  V30 35 C -3.8971 1.5 0.0 0 CFG=1
M  V30 36 C -3.8971 4.5 0.0 0
M  V30 37 C -1.299 4.5 0.0 0
M  V30 38 C -5.1961 2.25 0.0 0
M  V30 39 C -3.8971 0.0 0.0 0
M  V30 40 O -5.1961 3.75 0.0 0
M  V30 END ATOM
M  V30 BEGIN BOND
M  V30 1 1 1 2
M  V30 2 2 2 3
M  V30 3 1 2 4
M  V30 4 1 3 5
M  V30 5 2 4 6
M  V30 6 2 5 7
M  V30 7 1 7 8
M  V30 8 1 8 9
M  V30 9 1 9 10
M  V30 10 2 9 11
M  V30 11 2 10 12
M  V30 12 1 10 13
M  V30 13 1 11 14
M  V30 14 1 13 15
M  V30 15 1 13 16
M  V30 16 1 14 17
M  V30 17 1 15 18
M  V30 18 1 17 19
M  V30 19 1 17 20
M  V30 20 1 18 21
M  V30 21 1 18 22
M  V30 22 2 19 23
M  V30 23 1 19 24
M  V30 24 1 24 25
M  V30 25 1 26 25
M  V30 26 1 25 27
M  V30 27 1 26 28
M  V30 28 1 26 29 CFG=3
M  V30 29 1 30 27
M  V30 30 1 28 31
M  V30 31 1 29 32
M  V30 32 1 30 33 CFG=1
M  V30 33 1 34 32
M  V30 34 1 35 32
M  V30 35 1 34 36
M  V30 36 1 34 37 CFG=1
M  V30 37 1 35 38
M  V30 38 1 35 39 CFG=3
M  V30 39 1 36 40
M  V30 40 1 6 7
M  V30 41 2 14 15
M  V30 42 1 18 20
M  V30 43 1 30 31
M  V30 44 1 38 40
M  V30 END BOND
M  V30 BEGIN COLLECTION
M  V30 MDLV30/STEABS ATOMS=(4 26 30 34 35)
M  V30 END COLLECTION
M  V30 END CTAB
M  END
>  <Compound ID>
72

>  <Name>


>  <Smiles>
C[C@@H]1CN(CC(=O)N2CC(C)(C)C3=C2C=C(CC2=CC=C(F)C=C2)C(=O)N3C)[C@@H](CN2[C@H](C)COC[C@H]2C)CN1

$$$$
Compound 73
Actelion Java MolfileCreator 2.0

  0  0  0  0  0  0              0 V3000
M  V30 BEGIN CTAB
M  V30 COUNTS 37 41 0 0 0
M  V30 BEGIN ATOM
M  V30 1 F 3.6469 -8.234 0.0 0
M  V30 2 C 4.6506 -7.1193 0.0 0
M  V30 3 C 6.1178 -7.4311 0.0 0
M  V30 4 C 4.187 -5.6927 0.0 0
M  V30 5 C 7.1215 -6.3164 0.0 0
M  V30 6 C 5.1907 -4.5779 0.0 0
M  V30 7 C 6.658 -4.8898 0.0 0
M  V30 8 C 7.6617 -3.7751 0.0 0
M  V30 9 C 7.1981 -2.3485 0.0 0
M  V30 10 C 8.2018 -1.2338 0.0 0
M  V30 11 C 5.7309 -2.0366 0.0 0
M  V30 12 N 7.7383 0.1927 0.0 0
M  V30 13 C 5.2674 -0.6101 0.0 0
M  V30 14 C 6.2711 0.5046 0.0 0
M  V30 15 N 3.8971 0.0 0.0 0
M  V30 16 C 5.5211 1.8036 0.0 0
M  V30 17 C 2.598 -0.75 0.0 0
M  V30 18 C 4.0539 1.4917 0.0 0
M  V30 19 C 6.7346 2.6852 0.0 0
M  V30 20 C 5.3643 3.2954 0.0 0
M  V30 21 O 2.598 -2.25 0.0 0
M  V30 22 C 1.299 0.0 0.0 0
M  V30 23 N 0.0 -0.75 0.0 0
M  V30 24 C -1.299 0.0 0.0 0 CFG=2
M  V30 25 C 0.0 -2.25 0.0 0
M  V30 26 C -2.598 -0.75 0.0 0
M  V30 27 C -1.299 1.5 0.0 0
M  V30 28 C -1.299 -3.0 0.0 0 CFG=2
M  V30 29 N -2.598 -2.25 0.0 0
M  V30 30 N -2.598 2.25 0.0 0
M  V30 31 C -1.299 -4.5 0.0 0
M  V30 32 C -2.598 3.75 0.0 0 CFG=1
M  V30 33 C -3.8971 1.5 0.0 0
M  V30 34 C -3.8971 4.5 0.0 0
M  V30 35 C -1.299 4.5 0.0 0
M  V30 36 C -5.1961 2.25 0.0 0
M  V30 37 O -5.1961 3.75 0.0 0
M  V30 END ATOM
M  V30 BEGIN BOND
M  V30 1 1 1 2
M  V30 2 2 2 3
M  V30 3 1 2 4
M  V30 4 1 3 5
M  V30 5 2 4 6
M  V30 6 2 5 7
M  V30 7 1 7 8
M  V30 8 1 8 9
M  V30 9 2 9 10
M  V30 10 1 9 11
M  V30 11 1 10 12
M  V30 12 2 11 13
M  V30 13 2 12 14
M  V30 14 1 13 15
M  V30 15 1 14 16
M  V30 16 1 15 17
M  V30 17 1 15 18
M  V30 18 1 16 19
M  V30 19 1 16 20
M  V30 20 2 17 21
M  V30 21 1 17 22
M  V30 22 1 22 23
M  V30 23 1 24 23
M  V30 24 1 23 25
M  V30 25 1 24 26
M  V30 26 1 24 27 CFG=3
M  V30 27 1 28 25
M  V30 28 1 26 29
M  V30 29 1 27 30
M  V30 30 1 28 31 CFG=1
M  V30 31 1 32 30
M  V30 32 1 30 33
M  V30 33 1 32 34
M  V30 34 1 32 35 CFG=1
M  V30 35 1 33 36
M  V30 36 1 34 37
M  V30 37 1 6 7
M  V30 38 1 13 14
M  V30 39 1 16 18
M  V30 40 1 28 29
M  V30 41 1 36 37
M  V30 END BOND
M  V30 BEGIN COLLECTION
M  V30 MDLV30/STEABS ATOMS=(3 24 28 32)
M  V30 END COLLECTION
M  V30 END CTAB
M  END
>  <Compound ID>
73

>  <Name>
AT-IAP

>  <Smiles>
C[C@@H]1CN(CC(=O)N2CC(C)(C)C3=NC=C(CC4=CC=C(F)C=C4)C=C32)[C@@H](CN2CCOC[C@H]2C)CN1

$$$$
Compound 74
Actelion Java MolfileCreator 2.0

  0  0  0  0  0  0              0 V3000
M  V30 BEGIN CTAB
M  V30 COUNTS 14 15 0 0 0
M  V30 BEGIN ATOM
M  V30 1 O 1.299 0.0 0.0 0
M  V30 2 C 0.0 -0.75 0.0 0
M  V30 3 N -1.299 0.0 0.0 0
M  V30 4 C 0.0 -2.2499 0.0 0 CFG=2
M  V30 5 C -2.598 -0.7499 0.0 0
M  V30 6 C 1.299 -3.0 0.0 0
M  V30 7 C -1.299 -2.9999 0.0 0
M  V30 8 O -3.8971 0.0 0.0 0
M  V30 9 C -2.598 -2.2499 0.0 0
M  V30 10 C 1.299 -4.5 0.0 0
M  V30 11 C 2.598 -2.25 0.0 0
M  V30 12 C 2.598 -5.25 0.0 0
M  V30 13 C 3.8971 -3.0 0.0 0
M  V30 14 C 3.8971 -4.5 0.0 0
M  V30 END ATOM
M  V30 BEGIN BOND
M  V30 1 2 1 2
M  V30 2 1 2 3
M  V30 3 1 4 2
M  V30 4 1 3 5
M  V30 5 1 4 6 CFG=3
M  V30 6 1 4 7
M  V30 7 2 5 8
M  V30 8 1 5 9
M  V30 9 2 6 10
M  V30 10 1 6 11
M  V30 11 1 10 12
M  V30 12 2 11 13
M  V30 13 2 12 14
M  V30 14 1 7 9
M  V30 15 1 13 14
M  V30 END BOND
M  V30 BEGIN COLLECTION
M  V30 MDLV30/STERAC1 ATOMS=(1 4)
M  V30 END COLLECTION
M  V30 END CTAB
M  END
>  <Compound ID>
74

>  <Name>
PG

>  <Smiles>
O=C1CCC(C2=CC=CC=C2)C(=O)N1

$$$$
Compound 75
Actelion Java MolfileCreator 2.0

  0  0  0  0  0  0              0 V3000
M  V30 BEGIN CTAB
M  V30 COUNTS 22 25 0 0 0
M  V30 BEGIN ATOM
M  V30 1 O 1.732 -1.5 0.0 0
M  V30 2 C 1.732 -0.5 0.0 0
M  V30 3 N 2.598 0.0 0.0 0
M  V30 4 C 0.866 0.0 0.0 0 CFG=1
M  V30 5 C 2.598 0.9999 0.0 0
M  V30 6 N 0.0 -0.5 0.0 0
M  V30 7 C 0.866 1.0 0.0 0
M  V30 8 O 3.4641 1.4999 0.0 0
M  V30 9 C 1.732 1.4999 0.0 0
M  V30 10 C -0.9135 -0.0932 0.0 0
M  V30 11 C -0.1045 -1.4945 0.0 0
M  V30 12 O -1.1214 0.8848 0.0 0
M  V30 13 C -1.5826 -0.8364 0.0 0
M  V30 14 O 0.6386 -2.1636 0.0 0
M  V30 15 C -1.0826 -1.7024 0.0 0
M  V30 16 C -2.5826 -0.8364 0.0 0
M  V30 17 C -1.5826 -2.5684 0.0 0
M  V30 18 C -3.0826 -1.7024 0.0 0
M  V30 19 C -2.5826 -2.5684 0.0 0
M  V30 20 C -4.0608 -1.9103 0.0 0
M  V30 21 C -3.2518 -3.3116 0.0 0
M  V30 22 N -4.1653 -2.9048 0.0 0
M  V30 END ATOM
M  V30 BEGIN BOND
M  V30 1 2 1 2
M  V30 2 1 2 3
M  V30 3 1 4 2
M  V30 4 1 3 5
M  V30 5 1 4 6 CFG=1
M  V30 6 1 4 7
M  V30 7 2 5 8
M  V30 8 1 5 9
M  V30 9 1 6 10
M  V30 10 1 6 11
M  V30 11 2 10 12
M  V30 12 1 10 13
M  V30 13 2 11 14
M  V30 14 1 11 15
M  V30 15 1 13 16
M  V30 16 1 15 17
M  V30 17 2 16 18
M  V30 18 2 17 19
M  V30 19 1 18 20
M  V30 20 1 19 21
M  V30 21 1 20 22
M  V30 22 1 7 9
M  V30 23 2 13 15
M  V30 24 1 18 19
M  V30 25 1 21 22
M  V30 END BOND
M  V30 BEGIN COLLECTION
M  V30 MDLV30/STERAC1 ATOMS=(1 4)
M  V30 END COLLECTION
M  V30 END CTAB
M  END
>  <Compound ID>
75

>  <Name>


>  <Smiles>
O=C1CCC(N2C(=O)C3=CC4=C(C=C3C2=O)CNC4)C(=O)N1

$$$$
Compound 76
Actelion Java MolfileCreator 2.0

  0  0  0  0  0  0              0 V3000
M  V30 BEGIN CTAB
M  V30 COUNTS 21 24 0 0 0
M  V30 BEGIN ATOM
M  V30 1 O 2.598 -2.25 0.0 0
M  V30 2 C 2.598 -0.75 0.0 0
M  V30 3 N 3.8971 0.0 0.0 0
M  V30 4 C 1.299 0.0 0.0 0 CFG=1
M  V30 5 C 3.8971 1.4999 0.0 0
M  V30 6 N 0.0 -0.75 0.0 0
M  V30 7 C 1.299 1.5 0.0 0
M  V30 8 O 5.1961 2.2499 0.0 0
M  V30 9 C 2.598 2.2499 0.0 0
M  V30 10 C -1.3703 -0.1398 0.0 0
M  V30 11 C -0.1567 -2.2417 0.0 0
M  V30 12 O -1.6821 1.3273 0.0 0
M  V30 13 C -2.374 -1.2546 0.0 0
M  V30 14 C -1.624 -2.5536 0.0 0
M  V30 15 C -3.874 -1.2546 0.0 0
M  V30 16 C -2.374 -3.8526 0.0 0
M  V30 17 C -4.624 -2.5536 0.0 0
M  V30 18 C -3.874 -3.8526 0.0 0
M  V30 19 C -6.0912 -2.8655 0.0 0
M  V30 20 C -4.8777 -4.9674 0.0 0
M  V30 21 N -6.248 -4.3573 0.0 0
M  V30 END ATOM
M  V30 BEGIN BOND
M  V30 1 2 1 2
M  V30 2 1 2 3
M  V30 3 1 4 2
M  V30 4 1 3 5
M  V30 5 1 4 6 CFG=1
M  V30 6 1 4 7
M  V30 7 2 5 8
M  V30 8 1 5 9
M  V30 9 1 6 10
M  V30 10 1 6 11
M  V30 11 2 10 12
M  V30 12 1 10 13
M  V30 13 1 11 14
M  V30 14 1 13 15
M  V30 15 1 14 16
M  V30 16 2 15 17
M  V30 17 2 16 18
M  V30 18 1 17 19
M  V30 19 1 18 20
M  V30 20 1 19 21
M  V30 21 1 7 9
M  V30 22 2 13 14
M  V30 23 1 17 18
M  V30 24 1 20 21
M  V30 END BOND
M  V30 BEGIN COLLECTION
M  V30 MDLV30/STERAC1 ATOMS=(1 4)
M  V30 END COLLECTION
M  V30 END CTAB
M  END
>  <Compound ID>
76

>  <Name>


>  <Smiles>
O=C1CCC(N2CC3=CC4=C(C=C3C2=O)CNC4)C(=O)N1

$$$$
Compound 77
Actelion Java MolfileCreator 2.0

  0  0  0  0  0  0              0 V3000
M  V30 BEGIN CTAB
M  V30 COUNTS 14 15 0 0 0
M  V30 BEGIN ATOM
M  V30 1 O 1.299 0.0 0.0 0
M  V30 2 C 0.0 -0.75 0.0 0
M  V30 3 N -1.299 0.0 0.0 0
M  V30 4 N 0.0 -2.2499 0.0 0
M  V30 5 C -1.299 1.5 0.0 0
M  V30 6 C -2.598 -0.7499 0.0 0
M  V30 7 C -1.299 -2.9999 0.0 0
M  V30 8 C 0.0 2.2499 0.0 0
M  V30 9 C -2.598 2.25 0.0 0
M  V30 10 C -2.598 -2.2499 0.0 0
M  V30 11 O -1.299 -4.4999 0.0 0
M  V30 12 C 0.0 3.7499 0.0 0
M  V30 13 C -2.598 3.75 0.0 0
M  V30 14 C -1.299 4.5 0.0 0
M  V30 END ATOM
M  V30 BEGIN BOND
M  V30 1 2 1 2
M  V30 2 1 2 3
M  V30 3 1 2 4
M  V30 4 1 3 5
M  V30 5 1 3 6
M  V30 6 1 4 7
M  V30 7 2 5 8
M  V30 8 1 5 9
M  V30 9 1 6 10
M  V30 10 2 7 11
M  V30 11 1 8 12
M  V30 12 2 9 13
M  V30 13 2 12 14
M  V30 14 1 7 10
M  V30 15 1 13 14
M  V30 END BOND
M  V30 END CTAB
M  END
>  <Compound ID>
77

>  <Name>
SB57027

>  <Smiles>
O=C1CCN(C2=CC=CC=C2)C(=O)N1

$$$$
Compound 78
Actelion Java MolfileCreator 2.0

  0  0  0  0  0  0              0 V3000
M  V30 BEGIN CTAB
M  V30 COUNTS 15 16 0 0 0
M  V30 BEGIN ATOM
M  V30 1 Cl 1.299 0.0 0.0 0
M  V30 2 C 0.0 -0.75 0.0 0
M  V30 3 C -1.299 0.0 0.0 0
M  V30 4 C 0.0 -2.2499 0.0 0
M  V30 5 N -1.299 1.5 0.0 0
M  V30 6 C -2.598 -0.7499 0.0 0
M  V30 7 C -1.299 -2.9999 0.0 0
M  V30 8 C 0.0 2.2499 0.0 0
M  V30 9 C -2.598 2.25 0.0 0
M  V30 10 C -2.598 -2.2499 0.0 0
M  V30 11 O 1.299 1.4999 0.0 0
M  V30 12 N 0.0 3.7499 0.0 0
M  V30 13 C -2.598 3.75 0.0 0
M  V30 14 C -1.299 4.5 0.0 0
M  V30 15 O -1.299 6.0 0.0 0
M  V30 END ATOM
M  V30 BEGIN BOND
M  V30 1 1 1 2
M  V30 2 2 2 3
M  V30 3 1 2 4
M  V30 4 1 3 5
M  V30 5 1 3 6
M  V30 6 2 4 7
M  V30 7 1 5 8
M  V30 8 1 5 9
M  V30 9 2 6 10
M  V30 10 2 8 11
M  V30 11 1 8 12
M  V30 12 1 9 13
M  V30 13 1 12 14
M  V30 14 2 14 15
M  V30 15 1 7 10
M  V30 16 1 13 14
M  V30 END BOND
M  V30 END CTAB
M  END
>  <Compound ID>
78

>  <Name>
AKOS018335184

>  <Smiles>
O=C1CCN(C2=CC=CC=C2Cl)C(=O)N1

$$$$
Compound 79
Actelion Java MolfileCreator 2.0

  0  0  0  0  0  0              0 V3000
M  V30 BEGIN CTAB
M  V30 COUNTS 16 17 0 0 0
M  V30 BEGIN ATOM
M  V30 1 O 0.866 0.9999 0.0 0
M  V30 2 C 1.732 1.5 0.0 0
M  V30 3 N 2.598 1.0 0.0 0
M  V30 4 N 1.732 2.4999 0.0 0
M  V30 5 C 2.598 0.0 0.0 0
M  V30 6 C 3.4641 1.5 0.0 0
M  V30 7 C 2.598 3.0 0.0 0
M  V30 8 C 1.732 -0.5 0.0 0
M  V30 9 C 3.4641 -0.4999 0.0 0
M  V30 10 C 3.4641 2.5 0.0 0
M  V30 11 O 2.598 4.0 0.0 0
M  V30 12 O 0.866 0.0 0.0 0
M  V30 13 C 1.732 -1.5 0.0 0
M  V30 14 C 3.4641 -1.4999 0.0 0
M  V30 15 C 0.0 -0.5 0.0 0
M  V30 16 C 2.598 -1.9999 0.0 0
M  V30 END ATOM
M  V30 BEGIN BOND
M  V30 1 2 1 2
M  V30 2 1 2 3
M  V30 3 1 2 4
M  V30 4 1 3 5
M  V30 5 1 3 6
M  V30 6 1 4 7
M  V30 7 2 5 8
M  V30 8 1 5 9
M  V30 9 1 6 10
M  V30 10 2 7 11
M  V30 11 1 8 12
M  V30 12 1 8 13
M  V30 13 2 9 14
M  V30 14 1 12 15
M  V30 15 2 13 16
M  V30 16 1 7 10
M  V30 17 1 14 16
M  V30 END BOND
M  V30 END CTAB
M  END
>  <Compound ID>
79

>  <Name>
AKOS018335169

>  <Smiles>
COC1=CC=CC=C1N1CCC(=O)NC1=O

$$$$
Compound 80
Actelion Java MolfileCreator 2.0

  0  0  0  0  0  0              0 V3000
M  V30 BEGIN CTAB
M  V30 COUNTS 15 16 0 0 0
M  V30 BEGIN ATOM
M  V30 1 O 1.299 -2.9999 0.0 0
M  V30 2 C 2.598 -2.2499 0.0 0
M  V30 3 N 3.8971 -3.0 0.0 0
M  V30 4 C 2.598 -0.75 0.0 0 CFG=1
M  V30 5 C 5.1961 -2.25 0.0 0
M  V30 6 N 1.299 0.0 0.0 0
M  V30 7 C 3.8971 0.0 0.0 0
M  V30 8 O 6.4951 -3.0 0.0 0
M  V30 9 C 5.1961 -0.75 0.0 0
M  V30 10 C 0.0 -0.75 0.0 0
M  V30 11 C -1.299 0.0 0.0 0
M  V30 12 C 0.0 -2.2499 0.0 0
M  V30 13 C -2.598 -0.7499 0.0 0
M  V30 14 C -1.299 -2.9999 0.0 0
M  V30 15 C -2.598 -2.2499 0.0 0
M  V30 END ATOM
M  V30 BEGIN BOND
M  V30 1 2 1 2
M  V30 2 1 2 3
M  V30 3 1 4 2
M  V30 4 1 3 5
M  V30 5 1 4 6 CFG=1
M  V30 6 1 4 7
M  V30 7 2 5 8
M  V30 8 1 5 9
M  V30 9 1 6 10
M  V30 10 2 10 11
M  V30 11 1 10 12
M  V30 12 1 11 13
M  V30 13 2 12 14
M  V30 14 2 13 15
M  V30 15 1 7 9
M  V30 16 1 14 15
M  V30 END BOND
M  V30 BEGIN COLLECTION
M  V30 MDLV30/STERAC1 ATOMS=(1 4)
M  V30 END COLLECTION
M  V30 END CTAB
M  END
>  <Compound ID>
80

>  <Name>


>  <Smiles>
O=C1CCC(NC2=CC=CC=C2)C(=O)N1

$$$$
Compound 81
Actelion Java MolfileCreator 2.0

  0  0  0  0  0  0              0 V3000
M  V30 BEGIN CTAB
M  V30 COUNTS 19 20 0 0 0
M  V30 BEGIN ATOM
M  V30 1 Cl 4.3301 0.0 0.0 0
M  V30 2 C 3.4641 -0.5 0.0 0
M  V30 3 C 2.598 0.0 0.0 0
M  V30 4 O 2.598 1.0 0.0 0
M  V30 5 N 1.732 -0.5 0.0 0
M  V30 6 C 1.732 -1.5 0.0 0
M  V30 7 C 0.866 0.0 0.0 0
M  V30 8 C 0.866 -1.9999 0.0 0
M  V30 9 C 2.598 -2.0 0.0 0
M  V30 10 C 0.0 -0.5 0.0 0
M  V30 11 C 0.866 -2.9999 0.0 0
M  V30 12 C 2.598 -3.0 0.0 0
M  V30 13 C 0.0 -1.5 0.0 0
M  V30 14 O 0.0 -3.4999 0.0 0
M  V30 15 C 1.732 -3.5 0.0 0
M  V30 16 N 0.0 -2.5 0.0 0
M  V30 17 C 0.0 -4.5 0.0 0
M  V30 18 O 1.732 -4.5 0.0 0
M  V30 19 C 0.866 -5.0 0.0 0
M  V30 END ATOM
M  V30 BEGIN BOND
M  V30 1 1 1 2
M  V30 2 1 2 3
M  V30 3 2 3 4
M  V30 4 1 3 5
M  V30 5 1 5 6
M  V30 6 1 5 7
M  V30 7 2 6 8
M  V30 8 1 6 9
M  V30 9 1 7 10
M  V30 10 1 8 11
M  V30 11 2 9 12
M  V30 12 1 10 13
M  V30 13 1 11 14
M  V30 14 2 11 15
M  V30 15 3 13 16
M  V30 16 1 14 17
M  V30 17 1 15 18
M  V30 18 1 17 19
M  V30 19 1 12 15
M  V30 20 1 18 19
M  V30 END BOND
M  V30 END CTAB
M  END
>  <Compound ID>
81

>  <Name>
EN106

>  <Smiles>
N#CCCN(C(=O)CCl)C1=CC=C2OCCOC2=C1

$$$$
Compound 82
Actelion Java MolfileCreator 2.0

  0  0  0  0  0  0              0 V3000
M  V30 BEGIN CTAB
M  V30 COUNTS 20 22 0 0 0
M  V30 BEGIN ATOM
M  V30 1 F -0.0586 3.4318 0.0 0
M  V30 2 C 0.6104 2.6887 0.0 0
M  V30 3 C 0.3014 1.7376 0.0 0
M  V30 4 C 1.5885 2.8966 0.0 0
M  V30 5 C 0.9705 0.9945 0.0 0
M  V30 6 C 2.2577 2.1534 0.0 0
M  V30 7 C 0.866 0.0 0.0 0
M  V30 8 C 1.9487 1.2024 0.0 0
M  V30 9 O 0.0 -0.5 0.0 0
M  V30 10 N 1.7795 -0.4067 0.0 0
M  V30 11 C 2.4487 0.3364 0.0 0
M  V30 12 C 1.9874 -1.3848 0.0 0 CFG=2
M  V30 13 O 3.4432 0.2318 0.0 0
M  V30 14 C 1.2443 -2.054 0.0 0
M  V30 15 C 2.9385 -1.6939 0.0 0
M  V30 16 O 0.2932 -1.7449 0.0 0
M  V30 17 N 1.4522 -3.0321 0.0 0
M  V30 18 C 3.1464 -2.672 0.0 0
M  V30 19 C 2.4033 -3.3411 0.0 0
M  V30 20 O 2.6112 -4.3193 0.0 0
M  V30 END ATOM
M  V30 BEGIN BOND
M  V30 1 1 1 2
M  V30 2 2 2 3
M  V30 3 1 2 4
M  V30 4 1 3 5
M  V30 5 2 4 6
M  V30 6 1 5 7
M  V30 7 2 5 8
M  V30 8 2 7 9
M  V30 9 1 7 10
M  V30 10 1 8 11
M  V30 11 1 12 10 CFG=1
M  V30 12 2 11 13
M  V30 13 1 12 14
M  V30 14 1 12 15
M  V30 15 2 14 16
M  V30 16 1 14 17
M  V30 17 1 15 18
M  V30 18 1 17 19
M  V30 19 2 19 20
M  V30 20 1 6 8
M  V30 21 1 10 11
M  V30 22 1 18 19
M  V30 END BOND
M  V30 BEGIN COLLECTION
M  V30 MDLV30/STERAC1 ATOMS=(1 12)
M  V30 END COLLECTION
M  V30 END CTAB
M  END
>  <Compound ID>
82

>  <Name>


>  <Smiles>
O=C1CCC(N2C(=O)C3=CC=C(F)C=C3C2=O)C(=O)N1

$$$$
Compound 83
Actelion Java MolfileCreator 2.0

  0  0  0  0  0  0              0 V3000
M  V30 BEGIN CTAB
M  V30 COUNTS 36 39 0 0 0
M  V30 BEGIN ATOM
M  V30 1 S -2.6159 1.3754 0.0 0
M  V30 2 C -1.8069 0.7876 0.0 0
M  V30 3 C -3.4249 0.7876 0.0 0
M  V30 4 C -0.8558 1.0967 0.0 0
M  V30 5 C -2.1159 -0.1633 0.0 0
M  V30 6 N -3.1159 -0.1633 0.0 0
M  V30 7 C -0.6479 2.0748 0.0 0
M  V30 8 C -0.1127 0.4275 0.0 0
M  V30 9 C -1.5281 -0.9723 0.0 0
M  V30 10 C 0.3031 2.3838 0.0 0
M  V30 11 C 0.8383 0.7366 0.0 0
M  V30 12 C 1.0462 1.7147 0.0 0
M  V30 13 C 1.9973 2.0237 0.0 0
M  V30 14 N 2.7404 1.3546 0.0 0
M  V30 15 C 3.6915 1.6636 0.0 0
M  V30 16 O 3.8994 2.6418 0.0 0
M  V30 17 C 4.4346 0.9945 0.0 0 CFG=1
M  V30 18 N 4.3301 0.0 0.0 0
M  V30 19 C 5.4128 1.2024 0.0 0
M  V30 20 C 3.4641 -0.5 0.0 0
M  V30 21 C 5.2436 -0.4067 0.0 0
M  V30 22 C 5.9128 0.3364 0.0 0 CFG=2
M  V30 23 O 2.598 0.0 0.0 0
M  V30 24 C 3.4641 -1.5 0.0 0 CFG=1
M  V30 25 O 6.9073 0.2318 0.0 0
M  V30 26 N 2.598 -1.9999 0.0 0
M  V30 27 C 4.3301 -2.0 0.0 0
M  V30 28 C 1.732 -1.4999 0.0 0
M  V30 29 C 3.8301 -2.866 0.0 0
M  V30 30 C 5.1961 -2.5 0.0 0
M  V30 31 C 4.8301 -1.1339 0.0 0
M  V30 32 O 1.732 -0.4999 0.0 0
M  V30 33 C 0.866 -1.9999 0.0 0
M  V30 34 F 1.5731 -2.7071 0.0 0
M  V30 35 C -0.1339 -1.9999 0.0 0
M  V30 36 C 0.366 -2.866 0.0 0
M  V30 END ATOM
M  V30 BEGIN BOND
M  V30 1 1 1 2
M  V30 2 1 1 3
M  V30 3 1 2 4
M  V30 4 2 2 5
M  V30 5 2 3 6
M  V30 6 2 4 7
M  V30 7 1 4 8
M  V30 8 1 5 9
M  V30 9 1 7 10
M  V30 10 2 8 11
M  V30 11 2 10 12
M  V30 12 1 12 13
M  V30 13 1 13 14
M  V30 14 1 14 15
M  V30 15 2 15 16
M  V30 16 1 17 15 CFG=3
M  V30 17 1 17 18
M  V30 18 1 17 19
M  V30 19 1 18 20
M  V30 20 1 18 21
M  V30 21 1 22 19
M  V30 22 2 20 23
M  V30 23 1 24 20
M  V30 24 1 22 25 CFG=1
M  V30 25 1 24 26 CFG=3
M  V30 26 1 24 27
M  V30 27 1 26 28
M  V30 28 1 27 29
M  V30 29 1 27 30
M  V30 30 1 27 31
M  V30 31 2 28 32
M  V30 32 1 28 33
M  V30 33 1 33 34
M  V30 34 1 33 35
M  V30 35 1 33 36
M  V30 36 1 5 6
M  V30 37 1 11 12
M  V30 38 1 21 22
M  V30 39 1 35 36
M  V30 END BOND
M  V30 BEGIN COLLECTION
M  V30 MDLV30/STEABS ATOMS=(3 17 22 24)
M  V30 END COLLECTION
M  V30 END CTAB
M  END
>  <Compound ID>
83

>  <Name>


>  <Smiles>
CC(C)(C)[C@@H](C(N(C[C@@H](C1)O)[C@@H]1C(NCc(cc1)ccc1-c1c(C)ncs1)=O)=O)NC(C1(CC1)F)=O

$$$$
Compound 84
Actelion Java MolfileCreator 2.0

  0  0  0  0  0  0              0 V3000
M  V30 BEGIN CTAB
M  V30 COUNTS 30 32 0 0 0
M  V30 BEGIN ATOM
M  V30 1 S 1.789 4.5877 0.0 0
M  V30 2 C 2.598 4.0 0.0 0
M  V30 3 C 2.098 5.5388 0.0 0
M  V30 4 C 2.598 3.0 0.0 0
M  V30 5 C 3.407 4.5877 0.0 0
M  V30 6 N 3.098 5.5388 0.0 0
M  V30 7 C 1.732 2.5 0.0 0
M  V30 8 C 3.4641 2.5 0.0 0
M  V30 9 C 4.3581 4.2787 0.0 0
M  V30 10 C 1.732 1.5 0.0 0
M  V30 11 C 3.4641 1.5 0.0 0
M  V30 12 C 2.598 1.0 0.0 0
M  V30 13 C 2.598 0.0 0.0 0 CFG=1
M  V30 14 N 1.732 -0.5 0.0 0
M  V30 15 C 3.4641 -0.5 0.0 0
M  V30 16 C 0.866 0.0 0.0 0
M  V30 17 O 4.3301 0.0 0.0 0
M  V30 18 O 0.866 1.0 0.0 0
M  V30 19 C 0.0 -0.5 0.0 0 CFG=1
M  V30 20 N -0.9135 -0.0932 0.0 0
M  V30 21 C -0.1045 -1.4945 0.0 0
M  V30 22 C -1.1214 0.8848 0.0 0
M  V30 23 C -1.5826 -0.8364 0.0 0
M  V30 24 C -1.0826 -1.7024 0.0 0 CFG=2
M  V30 25 O -0.3783 1.554 0.0 0
M  V30 26 C -2.0725 1.1939 0.0 0
M  V30 27 O -1.4894 -2.6159 0.0 0
M  V30 28 C -2.2804 2.172 0.0 0
M  V30 29 C -1.5372 2.8411 0.0 0
M  V30 30 C -3.2314 2.481 0.0 0
M  V30 END ATOM
M  V30 BEGIN BOND
M  V30 1 1 1 2
M  V30 2 1 1 3
M  V30 3 1 2 4
M  V30 4 2 2 5
M  V30 5 2 3 6
M  V30 6 2 4 7
M  V30 7 1 4 8
M  V30 8 1 5 9
M  V30 9 1 7 10
M  V30 10 2 8 11
M  V30 11 2 10 12
M  V30 12 1 13 12
M  V30 13 1 13 14 CFG=3
M  V30 14 1 13 15
M  V30 15 1 14 16
M  V30 16 1 15 17
M  V30 17 2 16 18
M  V30 18 1 19 16 CFG=3
M  V30 19 1 19 20
M  V30 20 1 19 21
M  V30 21 1 20 22
M  V30 22 1 20 23
M  V30 23 1 24 21
M  V30 24 2 22 25
M  V30 25 1 22 26
M  V30 26 1 24 27 CFG=1
M  V30 27 1 26 28
M  V30 28 1 28 29
M  V30 29 1 28 30
M  V30 30 1 5 6
M  V30 31 1 11 12
M  V30 32 1 23 24
M  V30 END BOND
M  V30 BEGIN COLLECTION
M  V30 MDLV30/STEABS ATOMS=(3 13 19 24)
M  V30 END COLLECTION
M  V30 END CTAB
M  END
>  <Compound ID>
84

>  <Name>


>  <Smiles>
CC(C)CC(N(C[C@@H](C1)O)[C@@H]1C(N[C@@H](CO)c(cc1)ccc1-c1c(C)ncs1)=O)=O

$$$$
Compound 85
Actelion Java MolfileCreator 2.0

  0  0  0  0  0  0              0 V3000
M  V30 BEGIN CTAB
M  V30 COUNTS 18 19 0 0 0
M  V30 BEGIN ATOM
M  V30 1 F 1.732 1.4999 0.0 0
M  V30 2 C 2.598 1.0 0.0 0
M  V30 3 C 2.598 0.0 0.0 0
M  V30 4 C 3.4641 1.4999 0.0 0
M  V30 5 C 1.732 -0.5 0.0 0
M  V30 6 C 3.4641 -0.5 0.0 0
M  V30 7 C 4.3301 1.0 0.0 0
M  V30 8 O 1.732 -1.5 0.0 0
M  V30 9 N 0.866 0.0 0.0 0
M  V30 10 C 4.3301 0.0 0.0 0
M  V30 11 C 0.0 -0.5 0.0 0 CFG=2
M  V30 12 C -0.866 0.0 0.0 0
M  V30 13 C 0.0 -1.4999 0.0 0
M  V30 14 O -0.866 1.0 0.0 0
M  V30 15 N -1.732 -0.4999 0.0 0
M  V30 16 C -0.866 -1.9999 0.0 0
M  V30 17 C -1.732 -1.4999 0.0 0
M  V30 18 O -2.598 -1.9999 0.0 0
M  V30 END ATOM
M  V30 BEGIN BOND
M  V30 1 1 1 2
M  V30 2 2 2 3
M  V30 3 1 2 4
M  V30 4 1 3 5
M  V30 5 1 3 6
M  V30 6 2 4 7
M  V30 7 2 5 8
M  V30 8 1 5 9
M  V30 9 2 6 10
M  V30 10 1 11 9 CFG=1
M  V30 11 1 11 12
M  V30 12 1 11 13
M  V30 13 2 12 14
M  V30 14 1 12 15
M  V30 15 1 13 16
M  V30 16 1 15 17
M  V30 17 2 17 18
M  V30 18 1 7 10
M  V30 19 1 16 17
M  V30 END BOND
M  V30 BEGIN COLLECTION
M  V30 MDLV30/STEABS ATOMS=(1 11)
M  V30 END COLLECTION
M  V30 END CTAB
M  END
>  <Compound ID>
85

>  <Name>


>  <Smiles>
O=C(c(cccc1)c1F)N[C@@H](CCC(N1)=O)C1=O

$$$$
Compound 86
Actelion Java MolfileCreator 2.0

  0  0  0  0  0  0              0 V3000
M  V30 BEGIN CTAB
M  V30 COUNTS 19 21 0 0 0
M  V30 BEGIN ATOM
M  V30 1 F 4.8537 3.5421 0.0 0
M  V30 2 C 3.3865 3.2302 0.0 0
M  V30 3 C 2.923 1.8036 0.0 0
M  V30 4 C 2.3828 4.3449 0.0 0
M  V30 5 C 1.4558 1.4917 0.0 0
M  V30 6 C 3.673 0.5046 0.0 0
M  V30 7 C 0.9156 4.033 0.0 0
M  V30 8 C 1.299 0.0 0.0 0
M  V30 9 C 0.4521 2.6065 0.0 0
M  V30 10 N 2.6693 -0.6101 0.0 0
M  V30 11 O 0.0 -0.75 0.0 0
M  V30 12 C 2.9812 -2.0773 0.0 0 CFG=2
M  V30 13 C 1.8665 -3.081 0.0 0
M  V30 14 C 4.4078 -2.5408 0.0 0
M  V30 15 O 0.4399 -2.6174 0.0 0
M  V30 16 N 2.1783 -4.5482 0.0 0
M  V30 17 C 4.7196 -4.008 0.0 0
M  V30 18 C 3.6049 -5.0117 0.0 0
M  V30 19 O 3.9168 -6.4789 0.0 0
M  V30 END ATOM
M  V30 BEGIN BOND
M  V30 1 1 1 2
M  V30 2 2 2 3
M  V30 3 1 2 4
M  V30 4 1 3 5
M  V30 5 1 3 6
M  V30 6 2 4 7
M  V30 7 1 5 8
M  V30 8 2 5 9
M  V30 9 1 6 10
M  V30 10 2 8 11
M  V30 11 1 12 10 CFG=1
M  V30 12 1 12 13
M  V30 13 1 12 14
M  V30 14 2 13 15
M  V30 15 1 13 16
M  V30 16 1 14 17
M  V30 17 1 16 18
M  V30 18 2 18 19
M  V30 19 1 7 9
M  V30 20 1 8 10
M  V30 21 1 17 18
M  V30 END BOND
M  V30 BEGIN COLLECTION
M  V30 MDLV30/STERAC1 ATOMS=(1 12)
M  V30 END COLLECTION
M  V30 END CTAB
M  END
>  <Compound ID>
86

>  <Name>


>  <Smiles>
O=C(c1cccc(F)c1C1)N1C(CCC(N1)=O)C1=O

$$$$
Compound 87
Actelion Java MolfileCreator 2.0

  0  0  0  0  0  0              0 V3000
M  V30 BEGIN CTAB
M  V30 COUNTS 18 20 0 0 0
M  V30 BEGIN ATOM
M  V30 1 O 2.598 -2.25 0.0 0
M  V30 2 C 2.598 -0.75 0.0 0
M  V30 3 N 3.8971 0.0 0.0 0
M  V30 4 C 1.299 0.0 0.0 0 CFG=1
M  V30 5 C 3.8971 1.4999 0.0 0
M  V30 6 N 0.0 -0.75 0.0 0
M  V30 7 C 1.299 1.5 0.0 0
M  V30 8 O 5.1961 2.2499 0.0 0
M  V30 9 C 2.598 2.2499 0.0 0
M  V30 10 C -1.3703 -0.1398 0.0 0
M  V30 11 C -0.1567 -2.2417 0.0 0
M  V30 12 O -1.6821 1.3273 0.0 0
M  V30 13 C -2.374 -1.2546 0.0 0
M  V30 14 C -1.624 -2.5536 0.0 0
M  V30 15 C -3.874 -1.2546 0.0 0
M  V30 16 C -2.374 -3.8526 0.0 0
M  V30 17 C -4.624 -2.5536 0.0 0
M  V30 18 C -3.874 -3.8526 0.0 0
M  V30 END ATOM
M  V30 BEGIN BOND
M  V30 1 2 1 2
M  V30 2 1 2 3
M  V30 3 1 4 2
M  V30 4 1 3 5
M  V30 5 1 4 6 CFG=1
M  V30 6 1 4 7
M  V30 7 2 5 8
M  V30 8 1 5 9
M  V30 9 1 6 10
M  V30 10 1 6 11
M  V30 11 2 10 12
M  V30 12 1 10 13
M  V30 13 1 11 14
M  V30 14 1 13 15
M  V30 15 1 14 16
M  V30 16 2 15 17
M  V30 17 2 16 18
M  V30 18 1 7 9
M  V30 19 2 13 14
M  V30 20 1 17 18
M  V30 END BOND
M  V30 BEGIN COLLECTION
M  V30 MDLV30/STEABS ATOMS=(1 4)
M  V30 END COLLECTION
M  V30 END CTAB
M  END
>  <Compound ID>
87

>  <Name>


>  <Smiles>
O=C(c1c(C2)cccc1)N2[C@@H](CCC(N1)=O)C1=O

$$$$
Compound 88
Actelion Java MolfileCreator 2.0

  0  0  0  0  0  0              0 V3000
M  V30 BEGIN CTAB
M  V30 COUNTS 17 18 0 0 0
M  V30 BEGIN ATOM
M  V30 1 F 1.732 1.4999 0.0 0
M  V30 2 C 2.598 1.0 0.0 0
M  V30 3 C 2.598 0.0 0.0 0
M  V30 4 C 3.4641 1.4999 0.0 0
M  V30 5 C 1.732 -0.5 0.0 0
M  V30 6 C 3.4641 -0.5 0.0 0
M  V30 7 C 4.3301 1.0 0.0 0
M  V30 8 O 1.732 -1.5 0.0 0
M  V30 9 N 0.866 0.0 0.0 0
M  V30 10 C 4.3301 0.0 0.0 0
M  V30 11 C 0.0 -0.5 0.0 0 CFG=2
M  V30 12 C -0.866 0.0 0.0 0
M  V30 13 C 0.0 -1.4999 0.0 0
M  V30 14 O -0.866 1.0 0.0 0
M  V30 15 N -1.732 -0.4999 0.0 0
M  V30 16 C -0.866 -1.9999 0.0 0
M  V30 17 C -1.732 -1.4999 0.0 0
M  V30 END ATOM
M  V30 BEGIN BOND
M  V30 1 1 1 2
M  V30 2 2 2 3
M  V30 3 1 2 4
M  V30 4 1 3 5
M  V30 5 1 3 6
M  V30 6 2 4 7
M  V30 7 2 5 8
M  V30 8 1 5 9
M  V30 9 2 6 10
M  V30 10 1 11 9 CFG=1
M  V30 11 1 11 12
M  V30 12 1 11 13
M  V30 13 2 12 14
M  V30 14 1 12 15
M  V30 15 1 13 16
M  V30 16 1 15 17
M  V30 17 1 7 10
M  V30 18 1 16 17
M  V30 END BOND
M  V30 BEGIN COLLECTION
M  V30 MDLV30/STEABS ATOMS=(1 11)
M  V30 END COLLECTION
M  V30 END CTAB
M  END
>  <Compound ID>
88

>  <Name>


>  <Smiles>
O=C(c(cccc1)c1F)N[C@@H](CCCN1)C1=O

$$$$
Compound 89
Actelion Java MolfileCreator 2.0

  0  0  0  0  0  0              0 V3000
M  V30 BEGIN CTAB
M  V30 COUNTS 30 33 0 0 0
M  V30 BEGIN ATOM
M  V30 1 O 3.8971 -3.0 0.0 0
M  V30 2 C 2.598 -2.25 0.0 0
M  V30 3 N 2.598 -0.75 0.0 0
M  V30 4 C 1.299 -3.0 0.0 0
M  V30 5 C 1.299 0.0 0.0 0 CFG=1
M  V30 6 O 1.1422 -4.4917 0.0 0
M  V30 7 N -0.0712 -2.3898 0.0 0
M  V30 8 C 1.299 1.5 0.0 0
M  V30 9 C 0.0 -0.7499 0.0 0
M  V30 10 N -0.3249 -4.8036 0.0 0
M  V30 11 C -1.0749 -3.5046 0.0 0
M  V30 12 C 2.598 2.25 0.0 0
M  V30 13 C 0.0 2.2499 0.0 0
M  V30 14 C -2.5667 -3.3478 0.0 0
M  V30 15 C 2.598 3.75 0.0 0
M  V30 16 C 3.8971 1.4999 0.0 0
M  V30 17 C 0.0 3.75 0.0 0
M  V30 18 C -2.4099 -1.856 0.0 0
M  V30 19 C -4.0585 -3.191 0.0 0
M  V30 20 C -2.7235 -4.8396 0.0 0
M  V30 21 C 1.299 4.5 0.0 0
M  V30 22 C 1.299 6.0 0.0 0
M  V30 23 N 2.598 6.75 0.0 0
M  V30 24 C 0.0 6.75 0.0 0
M  V30 25 C 2.598 8.25 0.0 0
M  V30 26 C 0.0 8.25 0.0 0
M  V30 27 C -1.4265 6.2864 0.0 0
M  V30 28 N 1.299 9.0 0.0 0
M  V30 29 N -1.4265 8.7135 0.0 0
M  V30 30 C -2.3082 7.4999 0.0 0
M  V30 END ATOM
M  V30 BEGIN BOND
M  V30 1 2 1 2
M  V30 2 1 2 3
M  V30 3 1 2 4
M  V30 4 1 5 3 CFG=3
M  V30 5 1 4 6
M  V30 6 2 4 7
M  V30 7 1 5 8
M  V30 8 1 5 9
M  V30 9 1 6 10
M  V30 10 1 7 11
M  V30 11 2 8 12
M  V30 12 1 8 13
M  V30 13 1 11 14
M  V30 14 1 12 15
M  V30 15 1 12 16
M  V30 16 2 13 17
M  V30 17 1 14 18
M  V30 18 1 14 19
M  V30 19 1 14 20
M  V30 20 2 15 21
M  V30 21 1 21 22
M  V30 22 2 22 23
M  V30 23 1 22 24
M  V30 24 1 23 25
M  V30 25 2 24 26
M  V30 26 1 24 27
M  V30 27 2 25 28
M  V30 28 1 26 29
M  V30 29 2 27 30
M  V30 30 2 10 11
M  V30 31 1 17 21
M  V30 32 1 26 28
M  V30 33 1 29 30
M  V30 END BOND
M  V30 BEGIN COLLECTION
M  V30 MDLV30/STEABS ATOMS=(1 5)
M  V30 END COLLECTION
M  V30 END CTAB
M  END
>  <Compound ID>
89

>  <Name>


>  <Smiles>
C[C@H](c(cc1)c(C)cc1-c1ncnc2c1cc[nH]2)NC(c1nc(C(C)(C)C)no1)=O

$$$$
Compound 90
Actelion Java MolfileCreator 2.0

  0  0  0  0  0  0              0 V3000
M  V30 BEGIN CTAB
M  V30 COUNTS 19 21 0 0 0
M  V30 BEGIN ATOM
M  V30 1 O 1.732 -1.5 0.0 0
M  V30 2 C 1.732 -0.5 0.0 0
M  V30 3 N 2.598 0.0 0.0 0
M  V30 4 C 0.866 0.0 0.0 0 CFG=2
M  V30 5 C 2.598 0.9999 0.0 0
M  V30 6 C 0.0 -0.5 0.0 0
M  V30 7 C 0.866 1.0 0.0 0
M  V30 8 O 3.4641 1.4999 0.0 0
M  V30 9 C 1.732 1.4999 0.0 0
M  V30 10 N -0.9135 -0.0932 0.0 0
M  V30 11 C -0.1045 -1.4945 0.0 0
M  V30 12 N -1.5826 -0.8364 0.0 0
M  V30 13 C -1.0826 -1.7024 0.0 0
M  V30 14 C 0.5646 -2.2376 0.0 0
M  V30 15 C -2.5771 -0.7318 0.0 0
M  V30 16 C -1.3916 -2.6534 0.0 0
M  V30 17 C 0.2555 -3.1887 0.0 0
M  V30 18 C -0.7225 -3.3966 0.0 0
M  V30 19 N -1.0315 -4.3476 0.0 0
M  V30 END ATOM
M  V30 BEGIN BOND
M  V30 1 2 1 2
M  V30 2 1 2 3
M  V30 3 1 4 2
M  V30 4 1 3 5
M  V30 5 1 4 6 CFG=3
M  V30 6 1 4 7
M  V30 7 2 5 8
M  V30 8 1 5 9
M  V30 9 2 6 10
M  V30 10 1 6 11
M  V30 11 1 10 12
M  V30 12 2 11 13
M  V30 13 1 11 14
M  V30 14 1 12 15
M  V30 15 1 13 16
M  V30 16 2 14 17
M  V30 17 2 16 18
M  V30 18 1 18 19
M  V30 19 1 7 9
M  V30 20 1 12 13
M  V30 21 1 17 18
M  V30 END BOND
M  V30 BEGIN COLLECTION
M  V30 MDLV30/STERAC1 ATOMS=(1 4)
M  V30 END COLLECTION
M  V30 END CTAB
M  END
>  <Compound ID>
90

>  <Name>


>  <Smiles>
Cn1nc(C(CCC(N2)=O)C2=O)c(cc2)c1cc2N

$$$$
Compound 91
Actelion Java MolfileCreator 2.0

  0  0  0  0  0  0              0 V3000
M  V30 BEGIN CTAB
M  V30 COUNTS 19 21 0 0 0
M  V30 BEGIN ATOM
M  V30 1 O 1.732 -1.5 0.0 0
M  V30 2 C 1.732 -0.5 0.0 0
M  V30 3 N 2.598 0.0 0.0 0
M  V30 4 C 0.866 0.0 0.0 0 CFG=1
M  V30 5 C 2.598 0.9999 0.0 0
M  V30 6 N 0.0 -0.5 0.0 0
M  V30 7 C 0.866 1.0 0.0 0
M  V30 8 O 3.4641 1.4999 0.0 0
M  V30 9 C 1.732 1.4999 0.0 0
M  V30 10 C -0.9135 -0.0932 0.0 0
M  V30 11 C -0.1045 -1.4945 0.0 0
M  V30 12 O -1.1214 0.8848 0.0 0
M  V30 13 C -1.5826 -0.8364 0.0 0
M  V30 14 O 0.6386 -2.1636 0.0 0
M  V30 15 C -1.0826 -1.7024 0.0 0
M  V30 16 C -2.5826 -0.8364 0.0 0
M  V30 17 C -1.5826 -2.5684 0.0 0
M  V30 18 C -3.0826 -1.7024 0.0 0
M  V30 19 C -2.5826 -2.5684 0.0 0
M  V30 END ATOM
M  V30 BEGIN BOND
M  V30 1 2 1 2
M  V30 2 1 2 3
M  V30 3 1 4 2
M  V30 4 1 3 5
M  V30 5 1 4 6 CFG=1
M  V30 6 1 4 7
M  V30 7 2 5 8
M  V30 8 1 5 9
M  V30 9 1 6 10
M  V30 10 1 6 11
M  V30 11 2 10 12
M  V30 12 1 10 13
M  V30 13 2 11 14
M  V30 14 1 11 15
M  V30 15 1 13 16
M  V30 16 1 15 17
M  V30 17 2 16 18
M  V30 18 2 17 19
M  V30 19 1 7 9
M  V30 20 2 13 15
M  V30 21 1 18 19
M  V30 END BOND
M  V30 BEGIN COLLECTION
M  V30 MDLV30/STEABS ATOMS=(1 4)
M  V30 END COLLECTION
M  V30 END CTAB
M  END
>  <Compound ID>
91

>  <Name>


>  <Smiles>
O=C(c1c2cccc1)N([C@@H](CCC(N1)=O)C1=O)C2=O

$$$$
Compound 92
Actelion Java MolfileCreator 2.0

  0  0  0  0  0  0              0 V3000
M  V30 BEGIN CTAB
M  V30 COUNTS 20 22 0 0 0
M  V30 BEGIN ATOM
M  V30 1 F -0.0586 3.4318 0.0 0
M  V30 2 C 0.6104 2.6887 0.0 0
M  V30 3 C 0.3014 1.7376 0.0 0
M  V30 4 C 1.5885 2.8966 0.0 0
M  V30 5 C 0.9705 0.9945 0.0 0
M  V30 6 C 2.2577 2.1534 0.0 0
M  V30 7 C 0.866 0.0 0.0 0
M  V30 8 C 1.9487 1.2024 0.0 0
M  V30 9 O 0.0 -0.5 0.0 0
M  V30 10 N 1.7795 -0.4067 0.0 0
M  V30 11 C 2.4487 0.3364 0.0 0
M  V30 12 C 1.9874 -1.3848 0.0 0 CFG=2
M  V30 13 O 3.4432 0.2318 0.0 0
M  V30 14 C 1.2443 -2.054 0.0 0
M  V30 15 C 2.9385 -1.6939 0.0 0
M  V30 16 O 0.2932 -1.7449 0.0 0
M  V30 17 N 1.4522 -3.0321 0.0 0
M  V30 18 C 3.1464 -2.672 0.0 0
M  V30 19 C 2.4033 -3.3411 0.0 0
M  V30 20 O 2.6112 -4.3193 0.0 0
M  V30 END ATOM
M  V30 BEGIN BOND
M  V30 1 1 1 2
M  V30 2 2 2 3
M  V30 3 1 2 4
M  V30 4 1 3 5
M  V30 5 2 4 6
M  V30 6 1 5 7
M  V30 7 2 5 8
M  V30 8 2 7 9
M  V30 9 1 7 10
M  V30 10 1 8 11
M  V30 11 1 12 10 CFG=1
M  V30 12 2 11 13
M  V30 13 1 12 14
M  V30 14 1 12 15
M  V30 15 2 14 16
M  V30 16 1 14 17
M  V30 17 1 15 18
M  V30 18 1 17 19
M  V30 19 2 19 20
M  V30 20 1 6 8
M  V30 21 1 10 11
M  V30 22 1 18 19
M  V30 END BOND
M  V30 BEGIN COLLECTION
M  V30 MDLV30/STERAC1 ATOMS=(1 12)
M  V30 END COLLECTION
M  V30 END CTAB
M  END
>  <Compound ID>
92

>  <Name>


>  <Smiles>
O=C(c(cc1)c2cc1F)N(C(CCC(N1)=O)C1=O)C2=O

$$$$
Compound 93
Actelion Java MolfileCreator 2.0

  0  0  0  0  0  0              0 V3000
M  V30 BEGIN CTAB
M  V30 COUNTS 16 17 0 0 0
M  V30 BEGIN ATOM
M  V30 1 F 4.3301 0.0 0.0 0
M  V30 2 C 3.4641 -0.5 0.0 0
M  V30 3 C 2.598 0.0 0.0 0
M  V30 4 C 3.4641 -1.4999 0.0 0
M  V30 5 C 1.732 -0.5 0.0 0
M  V30 6 C 2.598 -2.0 0.0 0
M  V30 7 N 0.866 0.0 0.0 0
M  V30 8 C 1.732 -1.5 0.0 0
M  V30 9 C 0.0 -0.5 0.0 0 CFG=2
M  V30 10 C -0.866 0.0 0.0 0
M  V30 11 C 0.0 -1.4999 0.0 0
M  V30 12 O -0.866 1.0 0.0 0
M  V30 13 N -1.732 -0.4999 0.0 0
M  V30 14 C -0.866 -1.9999 0.0 0
M  V30 15 C -1.732 -1.4999 0.0 0
M  V30 16 O -2.598 -1.9999 0.0 0
M  V30 END ATOM
M  V30 BEGIN BOND
M  V30 1 1 1 2
M  V30 2 2 2 3
M  V30 3 1 2 4
M  V30 4 1 3 5
M  V30 5 2 4 6
M  V30 6 1 5 7
M  V30 7 2 5 8
M  V30 8 1 9 7 CFG=1
M  V30 9 1 9 10
M  V30 10 1 9 11
M  V30 11 2 10 12
M  V30 12 1 10 13
M  V30 13 1 11 14
M  V30 14 1 13 15
M  V30 15 2 15 16
M  V30 16 1 6 8
M  V30 17 1 14 15
M  V30 END BOND
M  V30 BEGIN COLLECTION
M  V30 MDLV30/STEABS ATOMS=(1 9)
M  V30 END COLLECTION
M  V30 END CTAB
M  END
>  <Compound ID>
93

>  <Name>


>  <Smiles>
O=C(CC[C@@H]1Nc2cccc(F)c2)NC1=O

$$$$
Compound 94
Actelion Java MolfileCreator 2.0

  0  0  0  0  0  0              0 V3000
M  V30 BEGIN CTAB
M  V30 COUNTS 29 31 0 0 0
M  V30 BEGIN ATOM
M  V30 1 S 3.8971 0.0 0.0 0
M  V30 2 O 4.6471 1.299 0.0 0
M  V30 3 O 3.1471 1.299 0.0 0
M  V30 4 N 2.598 -0.75 0.0 0
M  V30 5 N 5.1961 -0.75 0.0 0
M  V30 6 C 1.299 0.0 0.0 0
M  V30 7 C 2.598 -2.25 0.0 0
M  V30 8 C 6.4951 0.0 0.0 0
M  V30 9 C 0.0 -0.75 0.0 0
M  V30 10 C 7.7942 -0.75 0.0 0
M  V30 11 C 6.4951 1.5 0.0 0
M  V30 12 C 7.7942 -2.25 0.0 0
M  V30 13 C 9.0932 0.0 0.0 0
M  V30 14 C 7.7942 2.25 0.0 0
M  V30 15 N 7.7942 -3.75 0.0 0
M  V30 16 O 10.3923 -0.75 0.0 0
M  V30 17 C 9.0932 1.5 0.0 0
M  V30 18 C 11.6913 0.0 0.0 0
M  V30 19 F 10.3923 2.25 0.0 0
M  V30 20 C 12.9903 -0.75 0.0 0
M  V30 21 C 11.6913 1.5 0.0 0
M  V30 22 C 14.2894 0.0 0.0 0
M  V30 23 C 12.9903 2.25 0.0 0
M  V30 24 C 15.5884 -0.75 0.0 0
M  V30 25 C 14.2894 1.5 0.0 0
M  V30 26 O 15.5884 -2.25 0.0 0
M  V30 27 N 16.8875 0.0 0.0 0
M  V30 28 N 15.5884 2.25 0.0 0
M  V30 29 C 16.8875 1.5 0.0 0
M  V30 END ATOM
M  V30 BEGIN BOND
M  V30 1 2 1 2
M  V30 2 2 1 3
M  V30 3 1 1 4
M  V30 4 1 1 5
M  V30 5 1 4 6
M  V30 6 1 4 7
M  V30 7 1 5 8
M  V30 8 1 6 9
M  V30 9 2 8 10
M  V30 10 1 8 11
M  V30 11 1 10 12
M  V30 12 1 10 13
M  V30 13 2 11 14
M  V30 14 3 12 15
M  V30 15 1 13 16
M  V30 16 2 13 17
M  V30 17 1 16 18
M  V30 18 1 17 19
M  V30 19 2 18 20
M  V30 20 1 18 21
M  V30 21 1 20 22
M  V30 22 2 21 23
M  V30 23 1 22 24
M  V30 24 2 22 25
M  V30 25 2 24 26
M  V30 26 1 24 27
M  V30 27 1 25 28
M  V30 28 1 27 29
M  V30 29 1 14 17
M  V30 30 1 23 25
M  V30 31 2 28 29
M  V30 END BOND
M  V30 END CTAB
M  END
>  <Compound ID>
94

>  <Name>


>  <Smiles>
CCN(C)S(Nc(ccc(F)c1Oc(cc2)cc3c2N=CNC3=O)c1C#N)(=O)=O

$$$$
Compound 95
Actelion Java MolfileCreator 2.0

  0  0  0  0  0  0              0 V3000
M  V30 BEGIN CTAB
M  V30 COUNTS 31 33 0 0 0
M  V30 BEGIN ATOM
M  V30 1 S 6.9757 -1.5932 0.0 0
M  V30 2 C 6.0621 -1.9999 0.0 0
M  V30 3 C 7.6448 -2.3364 0.0 0
M  V30 4 C 5.1961 -1.4999 0.0 0
M  V30 5 C 6.1667 -2.9945 0.0 0
M  V30 6 N 7.1448 -3.2024 0.0 0
M  V30 7 C 5.1961 -0.5 0.0 0
M  V30 8 C 4.3301 -1.9999 0.0 0
M  V30 9 C 5.4235 -3.6636 0.0 0
M  V30 10 C 4.3301 0.0 0.0 0
M  V30 11 C 3.4641 -1.5 0.0 0
M  V30 12 C 3.4641 -0.5 0.0 0
M  V30 13 C 2.598 0.0 0.0 0 CFG=1
M  V30 14 N 1.732 -0.5 0.0 0
M  V30 15 C 2.598 1.0 0.0 0
M  V30 16 C 0.866 0.0 0.0 0
M  V30 17 O 0.866 1.0 0.0 0
M  V30 18 C 0.0 -0.5 0.0 0 CFG=1
M  V30 19 N -0.1045 -1.4945 0.0 0
M  V30 20 C -0.9135 -0.0932 0.0 0
M  V30 21 C 0.6386 -2.1636 0.0 0
M  V30 22 C -1.0826 -1.7024 0.0 0
M  V30 23 C -1.5826 -0.8364 0.0 0 CFG=2
M  V30 24 O 1.5896 -1.8546 0.0 0
M  V30 25 C 0.4307 -3.1418 0.0 0 CFG=1
M  V30 26 O -2.5771 -0.7318 0.0 0
M  V30 27 N -0.5203 -3.4508 0.0 0
M  V30 28 C 1.1738 -3.8109 0.0 0
M  V30 29 C 1.8429 -3.0677 0.0 0
M  V30 30 C 1.9169 -4.48 0.0 0
M  V30 31 C 0.5047 -4.554 0.0 0
M  V30 END ATOM
M  V30 BEGIN BOND
M  V30 1 1 1 2
M  V30 2 1 1 3
M  V30 3 1 2 4
M  V30 4 2 2 5
M  V30 5 2 3 6
M  V30 6 2 4 7
M  V30 7 1 4 8
M  V30 8 1 5 9
M  V30 9 1 7 10
M  V30 10 2 8 11
M  V30 11 2 10 12
M  V30 12 1 13 12
M  V30 13 1 13 14 CFG=1
M  V30 14 1 13 15
M  V30 15 1 14 16
M  V30 16 2 16 17
M  V30 17 1 18 16 CFG=1
M  V30 18 1 18 19
M  V30 19 1 18 20
M  V30 20 1 19 21
M  V30 21 1 19 22
M  V30 22 1 23 20
M  V30 23 2 21 24
M  V30 24 1 25 21
M  V30 25 1 23 26 CFG=3
M  V30 26 1 25 27 CFG=3
M  V30 27 1 25 28
M  V30 28 1 28 29
M  V30 29 1 28 30
M  V30 30 1 28 31
M  V30 31 1 5 6
M  V30 32 1 11 12
M  V30 33 1 22 23
M  V30 END BOND
M  V30 BEGIN COLLECTION
M  V30 MDLV30/STEABS ATOMS=(4 13 18 23 25)
M  V30 END COLLECTION
M  V30 END CTAB
M  END
>  <Compound ID>
95

>  <Name>


>  <Smiles>
C[C@@H](c(cc1)ccc1-c1c(C)ncs1)NC([C@H](C[C@H](C1)O)N1C([C@H](C(C)(C)C)N)=O)=O

$$$$
Compound 96
Actelion Java MolfileCreator 2.0

  0  0  0  0  0  0              0 V3000
M  V30 BEGIN CTAB
M  V30 COUNTS 19 21 0 0 0
M  V30 BEGIN ATOM
M  V30 1 O 1.732 -1.5 0.0 0
M  V30 2 C 1.732 -0.5 0.0 0
M  V30 3 N 2.598 0.0 0.0 0
M  V30 4 C 0.866 0.0 0.0 0 CFG=1
M  V30 5 C 2.598 0.9999 0.0 0
M  V30 6 N 0.0 -0.5 0.0 0
M  V30 7 C 0.866 1.0 0.0 0
M  V30 8 O 3.4641 1.4999 0.0 0
M  V30 9 C 1.732 1.4999 0.0 0
M  V30 10 C -0.9135 -0.0932 0.0 0
M  V30 11 C -0.1045 -1.4945 0.0 0
M  V30 12 O -1.1214 0.8848 0.0 0
M  V30 13 C -1.5826 -0.8364 0.0 0
M  V30 14 O 0.6386 -2.1636 0.0 0
M  V30 15 C -1.0826 -1.7024 0.0 0
M  V30 16 C -2.5826 -0.8364 0.0 0
M  V30 17 C -1.5826 -2.5684 0.0 0
M  V30 18 C -3.0826 -1.7024 0.0 0
M  V30 19 C -2.5826 -2.5684 0.0 0
M  V30 END ATOM
M  V30 BEGIN BOND
M  V30 1 2 1 2
M  V30 2 1 2 3
M  V30 3 1 4 2
M  V30 4 1 3 5
M  V30 5 1 4 6 CFG=1
M  V30 6 1 4 7
M  V30 7 2 5 8
M  V30 8 1 5 9
M  V30 9 1 6 10
M  V30 10 1 6 11
M  V30 11 2 10 12
M  V30 12 1 10 13
M  V30 13 2 11 14
M  V30 14 1 11 15
M  V30 15 1 13 16
M  V30 16 1 15 17
M  V30 17 2 16 18
M  V30 18 2 17 19
M  V30 19 1 7 9
M  V30 20 2 13 15
M  V30 21 1 18 19
M  V30 END BOND
M  V30 BEGIN COLLECTION
M  V30 MDLV30/STERAC1 ATOMS=(1 4)
M  V30 END COLLECTION
M  V30 END CTAB
M  END
>  <Compound ID>
96

>  <Name>


>  <Smiles>
O=C(c1c2cccc1)N(C(CCC(N1)=O)C1=O)C2=O

$$$$
Compound 97
Actelion Java MolfileCreator 2.0

  0  0  0  0  0  0              0 V3000
M  V30 BEGIN CTAB
M  V30 COUNTS 19 21 0 0 0
M  V30 BEGIN ATOM
M  V30 1 O 1.732 -1.5 0.0 0
M  V30 2 C 1.732 -0.5 0.0 0
M  V30 3 N 2.598 0.0 0.0 0
M  V30 4 C 0.866 0.0 0.0 0 CFG=1
M  V30 5 C 2.598 0.9999 0.0 0
M  V30 6 N 0.0 -0.5 0.0 0
M  V30 7 C 0.866 1.0 0.0 0
M  V30 8 O 3.4641 1.4999 0.0 0
M  V30 9 C 1.732 1.4999 0.0 0
M  V30 10 C -0.9135 -0.0932 0.0 0
M  V30 11 C -0.1045 -1.4945 0.0 0
M  V30 12 O -1.1214 0.8848 0.0 0
M  V30 13 N -1.5826 -0.8364 0.0 0
M  V30 14 C -1.0826 -1.7024 0.0 0
M  V30 15 C 0.5646 -2.2376 0.0 0
M  V30 16 C -2.5771 -0.7318 0.0 0
M  V30 17 C -1.3916 -2.6534 0.0 0
M  V30 18 C 0.2555 -3.1887 0.0 0
M  V30 19 C -0.7225 -3.3966 0.0 0
M  V30 END ATOM
M  V30 BEGIN BOND
M  V30 1 2 1 2
M  V30 2 1 2 3
M  V30 3 1 4 2
M  V30 4 1 3 5
M  V30 5 1 4 6 CFG=1
M  V30 6 1 4 7
M  V30 7 2 5 8
M  V30 8 1 5 9
M  V30 9 1 6 10
M  V30 10 1 6 11
M  V30 11 2 10 12
M  V30 12 1 10 13
M  V30 13 2 11 14
M  V30 14 1 11 15
M  V30 15 1 13 16
M  V30 16 1 14 17
M  V30 17 2 15 18
M  V30 18 2 17 19
M  V30 19 1 7 9
M  V30 20 1 13 14
M  V30 21 1 18 19
M  V30 END BOND
M  V30 BEGIN COLLECTION
M  V30 MDLV30/STERAC1 ATOMS=(1 4)
M  V30 END COLLECTION
M  V30 END CTAB
M  END
>  <Compound ID>
97

>  <Name>


>  <Smiles>
CN(c(cccc1)c1N1C(CCC(N2)=O)C2=O)C1=O

$$$$
Compound 98
Actelion Java MolfileCreator 2.0

  0  0  0  0  0  0              0 V3000
M  V30 BEGIN CTAB
M  V30 COUNTS 20 22 0 0 0
M  V30 BEGIN ATOM
M  V30 1 O 1.732 -1.5 0.0 0
M  V30 2 C 1.732 -0.5 0.0 0
M  V30 3 N 2.598 0.0 0.0 0
M  V30 4 C 0.866 0.0 0.0 0 CFG=1
M  V30 5 C 2.598 0.9999 0.0 0
M  V30 6 N 0.0 -0.5 0.0 0
M  V30 7 C 0.866 1.0 0.0 0
M  V30 8 O 3.4641 1.4999 0.0 0
M  V30 9 C 1.732 1.4999 0.0 0
M  V30 10 C -0.9135 -0.0932 0.0 0
M  V30 11 C -0.1045 -1.4945 0.0 0
M  V30 12 O -1.1214 0.8848 0.0 0
M  V30 13 C -1.5826 -0.8364 0.0 0
M  V30 14 O 0.6386 -2.1636 0.0 0
M  V30 15 C -1.0826 -1.7024 0.0 0
M  V30 16 C -2.5826 -0.8364 0.0 0
M  V30 17 C -1.5826 -2.5684 0.0 0
M  V30 18 N -3.0826 0.0296 0.0 0
M  V30 19 C -3.0826 -1.7024 0.0 0
M  V30 20 C -2.5826 -2.5684 0.0 0
M  V30 END ATOM
M  V30 BEGIN BOND
M  V30 1 2 1 2
M  V30 2 1 2 3
M  V30 3 1 4 2
M  V30 4 1 3 5
M  V30 5 1 4 6 CFG=1
M  V30 6 1 4 7
M  V30 7 2 5 8
M  V30 8 1 5 9
M  V30 9 1 6 10
M  V30 10 1 6 11
M  V30 11 2 10 12
M  V30 12 1 10 13
M  V30 13 2 11 14
M  V30 14 1 11 15
M  V30 15 1 13 16
M  V30 16 1 15 17
M  V30 17 1 16 18
M  V30 18 2 16 19
M  V30 19 2 17 20
M  V30 20 1 7 9
M  V30 21 2 13 15
M  V30 22 1 19 20
M  V30 END BOND
M  V30 BEGIN COLLECTION
M  V30 MDLV30/STERAC1 ATOMS=(1 4)
M  V30 END COLLECTION
M  V30 END CTAB
M  END
>  <Compound ID>
98

>  <Name>


>  <Smiles>
Nc1cccc(C(N2C(CCC(N3)=O)C3=O)=O)c1C2=O

$$$$
Compound 99
Actelion Java MolfileCreator 2.0

  0  0  0  0  0  0              0 V3000
M  V30 BEGIN CTAB
M  V30 COUNTS 23 25 0 0 0
M  V30 BEGIN ATOM
M  V30 1 O 6.2895 0.1636 0.0 0
M  V30 2 C 7.0327 -0.5054 0.0 0
M  V30 3 N 6.9282 -1.4999 0.0 0
M  V30 4 N 8.0108 -0.2975 0.0 0
M  V30 5 C 6.0621 -1.9999 0.0 0 CFG=1
M  V30 6 C 7.8417 -1.9067 0.0 0
M  V30 7 C 8.5108 -1.1635 0.0 0
M  V30 8 C 8.4176 0.6159 0.0 0
M  V30 9 C 5.1961 -1.5 0.0 0
M  V30 10 C 6.0621 -3.0 0.0 0
M  V30 11 N 4.3301 -1.9999 0.0 0
M  V30 12 C 5.1961 -3.5 0.0 0
M  V30 13 C 3.4641 -1.5 0.0 0
M  V30 14 C 4.3301 -3.0 0.0 0
M  V30 15 N 3.4641 -0.5 0.0 0
M  V30 16 C 2.598 -1.9999 0.0 0
M  V30 17 C 2.598 0.0 0.0 0
M  V30 18 N 1.732 -1.5 0.0 0
M  V30 19 N 2.598 1.0 0.0 0
M  V30 20 C 1.732 -0.5 0.0 0
M  V30 21 C 0.866 0.0 0.0 0
M  V30 22 O 0.866 1.0 0.0 0
M  V30 23 N 0.0 -0.5 0.0 0
M  V30 END ATOM
M  V30 BEGIN BOND
M  V30 1 2 1 2
M  V30 2 1 2 3
M  V30 3 1 2 4
M  V30 4 1 5 3 CFG=3
M  V30 5 1 3 6
M  V30 6 1 4 7
M  V30 7 1 4 8
M  V30 8 1 5 9
M  V30 9 1 5 10
M  V30 10 1 9 11
M  V30 11 1 10 12
M  V30 12 1 11 13
M  V30 13 1 11 14
M  V30 14 2 13 15
M  V30 15 1 13 16
M  V30 16 1 15 17
M  V30 17 2 16 18
M  V30 18 1 17 19
M  V30 19 2 17 20
M  V30 20 1 20 21
M  V30 21 2 21 22
M  V30 22 1 21 23
M  V30 23 1 6 7
M  V30 24 1 12 14
M  V30 25 1 18 20
M  V30 END BOND
M  V30 BEGIN COLLECTION
M  V30 MDLV30/STEABS ATOMS=(1 5)
M  V30 END COLLECTION
M  V30 END CTAB
M  END
>  <Compound ID>
99

>  <Name>


>  <Smiles>
CN(CCN1[C@H](CCC2)CN2c2nc(N)c(C(N)=O)nc2)C1=O

$$$$
Compound 100
Actelion Java MolfileCreator 2.0

  0  0  0  0  0  0              0 V3000
M  V30 BEGIN CTAB
M  V30 COUNTS 28 29 0 0 0
M  V30 BEGIN ATOM
M  V30 1 S 15.7452 3.7417 0.0 0
M  V30 2 C 15.5884 2.25 0.0 0
M  V30 3 C 17.2124 4.0536 0.0 0
M  V30 4 C 14.2894 1.5 0.0 0
M  V30 5 C 16.9587 1.6398 0.0 0
M  V30 6 N 17.9624 2.7546 0.0 0
M  V30 7 C 12.9903 2.25 0.0 0
M  V30 8 C 14.2894 0.0 0.0 0
M  V30 9 C 17.2706 0.1726 0.0 0
M  V30 10 C 11.6913 1.5 0.0 0
M  V30 11 C 12.9903 -0.7499 0.0 0
M  V30 12 C 11.6913 0.0 0.0 0
M  V30 13 C 10.3923 -0.75 0.0 0 CFG=1
M  V30 14 N 9.0932 0.0 0.0 0
M  V30 15 C 10.3923 -2.25 0.0 0
M  V30 16 C 7.7942 -0.75 0.0 0
M  V30 17 O 7.7942 -2.25 0.0 0
M  V30 18 C 6.4951 0.0 0.0 0 CFG=1
M  V30 19 N 5.1961 -0.75 0.0 0
M  V30 20 C 6.4951 1.4999 0.0 0
M  V30 21 C 3.8971 0.0 0.0 0
M  V30 22 C 7.7942 2.2499 0.0 0
M  V30 23 O 3.8971 1.5 0.0 0
M  V30 24 C 2.598 -0.75 0.0 0
M  V30 25 O 7.7942 3.7499 0.0 0
M  V30 26 C 1.299 0.0 0.0 0
M  V30 27 C 1.299 1.5 0.0 0
M  V30 28 C 0.0 -0.75 0.0 0
M  V30 END ATOM
M  V30 BEGIN BOND
M  V30 1 1 1 2
M  V30 2 1 1 3
M  V30 3 1 2 4
M  V30 4 2 2 5
M  V30 5 2 3 6
M  V30 6 2 4 7
M  V30 7 1 4 8
M  V30 8 1 5 9
M  V30 9 1 7 10
M  V30 10 2 8 11
M  V30 11 2 10 12
M  V30 12 1 13 12
M  V30 13 1 13 14 CFG=3
M  V30 14 1 13 15
M  V30 15 1 14 16
M  V30 16 2 16 17
M  V30 17 1 18 16
M  V30 18 1 18 19 CFG=1
M  V30 19 1 18 20
M  V30 20 1 19 21
M  V30 21 1 20 22
M  V30 22 2 21 23
M  V30 23 1 21 24
M  V30 24 1 22 25
M  V30 25 1 24 26
M  V30 26 1 26 27
M  V30 27 1 26 28
M  V30 28 1 5 6
M  V30 29 1 11 12
M  V30 END BOND
M  V30 BEGIN COLLECTION
M  V30 MDLV30/STEABS ATOMS=(2 13 18)
M  V30 END COLLECTION
M  V30 END CTAB
M  END
>  <Compound ID>
100

>  <Name>


>  <Smiles>
CC(C)CC(N[C@@H](CCO)C(N[C@@H](C)c(cc1)ccc1-c1c(C)ncs1)=O)=O

$$$$
Compound 101
Actelion Java MolfileCreator 2.0

  0  0  0  0  0  0              0 V3000
M  V30 BEGIN CTAB
M  V30 COUNTS 24 26 0 0 0
M  V30 BEGIN ATOM
M  V30 1 O 4.3301 -1.9999 0.0 0
M  V30 2 C 3.4641 -1.4999 0.0 0
M  V30 3 C 3.4641 -0.5 0.0 0
M  V30 4 C 2.598 -1.9999 0.0 0
M  V30 5 C 4.3301 0.0 0.0 0
M  V30 6 C 2.598 0.0 0.0 0
M  V30 7 C 1.732 -1.5 0.0 0
M  V30 8 N 5.2436 -0.4067 0.0 0
M  V30 9 N 4.4346 0.9945 0.0 0
M  V30 10 C 1.732 -0.5 0.0 0
M  V30 11 O 0.866 -1.9999 0.0 0
M  V30 12 N 5.9128 0.3364 0.0 0
M  V30 13 C 3.6915 1.6636 0.0 0
M  V30 14 C 5.4128 1.2024 0.0 0
M  V30 15 C 0.866 0.0 0.0 0
M  V30 16 C 3.8994 2.6418 0.0 0
M  V30 17 C 2.7404 1.3546 0.0 0
M  V30 18 O 5.8195 2.1159 0.0 0
M  V30 19 C 0.866 1.0 0.0 0
M  V30 20 C 0.0 -0.5 0.0 0
M  V30 21 C 3.1562 3.3109 0.0 0
M  V30 22 C 1.9973 2.0237 0.0 0
M  V30 23 C 2.2052 3.0019 0.0 0
M  V30 24 C 1.462 3.671 0.0 0
M  V30 END ATOM
M  V30 BEGIN BOND
M  V30 1 1 1 2
M  V30 2 2 2 3
M  V30 3 1 2 4
M  V30 4 1 3 5
M  V30 5 1 3 6
M  V30 6 2 4 7
M  V30 7 2 5 8
M  V30 8 1 5 9
M  V30 9 2 6 10
M  V30 10 1 7 11
M  V30 11 1 8 12
M  V30 12 1 9 13
M  V30 13 1 9 14
M  V30 14 1 10 15
M  V30 15 2 13 16
M  V30 16 1 13 17
M  V30 17 1 14 18
M  V30 18 1 15 19
M  V30 19 1 15 20
M  V30 20 1 16 21
M  V30 21 2 17 22
M  V30 22 2 21 23
M  V30 23 1 23 24
M  V30 24 1 7 10
M  V30 25 2 12 14
M  V30 26 1 22 23
M  V30 END BOND
M  V30 END CTAB
M  END
>  <Compound ID>
101

>  <Name>


>  <Smiles>
CC(C)c(c(O)c1)cc(-c(n2-c3ccc(C)cc3)nnc2O)c1O

$$$$
