Compound 1
Actelion Java MolfileCreator 2.0

  0  0  0  0  0  0              0 V3000
M  V30 BEGIN CTAB
M  V30 COUNTS 37 40 0 0 0
M  V30 BEGIN ATOM
M  V30 1 O 0.0 0.0 0.0 0
M  V30 2 C -0.2449 1.4928 0.0 0
M  V30 3 N -1.6561 2.041 0.0 0
M  V30 4 C 0.9097 2.4492 0.0 0 CFG=1
M  V30 5 C -2.8341 1.108 0.0 0 CFG=1
M  V30 6 N 2.2976 1.9244 0.0 0
M  V30 7 C 0.6648 3.9421 0.0 0
M  V30 8 C -4.2454 1.6561 0.0 0
M  V30 9 C -2.6125 -0.3615 0.0 0
M  V30 10 C 2.5192 0.4548 0.0 0
M  V30 11 C 3.4523 2.8808 0.0 0
M  V30 12 C 1.8194 4.8985 0.0 0
M  V30 13 C -5.4233 0.7231 0.0 0
M  V30 14 C -4.4903 3.149 0.0 0
M  V30 15 C -3.7905 -1.2946 0.0 0
M  V30 16 O 1.3412 -0.4781 0.0 0
M  V30 17 C 3.9071 -0.0699 0.0 0 CFG=1
M  V30 18 C 3.2073 4.3737 0.0 0
M  V30 19 C 1.5745 6.3914 0.0 0
M  V30 20 C -6.8346 1.2712 0.0 0
M  V30 21 C -5.2017 -0.7464 0.0 0
M  V30 22 C -5.9015 3.6972 0.0 0
M  V30 23 N 5.0618 0.8864 0.0 0
M  V30 24 C 4.1287 -1.5395 0.0 0
M  V30 25 C 4.362 5.33 0.0 0
M  V30 26 C 2.7291 7.3478 0.0 0
M  V30 27 C -7.0795 2.7641 0.0 0
M  V30 28 C 6.4497 0.3615 0.0 0
M  V30 29 C 5.5983 -1.2946 0.0 0
M  V30 30 C 2.6358 -1.7611 0.0 0
M  V30 31 C 4.3503 -3.0091 0.0 0
M  V30 32 C 4.1171 6.8229 0.0 0
M  V30 33 O 6.6713 -1.108 0.0 0
M  V30 34 C 7.6044 1.3179 0.0 0 CFG=1
M  V30 35 N 7.3594 2.8108 0.0 0
M  V30 36 C 8.9923 0.793 0.0 0
M  V30 37 C 8.5141 3.7672 0.0 0
M  V30 END ATOM
M  V30 BEGIN BOND
M  V30 1 2 1 2
M  V30 2 1 2 3
M  V30 3 1 4 2 CFG=3
M  V30 4 1 5 3 CFG=3
M  V30 5 1 4 6
M  V30 6 1 4 7
M  V30 7 1 5 8
M  V30 8 1 5 9
M  V30 9 1 6 10
M  V30 10 1 6 11
M  V30 11 1 7 12
M  V30 12 2 8 13
M  V30 13 1 8 14
M  V30 14 1 9 15
M  V30 15 2 10 16
M  V30 16 1 10 17
M  V30 17 1 11 18
M  V30 18 1 12 19
M  V30 19 1 13 20
M  V30 20 1 13 21
M  V30 21 2 14 22
M  V30 22 1 17 23 CFG=1
M  V30 23 1 17 24
M  V30 24 1 18 25
M  V30 25 2 19 26
M  V30 26 2 20 27
M  V30 27 1 23 28
M  V30 28 1 24 29
M  V30 29 1 24 30
M  V30 30 1 24 31
M  V30 31 2 25 32
M  V30 32 2 28 33
M  V30 33 1 28 34
M  V30 34 1 34 35 CFG=1
M  V30 35 1 34 36
M  V30 36 1 35 37
M  V30 37 2 12 18
M  V30 38 1 15 21
M  V30 39 1 22 27
M  V30 40 1 26 32
M  V30 END BOND
M  V30 BEGIN COLLECTION
M  V30 MDLV30/STEABS ATOMS=(4 4 5 17 34)
M  V30 END COLLECTION
M  V30 END CTAB
M  END
>  <Compound ID>
1

>  <Name>


>  <Uniprot>
Q13490

>  <Target>
cIAP1

>  <Smiles>
CN[C@@H](C)C(=O)N[C@H](C(=O)N1CC2=CC=CC=C2C[C@H]1C(=O)N[C@@H]1CCCC2=CC=CC=C21)C(C)(C)C

>  <Kd (nM)>


>  <Assay (Kd)>


>  <Ki (nM)>


>  <Assay (Ki)>


>  <IC50 (nM)>
13

>  <Assay (IC50)>
Inhibition of cIAP1 BIR2-3 binding in an fluorescence polarization binding assay

>  <EC50 (nM)>


>  <Assay (EC50)>


>  <Article DOI>
10.1016/j.bmcl.2014.09.022

>  <Molecular Weight>
504.675

>  <Exact Mass>
504.31004114

>  <XLogP3>
4.02

>  <Heavy Atom Count>
37

>  <Ring Count>
4

>  <Hydrogen Bond Acceptor Count>
4

>  <Hydrogen Bond Donor Count>
3

>  <Rotatable Bond Count>
6

>  <Topological Polar Surface Area>
90.54

>  <Molecular Formula>
C30H40N4O3

>  <InChI>
InChI=1S/C30H40N4O3/c1-19(31-5)27(35)33-26(30(2,3)4)29(37)34-18-22-13-7-6-12-21(22)17-25(34)28(36)32-24-16-10-14-20-11-8-9-15-23(20)24/h6-9,11-13,15,19,24-26,31H,10,14,16-18H2,1-5H3,(H,32,36)(H,33,35)/t19-,24+,25-,26+/m0/s1

>  <InChI Key>
AIYRKWQJUXHQEF-QNMIOERPSA-N

>  <BindingDB>


>  <PubChem>


>  <ChEMBL>


$$$$
Compound 2
Actelion Java MolfileCreator 2.0

  0  0  0  0  0  0              0 V3000
M  V30 BEGIN CTAB
M  V30 COUNTS 20 22 0 0 0
M  V30 BEGIN ATOM
M  V30 1 O 0.0 0.0 0.0 0
M  V30 2 C 0.6113 -1.352 0.0 0
M  V30 3 N 2.0927 -1.4814 0.0 0
M  V30 4 C -0.2704 -2.563 0.0 0 CFG=1
M  V30 5 C 2.7041 -2.8334 0.0 0
M  V30 6 N -1.7753 -2.4102 0.0 0
M  V30 7 C 0.3409 -3.9151 0.0 0
M  V30 8 O 4.1855 -2.9628 0.0 0
M  V30 9 C 1.8223 -4.0444 0.0 0
M  V30 10 C -2.7746 -3.5271 0.0 0
M  V30 11 C -2.5513 -1.1051 0.0 0
M  V30 12 O -2.4572 -4.985 0.0 0
M  V30 13 C -4.162 -2.9157 0.0 0
M  V30 14 O -1.9634 0.2821 0.0 0
M  V30 15 C -4.0327 -1.4226 0.0 0
M  V30 16 C -5.5376 -3.5271 0.0 0
M  V30 17 C -5.2672 -0.5408 0.0 0
M  V30 18 N -5.6904 -5.0085 0.0 0
M  V30 19 C -6.7721 -2.6453 0.0 0
M  V30 20 C -6.6427 -1.1522 0.0 0
M  V30 END ATOM
M  V30 BEGIN BOND
M  V30 1 2 1 2
M  V30 2 1 2 3
M  V30 3 1 2 4
M  V30 4 1 3 5
M  V30 5 1 4 6 CFG=3
M  V30 6 1 4 7
M  V30 7 2 5 8
M  V30 8 1 5 9
M  V30 9 1 6 10
M  V30 10 1 6 11
M  V30 11 2 10 12
M  V30 12 1 10 13
M  V30 13 2 11 14
M  V30 14 1 11 15
M  V30 15 1 13 16
M  V30 16 1 15 17
M  V30 17 1 16 18
M  V30 18 2 16 19
M  V30 19 2 17 20
M  V30 20 1 7 9
M  V30 21 2 13 15
M  V30 22 1 19 20
M  V30 END BOND
M  V30 BEGIN COLLECTION
M  V30 MDLV30/STERAC1 ATOMS=(1 4)
M  V30 END COLLECTION
M  V30 END CTAB
M  END
>  <Compound ID>
2

>  <Name>
pomalidomide

>  <Uniprot>
Q96SW2

>  <Target>
CRBN

>  <Smiles>
NC1=CC=CC2=C1C(=O)N(C1CCC(=O)NC1=O)C2=O

>  <Kd (nM)>
157

>  <Assay (Kd)>
FP

>  <Ki (nM)>


>  <Assay (Ki)>


>  <IC50 (nM)>


>  <Assay (IC50)>


>  <EC50 (nM)>


>  <Assay (EC50)>


>  <Article DOI>
10.1038/nature13527

>  <Molecular Weight>
273.248

>  <Exact Mass>
273.074955832

>  <XLogP3>
0.2

>  <Heavy Atom Count>
20

>  <Ring Count>
3

>  <Hydrogen Bond Acceptor Count>
5

>  <Hydrogen Bond Donor Count>
2

>  <Rotatable Bond Count>
1

>  <Topological Polar Surface Area>
109.57

>  <Molecular Formula>
C13H11N3O4

>  <InChI>
InChI=1S/C13H11N3O4/c14-7-3-1-2-6-10(7)13(20)16(12(6)19)8-4-5-9(17)15-11(8)18/h1-3,8H,4-5,14H2,(H,15,17,18)

>  <InChI Key>
UVSMNLNDYGZFPF-UHFFFAOYSA-N

>  <BindingDB>
65456

>  <PubChem>
134780

>  <ChEMBL>
CHEMBL43452

$$$$
Compound 3
Actelion Java MolfileCreator 2.0

  0  0  0  0  0  0              0 V3000
M  V30 BEGIN CTAB
M  V30 COUNTS 19 21 0 0 0
M  V30 BEGIN ATOM
M  V30 1 O 0.0 0.0 0.0 0
M  V30 2 C -0.7309 1.3321 0.0 0
M  V30 3 N -2.2399 1.3793 0.0 0
M  V30 4 C 0.0353 2.6172 0.0 0 CFG=1
M  V30 5 C -2.9708 2.7115 0.0 0
M  V30 6 N 1.5208 2.5936 0.0 0
M  V30 7 C -0.6955 3.9493 0.0 0
M  V30 8 O -4.4798 2.7586 0.0 0
M  V30 9 C -2.2045 3.9965 0.0 0
M  V30 10 C 2.3578 1.3675 0.0 0
M  V30 11 C 2.4167 3.7961 0.0 0
M  V30 12 O 1.8509 -0.0353 0.0 0
M  V30 13 C 3.7843 1.8037 0.0 0
M  V30 14 O 1.9805 5.2461 0.0 0
M  V30 15 C 3.8196 3.3127 0.0 0
M  V30 16 C 5.0457 1.0374 0.0 0
M  V30 17 C 5.1283 4.0436 0.0 0
M  V30 18 C 6.3543 1.7683 0.0 0
M  V30 19 C 6.3897 3.2773 0.0 0
M  V30 END ATOM
M  V30 BEGIN BOND
M  V30 1 2 1 2
M  V30 2 1 2 3
M  V30 3 1 2 4
M  V30 4 1 3 5
M  V30 5 1 4 6 CFG=3
M  V30 6 1 4 7
M  V30 7 2 5 8
M  V30 8 1 5 9
M  V30 9 1 6 10
M  V30 10 1 6 11
M  V30 11 2 10 12
M  V30 12 1 10 13
M  V30 13 2 11 14
M  V30 14 1 11 15
M  V30 15 1 13 16
M  V30 16 1 15 17
M  V30 17 2 16 18
M  V30 18 2 17 19
M  V30 19 1 7 9
M  V30 20 2 13 15
M  V30 21 1 18 19
M  V30 END BOND
M  V30 BEGIN COLLECTION
M  V30 MDLV30/STERAC1 ATOMS=(1 4)
M  V30 END COLLECTION
M  V30 END CTAB
M  END
>  <Compound ID>
3

>  <Name>
Thalidomide

>  <Uniprot>
Q96SW2

>  <Target>
CRBN

>  <Smiles>
O=C1CCC(N2C(=O)C3=CC=CC=C3C2=O)C(=O)N1

>  <Kd (nM)>
250

>  <Assay (Kd)>
FP

>  <Ki (nM)>


>  <Assay (Ki)>


>  <IC50 (nM)>


>  <Assay (IC50)>


>  <EC50 (nM)>


>  <Assay (EC50)>


>  <Article DOI>
10.1038/nature13527

>  <Molecular Weight>
258.233

>  <Exact Mass>
258.0640568

>  <XLogP3>
0.33

>  <Heavy Atom Count>
19

>  <Ring Count>
3

>  <Hydrogen Bond Acceptor Count>
4

>  <Hydrogen Bond Donor Count>
1

>  <Rotatable Bond Count>
1

>  <Topological Polar Surface Area>
83.55

>  <Molecular Formula>
C13H10N2O4

>  <InChI>
InChI=1S/C13H10N2O4/c16-10-6-5-9(11(17)14-10)15-12(18)7-3-1-2-4-8(7)13(15)19/h1-4,9H,5-6H2,(H,14,16,17)

>  <InChI Key>
UEJJHQNACJXSKW-UHFFFAOYSA-N

>  <BindingDB>
50070114

>  <PubChem>
5426

>  <ChEMBL>
CHEMBL468

$$$$
Compound 4
Actelion Java MolfileCreator 2.0

  0  0  0  0  0  0              0 V3000
M  V30 BEGIN CTAB
M  V30 COUNTS 19 21 0 0 0
M  V30 BEGIN ATOM
M  V30 1 O 0.0 0.0 0.0 0
M  V30 2 C 0.6245 -1.3433 0.0 0
M  V30 3 N 2.1092 -1.4611 0.0 0
M  V30 4 C -0.2474 -2.5688 0.0 0 CFG=1
M  V30 5 C 2.7338 -2.8045 0.0 0
M  V30 6 N -1.7557 -2.4274 0.0 0
M  V30 7 C 0.377 -3.9121 0.0 0
M  V30 8 O 4.2185 -2.9223 0.0 0
M  V30 9 C 1.8618 -4.03 0.0 0
M  V30 10 C -2.5452 -1.1312 0.0 0
M  V30 11 C -2.7455 -3.5468 0.0 0
M  V30 12 O -1.9678 0.2592 0.0 0
M  V30 13 C -4.0182 -1.4611 0.0 0
M  V30 14 C -4.136 -2.9459 0.0 0
M  V30 15 C -5.2673 -0.5891 0.0 0
M  V30 16 C -5.5029 -3.5704 0.0 0
M  V30 17 C -6.6342 -1.2137 0.0 0
M  V30 18 N -5.6443 -5.0551 0.0 0
M  V30 19 C -6.752 -2.6984 0.0 0
M  V30 END ATOM
M  V30 BEGIN BOND
M  V30 1 2 1 2
M  V30 2 1 2 3
M  V30 3 1 2 4
M  V30 4 1 3 5
M  V30 5 1 4 6 CFG=3
M  V30 6 1 4 7
M  V30 7 2 5 8
M  V30 8 1 5 9
M  V30 9 1 6 10
M  V30 10 1 6 11
M  V30 11 2 10 12
M  V30 12 1 10 13
M  V30 13 1 11 14
M  V30 14 1 13 15
M  V30 15 1 14 16
M  V30 16 2 15 17
M  V30 17 1 16 18
M  V30 18 2 16 19
M  V30 19 1 7 9
M  V30 20 2 13 14
M  V30 21 1 17 19
M  V30 END BOND
M  V30 BEGIN COLLECTION
M  V30 MDLV30/STERAC1 ATOMS=(1 4)
M  V30 END COLLECTION
M  V30 END CTAB
M  END
>  <Compound ID>
4

>  <Name>
lenalidomide

>  <Uniprot>
Q96SW2

>  <Target>
CRBN

>  <Smiles>
NC1=CC=CC2=C1CN(C1CCC(=O)NC1=O)C2=O

>  <Kd (nM)>
178

>  <Assay (Kd)>
FP

>  <Ki (nM)>


>  <Assay (Ki)>


>  <IC50 (nM)>


>  <Assay (IC50)>


>  <EC50 (nM)>


>  <Assay (EC50)>


>  <Article DOI>
10.1038/nature13527

>  <Molecular Weight>
259.265

>  <Exact Mass>
259.095691276

>  <XLogP3>
-0.5

>  <Heavy Atom Count>
19

>  <Ring Count>
3

>  <Hydrogen Bond Acceptor Count>
4

>  <Hydrogen Bond Donor Count>
2

>  <Rotatable Bond Count>
1

>  <Topological Polar Surface Area>
92.5

>  <Molecular Formula>
C13H13N3O3

>  <InChI>
InChI=1S/C13H13N3O3/c14-9-3-1-2-7-8(9)6-16(13(7)19)10-4-5-11(17)15-12(10)18/h1-3,10H,4-6,14H2,(H,15,17,18)

>  <InChI Key>
GOTYRUGSSMKFNF-UHFFFAOYSA-N

>  <BindingDB>
65454

>  <PubChem>
216326

>  <ChEMBL>
CHEMBL848

$$$$
Compound 5
Actelion Java MolfileCreator 2.0

  0  0  0  0  0  0              0 V3000
M  V30 BEGIN CTAB
M  V30 COUNTS 34 36 0 0 0
M  V30 BEGIN ATOM
M  V30 1 S 0.0 0.0 0.0 0
M  V30 2 C -1.3656 0.6357 0.0 0
M  V30 3 C 1.0007 1.1066 0.0 0
M  V30 4 C -2.6842 -0.0824 0.0 0
M  V30 5 C -1.2008 2.1309 0.0 0
M  V30 6 N 0.259 2.4252 0.0 0
M  V30 7 C -2.7195 -1.5658 0.0 0
M  V30 8 C -3.9793 0.6946 0.0 0
M  V30 9 C -2.3075 3.1551 0.0 0
M  V30 10 C -4.0381 -2.2839 0.0 0
M  V30 11 C -5.2978 -0.0235 0.0 0
M  V30 12 C -5.3332 -1.5069 0.0 0
M  V30 13 C -6.6517 -2.2251 0.0 0
M  V30 14 N -7.9468 -1.448 0.0 0
M  V30 15 C -9.2654 -2.1662 0.0 0
M  V30 16 O -9.3007 -3.6496 0.0 0
M  V30 17 C -10.5604 -1.3892 0.0 0 CFG=1
M  V30 18 N -10.7135 0.1059 0.0 0
M  V30 19 C -11.9496 -1.9661 0.0 0 CFG=2
M  V30 20 C -9.6068 1.1066 0.0 0
M  V30 21 C -12.1851 0.4473 0.0 0
M  V30 22 F -12.291 -3.4141 0.0 0
M  V30 23 C -12.9503 -0.8358 0.0 0 CFG=2
M  V30 24 O -8.2058 0.6357 0.0 0
M  V30 25 C -9.9129 2.59 0.0 0 CFG=1
M  V30 26 O -14.4455 -0.9653 0.0 0
M  V30 27 N -11.3374 3.0845 0.0 0
M  V30 28 C -8.8062 3.5907 0.0 0
M  V30 29 C -11.6435 4.5679 0.0 0
M  V30 30 C -9.8069 4.721 0.0 0
M  V30 31 C -7.829 2.4841 0.0 0
M  V30 32 C -7.6995 4.5915 0.0 0
M  V30 33 O -10.5369 5.5686 0.0 0
M  V30 34 C -13.0681 5.0624 0.0 0
M  V30 END ATOM
M  V30 BEGIN BOND
M  V30 1 1 1 2
M  V30 2 1 1 3
M  V30 3 1 2 4
M  V30 4 2 2 5
M  V30 5 2 3 6
M  V30 6 2 4 7
M  V30 7 1 4 8
M  V30 8 1 5 9
M  V30 9 1 7 10
M  V30 10 2 8 11
M  V30 11 2 10 12
M  V30 12 1 12 13
M  V30 13 1 13 14
M  V30 14 1 14 15
M  V30 15 2 15 16
M  V30 16 1 17 15 CFG=3
M  V30 17 1 17 18
M  V30 18 1 17 19
M  V30 19 1 18 20
M  V30 20 1 18 21
M  V30 21 1 19 22 CFG=3
M  V30 22 1 19 23
M  V30 23 2 20 24
M  V30 24 1 20 25
M  V30 25 1 23 26 CFG=1
M  V30 26 1 25 27 CFG=1
M  V30 27 1 25 28
M  V30 28 1 27 29
M  V30 29 1 28 30
M  V30 30 1 28 31
M  V30 31 1 28 32
M  V30 32 2 29 33
M  V30 33 1 29 34
M  V30 34 1 5 6
M  V30 35 1 11 12
M  V30 36 1 21 23
M  V30 END BOND
M  V30 BEGIN COLLECTION
M  V30 MDLV30/STEABS ATOMS=(4 17 19 23 25)
M  V30 END COLLECTION
M  V30 END CTAB
M  END
>  <Compound ID>
5

>  <Name>


>  <Uniprot>
P40337

>  <Target>
VHL

>  <Smiles>
CC(=O)N[C@H](C(=O)N1C[C@H](O)[C@@H](F)[C@H]1C(=O)NCC1=CC=C(C2=C(C)N=CS2)C=C1)C(C)(C)C

>  <Kd (nM)>
3080

>  <Assay (Kd)>
ITC

>  <Ki (nM)>


>  <Assay (Ki)>


>  <IC50 (nM)>


>  <Assay (IC50)>


>  <EC50 (nM)>


>  <Assay (EC50)>


>  <Article DOI>
10.1021/jacs.8b05807

>  <Molecular Weight>
490.601

>  <Exact Mass>
490.205004692

>  <XLogP3>
2.36

>  <Heavy Atom Count>
34

>  <Ring Count>
3

>  <Hydrogen Bond Acceptor Count>
6

>  <Hydrogen Bond Donor Count>
3

>  <Rotatable Bond Count>
6

>  <Topological Polar Surface Area>
111.63

>  <Molecular Formula>
C24H31FN4O4S

>  <InChI>
InChI=1S/C24H31FN4O4S/c1-13-20(34-12-27-13)16-8-6-15(7-9-16)10-26-22(32)19-18(25)17(31)11-29(19)23(33)21(24(3,4)5)28-14(2)30/h6-9,12,17-19,21,31H,10-11H2,1-5H3,(H,26,32)(H,28,30)/t17-,18+,19-,21+/m0/s1

>  <InChI Key>
MNNVXLLCYGGFOQ-YOUFYPILSA-N

>  <BindingDB>


>  <PubChem>
134686807

>  <ChEMBL>


$$$$
Compound 6
Actelion Java MolfileCreator 2.0

  0  0  0  0  0  0              0 V3000
M  V30 BEGIN CTAB
M  V30 COUNTS 20 22 0 0 0
M  V30 BEGIN ATOM
M  V30 1 O 0.0 0.0 0.0 0
M  V30 2 C -0.4362 1.4464 0.0 0
M  V30 3 N 0.5854 2.5484 0.0 0
M  V30 4 C -1.9056 1.8022 0.0 0
M  V30 5 N 0.1492 3.9949 0.0 0
M  V30 6 C 2.0318 2.2155 0.0 0 CFG=2
M  V30 7 C -2.3418 3.2487 0.0 0
M  V30 8 C -2.9502 0.7232 0.0 0
M  V30 9 N -1.3201 4.3507 0.0 0
M  V30 10 C 3.0535 3.3176 0.0 0
M  V30 11 C 2.4451 0.792 0.0 0
M  V30 12 C -3.8112 3.6045 0.0 0
M  V30 13 N -2.5369 -0.7002 0.0 0
M  V30 14 C -4.4196 1.079 0.0 0
M  V30 15 O 2.6173 4.764 0.0 0
M  V30 16 N 4.5 2.9846 0.0 0
M  V30 17 C 3.8915 0.4591 0.0 0
M  V30 18 C -4.8558 2.5255 0.0 0
M  V30 19 C 4.9132 1.5612 0.0 0
M  V30 20 O 6.3597 1.2283 0.0 0
M  V30 END ATOM
M  V30 BEGIN BOND
M  V30 1 2 1 2
M  V30 2 1 2 3
M  V30 3 1 2 4
M  V30 4 1 3 5
M  V30 5 1 6 3 CFG=3
M  V30 6 2 4 7
M  V30 7 1 4 8
M  V30 8 2 5 9
M  V30 9 1 6 10
M  V30 10 1 6 11
M  V30 11 1 7 12
M  V30 12 1 8 13
M  V30 13 2 8 14
M  V30 14 2 10 15
M  V30 15 1 10 16
M  V30 16 1 11 17
M  V30 17 2 12 18
M  V30 18 1 16 19
M  V30 19 2 19 20
M  V30 20 1 7 9
M  V30 21 1 14 18
M  V30 22 1 17 19
M  V30 END BOND
M  V30 BEGIN COLLECTION
M  V30 MDLV30/STERAC1 ATOMS=(1 6)
M  V30 END COLLECTION
M  V30 END CTAB
M  END
>  <Compound ID>
6

>  <Name>
TD-106

>  <Uniprot>
Q96SW2

>  <Target>
CRBN

>  <Smiles>
NC1=CC=CC2=C1C(=O)N(C1CCC(=O)NC1=O)N=N2

>  <Kd (nM)>


>  <Assay (Kd)>


>  <Ki (nM)>


>  <Assay (Ki)>


>  <IC50 (nM)>


>  <Assay (IC50)>


>  <EC50 (nM)>


>  <Assay (EC50)>


>  <Article DOI>
10.1016/j.ejmech.2019.01.023

>  <Molecular Weight>
273.252

>  <Exact Mass>
273.086189212

>  <XLogP3>
0.66

>  <Heavy Atom Count>
20

>  <Ring Count>
3

>  <Hydrogen Bond Acceptor Count>
7

>  <Hydrogen Bond Donor Count>
2

>  <Rotatable Bond Count>
1

>  <Topological Polar Surface Area>
119.97

>  <Molecular Formula>
C12H11N5O3

>  <InChI>
InChI=1S/C12H11N5O3/c13-6-2-1-3-7-10(6)12(20)17(16-15-7)8-4-5-9(18)14-11(8)19/h1-3,8H,4-5,13H2,(H,14,18,19)

>  <InChI Key>
DXZBHVQOULDEPN-UHFFFAOYSA-N

>  <BindingDB>


>  <PubChem>
137628679

>  <ChEMBL>


$$$$
Compound 7
Actelion Java MolfileCreator 2.0

  0  0  0  0  0  0              0 V3000
M  V30 BEGIN CTAB
M  V30 COUNTS 44 47 0 0 0
M  V30 BEGIN ATOM
M  V30 1 S 0.0 0.0 0.0 0
M  V30 2 C 0.672 1.344 0.0 0
M  V30 3 C -1.4973 0.2475 0.0 0
M  V30 4 C 2.1457 1.5916 0.0 0
M  V30 5 C -0.4008 2.4169 0.0 0
M  V30 6 N -1.7448 1.7448 0.0 0
M  V30 7 C 3.0771 0.4362 0.0 0
M  V30 8 C 2.6762 3.0063 0.0 0
M  V30 9 C -0.1768 3.9142 0.0 0
M  V30 10 C 4.5508 0.6838 0.0 0
M  V30 11 C 4.15 3.2539 0.0 0
M  V30 12 C 5.0813 2.0985 0.0 0
M  V30 13 C 6.5551 2.3461 0.0 0
M  V30 14 N 7.0856 3.7609 0.0 0
M  V30 15 C 8.5593 4.0085 0.0 0
M  V30 16 O 9.4907 2.8531 0.0 0
M  V30 17 C 9.0899 5.4232 0.0 0 CFG=1
M  V30 18 N 10.5282 5.8241 0.0 0
M  V30 19 C 8.2646 6.6965 0.0 0
M  V30 20 C 11.6836 4.8927 0.0 0
M  V30 21 C 10.599 7.3332 0.0 0
M  V30 22 C 9.196 7.8755 0.0 0 CFG=2
M  V30 23 O 11.436 3.419 0.0 0
M  V30 24 C 13.0748 5.435 0.0 0 CFG=1
M  V30 25 O 8.7951 9.3375 0.0 0
M  V30 26 N 14.2302 4.5036 0.0 0
M  V30 27 C 13.2988 6.9323 0.0 0
M  V30 28 C 13.9826 3.0299 0.0 0
M  V30 29 C 11.8015 7.1799 0.0 0
M  V30 30 C 14.7725 6.7083 0.0 0
M  V30 31 C 13.5228 8.4296 0.0 0
M  V30 32 O 12.5679 2.5112 0.0 0
M  V30 33 C 15.138 2.0985 0.0 0 CFG=1
M  V30 34 N 16.5292 2.6409 0.0 0
M  V30 35 C 14.8904 0.6248 0.0 0
M  V30 36 C 16.7532 4.1382 0.0 0
M  V30 37 C 16.0458 -0.3065 0.0 0
M  V30 38 O 15.5743 5.0931 0.0 0
M  V30 39 C 18.1444 4.6805 0.0 0
M  V30 40 C 15.7983 -1.7802 0.0 0
M  V30 41 C 17.437 0.2357 0.0 0
M  V30 42 C 16.9537 -2.7116 0.0 0
M  V30 43 C 18.5924 -0.6955 0.0 0
M  V30 44 C 18.3448 -2.1693 0.0 0
M  V30 END ATOM
M  V30 BEGIN BOND
M  V30 1 1 1 2
M  V30 2 1 1 3
M  V30 3 1 2 4
M  V30 4 2 2 5
M  V30 5 2 3 6
M  V30 6 2 4 7
M  V30 7 1 4 8
M  V30 8 1 5 9
M  V30 9 1 7 10
M  V30 10 2 8 11
M  V30 11 2 10 12
M  V30 12 1 12 13
M  V30 13 1 13 14
M  V30 14 1 14 15
M  V30 15 2 15 16
M  V30 16 1 17 15 CFG=3
M  V30 17 1 17 18
M  V30 18 1 17 19
M  V30 19 1 18 20
M  V30 20 1 18 21
M  V30 21 1 19 22
M  V30 22 2 20 23
M  V30 23 1 20 24
M  V30 24 1 22 25 CFG=1
M  V30 25 1 24 26 CFG=3
M  V30 26 1 24 27
M  V30 27 1 26 28
M  V30 28 1 27 29
M  V30 29 1 27 30
M  V30 30 1 27 31
M  V30 31 2 28 32
M  V30 32 1 28 33
M  V30 33 1 33 34 CFG=1
M  V30 34 1 33 35
M  V30 35 1 34 36
M  V30 36 1 35 37
M  V30 37 2 36 38
M  V30 38 1 36 39
M  V30 39 2 37 40
M  V30 40 1 37 41
M  V30 41 1 40 42
M  V30 42 2 41 43
M  V30 43 2 42 44
M  V30 44 1 5 6
M  V30 45 1 11 12
M  V30 46 1 21 22
M  V30 47 1 43 44
M  V30 END BOND
M  V30 BEGIN COLLECTION
M  V30 MDLV30/STEABS ATOMS=(4 17 22 24 33)
M  V30 END COLLECTION
M  V30 END CTAB
M  END
>  <Compound ID>
7

>  <Name>


>  <Uniprot>
P40337

>  <Target>
VHL

>  <Smiles>
CC(=O)N[C@@H](CC1=CC=CC=C1)C(=O)N[C@H](C(=O)N1C[C@H](O)C[C@H]1C(=O)NCC1=CC=C(C2=C(C)N=CS2)C=C1)C(C)(C)C

>  <Kd (nM)>
291

>  <Assay (Kd)>
ITC

>  <Ki (nM)>


>  <Assay (Ki)>


>  <IC50 (nM)>


>  <Assay (IC50)>


>  <EC50 (nM)>


>  <Assay (EC50)>


>  <Article DOI>
10.1021/jm5011258

>  <Molecular Weight>
619.788

>  <Exact Mass>
619.282840412

>  <XLogP3>
3.65

>  <Heavy Atom Count>
44

>  <Ring Count>
4

>  <Hydrogen Bond Acceptor Count>
7

>  <Hydrogen Bond Donor Count>
4

>  <Rotatable Bond Count>
10

>  <Topological Polar Surface Area>
140.73

>  <Molecular Formula>
C33H41N5O5S

>  <InChI>
InChI=1S/C33H41N5O5S/c1-20-28(44-19-35-20)24-13-11-23(12-14-24)17-34-31(42)27-16-25(40)18-38(27)32(43)29(33(3,4)5)37-30(41)26(36-21(2)39)15-22-9-7-6-8-10-22/h6-14,19,25-27,29,40H,15-18H2,1-5H3,(H,34,42)(H,36,39)(H,37,41)/t25-,26+,27+,29-/m1/s1

>  <InChI Key>
ALYDGEQICGMVIP-UYIZUTNXSA-N

>  <BindingDB>
50099055

>  <PubChem>
77232231

>  <ChEMBL>
CHEMBL3344088

$$$$
Compound 8
Actelion Java MolfileCreator 2.0

  0  0  0  0  0  0              0 V3000
M  V30 BEGIN CTAB
M  V30 COUNTS 24 26 0 0 0
M  V30 BEGIN ATOM
M  V30 1 Cl 0.0 0.0 0.0 0
M  V30 2 C -1.3181 0.7349 0.0 0
M  V30 3 C -2.683 0.1166 0.0 0
M  V30 4 C -1.5048 2.228 0.0 0
M  V30 5 C -3.7095 1.2248 0.0 0
M  V30 6 C -3.1379 -1.2948 0.0 0
M  V30 7 N -2.9746 2.5313 0.0 0
M  V30 8 C -5.1793 0.9098 0.0 0
M  V30 9 C -4.6077 -1.6098 0.0 0
M  V30 10 N -6.2059 2.018 0.0 0
M  V30 11 C -5.6343 -0.5016 0.0 0
M  V30 12 S -7.6757 1.7031 0.0 0
M  V30 13 O -7.3607 0.2566 0.0 0
M  V30 14 O -8.014 3.1729 0.0 0
M  V30 15 C -9.1455 1.3881 0.0 0
M  V30 16 C -10.1721 2.4963 0.0 0
M  V30 17 C -9.6005 -0.0233 0.0 0
M  V30 18 C -11.6419 2.1814 0.0 0
M  V30 19 C -11.0703 -0.3382 0.0 0
M  V30 20 C -12.0969 0.7699 0.0 0
M  V30 21 S -13.5667 0.4549 0.0 0
M  V30 22 O -13.905 1.9247 0.0 0
M  V30 23 O -13.2517 -0.9915 0.0 0
M  V30 24 N -15.0365 0.1399 0.0 0
M  V30 END ATOM
M  V30 BEGIN BOND
M  V30 1 1 1 2
M  V30 2 1 2 3
M  V30 3 2 2 4
M  V30 4 2 3 5
M  V30 5 1 3 6
M  V30 6 1 4 7
M  V30 7 1 5 8
M  V30 8 2 6 9
M  V30 9 1 8 10
M  V30 10 2 8 11
M  V30 11 1 10 12
M  V30 12 2 12 13
M  V30 13 2 12 14
M  V30 14 1 12 15
M  V30 15 2 15 16
M  V30 16 1 15 17
M  V30 17 1 16 18
M  V30 18 2 17 19
M  V30 19 2 18 20
M  V30 20 1 20 21
M  V30 21 2 21 22
M  V30 22 2 21 23
M  V30 23 1 21 24
M  V30 24 1 5 7
M  V30 25 1 9 11
M  V30 26 1 19 20
M  V30 END BOND
M  V30 END CTAB
M  END
>  <Compound ID>
8

>  <Name>


>  <Uniprot>
Q66K64

>  <Target>
DCAF15

>  <Smiles>
NS(=O)(=O)C1=CC=C(S(=O)(=O)NC2=CC=CC3=C2[NH]C=C3Cl)C=C1

>  <Kd (nM)>


>  <Assay (Kd)>


>  <Ki (nM)>


>  <Assay (Ki)>


>  <IC50 (nM)>


>  <Assay (IC50)>


>  <EC50 (nM)>


>  <Assay (EC50)>


>  <Article DOI>
10.1126/science.aal3755

>  <Molecular Weight>
385.854

>  <Exact Mass>
384.995775544

>  <XLogP3>
1.76

>  <Heavy Atom Count>
24

>  <Ring Count>
3

>  <Hydrogen Bond Acceptor Count>
4

>  <Hydrogen Bond Donor Count>
3

>  <Rotatable Bond Count>
4

>  <Topological Polar Surface Area>
122.12

>  <Molecular Formula>
C14H12ClN3O4S2

>  <InChI>
InChI=1S/C14H12ClN3O4S2/c15-12-8-17-14-11(12)2-1-3-13(14)18-24(21,22)10-6-4-9(5-7-10)23(16,19)20/h1-8,17-18H,(H2,16,19,20)

>  <InChI Key>
SETFNECMODOHTO-UHFFFAOYSA-N

>  <BindingDB>
10890

>  <PubChem>
216468

>  <ChEMBL>
CHEMBL77517

$$$$
Compound 9
Actelion Java MolfileCreator 2.0

  0  0  0  0  0  0              0 V3000
M  V30 BEGIN CTAB
M  V30 COUNTS 40 44 0 0 0
M  V30 BEGIN ATOM
M  V30 1 Cl 0.0 0.0 0.0 0
M  V30 2 C 1.2972 0.7547 0.0 0
M  V30 3 C 1.2972 2.2642 0.0 0
M  V30 4 C 2.5708 0.0117 0.0 0
M  V30 5 C 2.5944 3.0189 0.0 0
M  V30 6 C 3.868 0.7665 0.0 0
M  V30 7 C 3.868 2.276 0.0 0
M  V30 8 C 5.1652 3.0307 0.0 0
M  V30 9 N 6.5214 2.4175 0.0 0
M  V30 10 C 5.3185 4.5284 0.0 0
M  V30 11 C 7.5238 3.5378 0.0 0
M  V30 12 N 6.769 4.835 0.0 0
M  V30 13 C 4.1982 5.5544 0.0 0
M  V30 14 C 8.9979 3.3845 0.0 0
M  V30 15 C 7.3823 6.2148 0.0 0
M  V30 16 C 4.5166 7.0285 0.0 0
M  V30 17 C 2.7595 5.118 0.0 0
M  V30 18 C 9.8823 4.5991 0.0 0
M  V30 19 C 9.5875 2.0283 0.0 0
M  V30 20 O 8.7856 6.7219 0.0 0
M  V30 21 N 6.4978 7.4412 0.0 0
M  V30 22 C 3.3963 8.0544 0.0 0
M  V30 23 C 1.6392 6.144 0.0 0
M  V30 24 O 9.2691 5.9789 0.0 0
M  V30 25 C 11.3564 4.4458 0.0 0
M  V30 26 C 11.0616 1.875 0.0 0
M  V30 27 C 7.111 8.821 0.0 0
M  V30 28 C 5.0001 7.3115 0.0 0
M  V30 29 C 1.9576 7.6181 0.0 0
M  V30 30 C 10.1536 7.1936 0.0 0
M  V30 31 C 11.9461 3.0897 0.0 0
M  V30 32 C 6.2266 10.0474 0.0 0
M  V30 33 C 4.1156 8.538 0.0 0
M  V30 34 Cl 0.8372 8.6441 0.0 0
M  V30 35 C 9.5403 8.5733 0.0 0
M  V30 36 C 11.6277 7.0403 0.0 0
M  V30 37 O 13.4202 2.9364 0.0 0
M  V30 38 O 6.8398 11.4272 0.0 0
M  V30 39 N 4.7289 9.9177 0.0 0
M  V30 40 C 14.0098 1.5802 0.0 0
M  V30 END ATOM
M  V30 BEGIN BOND
M  V30 1 1 1 2
M  V30 2 2 2 3
M  V30 3 1 2 4
M  V30 4 1 3 5
M  V30 5 2 4 6
M  V30 6 2 5 7
M  V30 7 1 7 8
M  V30 8 1 8 9
M  V30 9 1 8 10
M  V30 10 2 9 11
M  V30 11 1 10 12
M  V30 12 1 10 13
M  V30 13 1 11 14
M  V30 14 1 12 15
M  V30 15 2 13 16
M  V30 16 1 13 17
M  V30 17 2 14 18
M  V30 18 1 14 19
M  V30 19 2 15 20
M  V30 20 1 15 21
M  V30 21 1 16 22
M  V30 22 2 17 23
M  V30 23 1 18 24
M  V30 24 1 18 25
M  V30 25 2 19 26
M  V30 26 1 21 27
M  V30 27 1 21 28
M  V30 28 2 22 29
M  V30 29 1 24 30
M  V30 30 2 25 31
M  V30 31 1 27 32
M  V30 32 1 28 33
M  V30 33 1 29 34
M  V30 34 1 30 35
M  V30 35 1 30 36
M  V30 36 1 31 37
M  V30 37 2 32 38
M  V30 38 1 32 39
M  V30 39 1 37 40
M  V30 40 1 6 7
M  V30 41 1 11 12
M  V30 42 1 23 29
M  V30 43 1 26 31
M  V30 44 1 33 39
M  V30 END BOND
M  V30 END CTAB
M  END
>  <Compound ID>
9

>  <Name>
Nutlin-3

>  <Uniprot>
Q00987

>  <Target>
MDM2

>  <Smiles>
COC1=CC=C(C2=NC(C3=CC=C(Cl)C=C3)C(C3=CC=C(Cl)C=C3)N2C(=O)N2CCNC(=O)C2)C(OC(C)C)=C1

>  <Kd (nM)>
700

>  <Assay (Kd)>
ITC

>  <Ki (nM)>


>  <Assay (Ki)>


>  <IC50 (nM)>


>  <Assay (IC50)>


>  <EC50 (nM)>


>  <Assay (EC50)>


>  <Article DOI>
10.1021/jm8002813

>  <Molecular Weight>
581.5

>  <Exact Mass>
580.1644108

>  <XLogP3>
5.2

>  <Heavy Atom Count>
40

>  <Ring Count>
5

>  <Hydrogen Bond Acceptor Count>
5

>  <Hydrogen Bond Donor Count>
1

>  <Rotatable Bond Count>
6

>  <Topological Polar Surface Area>
83.47

>  <Molecular Formula>
C30H30Cl2N4O4

>  <InChI>
InChI=1S/C30H30Cl2N4O4/c1-18(2)40-25-16-23(39-3)12-13-24(25)29-34-27(19-4-8-21(31)9-5-19)28(20-6-10-22(32)11-7-20)36(29)30(38)35-15-14-33-26(37)17-35/h4-13,16,18,27-28H,14-15,17H2,1-3H3,(H,33,37)

>  <InChI Key>
BDUHCSBCVGXTJM-UHFFFAOYSA-N

>  <BindingDB>
50229787

>  <PubChem>
216345

>  <ChEMBL>
CHEMBL211045

$$$$
Compound 10
Actelion Java MolfileCreator 2.0

  0  0  0  0  0  0              0 V3000
M  V30 BEGIN CTAB
M  V30 COUNTS 42 45 0 0 0
M  V30 BEGIN ATOM
M  V30 1 Cl 0.0 0.0 0.0 0
M  V30 2 C 1.4433 0.414 0.0 0
M  V30 3 C 1.8101 1.8811 0.0 0
M  V30 4 C 2.5081 -0.627 0.0 0
M  V30 5 F 0.7216 2.7211 0.0 0
M  V30 6 C 3.2535 2.2951 0.0 0
M  V30 7 C 3.9515 -0.2129 0.0 0
M  V30 8 C 4.3182 1.254 0.0 0
M  V30 9 C 3.6202 3.7622 0.0 0 CFG=2
M  V30 10 C 5.0044 4.3182 0.0 0 CFG=1
M  V30 11 C 2.6501 4.9334 0.0 0 CFG=1
M  V30 12 C 5.3949 2.8749 0.0 0
M  V30 13 C 6.4833 4.5785 0.0 0
M  V30 14 C 4.898 5.8326 0.0 0 CFG=1
M  V30 15 N 3.4546 6.2112 0.0 0
M  V30 16 C 1.1357 4.8506 0.0 0
M  V30 17 N 5.7853 1.4315 0.0 0
M  V30 18 C 7.4298 3.4309 0.0 0
M  V30 19 C 7.0039 5.9982 0.0 0
M  V30 20 C 6.0456 6.8027 0.0 0
M  V30 21 O 0.3785 3.7385 0.0 0
M  V30 22 N 0.2957 6.1165 0.0 0
M  V30 23 F 6.8855 2.0349 0.0 0
M  V30 24 C 8.9086 3.6912 0.0 0
M  V30 25 C 8.4827 6.2585 0.0 0
M  V30 26 C 5.7853 8.3053 0.0 0
M  V30 27 C -1.2185 6.0337 0.0 0
M  V30 28 C 9.4292 5.1109 0.0 0
M  V30 29 C 7.2641 8.5655 0.0 0
M  V30 30 C 4.2827 8.0686 0.0 0
M  V30 31 C 5.525 9.8078 0.0 0
M  V30 32 C -1.9047 4.6968 0.0 0
M  V30 33 C -2.0585 7.2996 0.0 0
M  V30 34 Cl 10.9081 5.3712 0.0 0
M  V30 35 O -1.0884 3.4546 0.0 0
M  V30 36 C -3.4191 4.614 0.0 0
M  V30 37 C -3.5729 7.2168 0.0 0
M  V30 38 C -1.7746 2.1177 0.0 0
M  V30 39 C -4.2591 5.8799 0.0 0
M  V30 40 C -5.7734 5.7971 0.0 0
M  V30 41 O -6.4596 4.4602 0.0 0
M  V30 42 O -6.6134 7.063 0.0 0
M  V30 END ATOM
M  V30 BEGIN BOND
M  V30 1 1 1 2
M  V30 2 2 2 3
M  V30 3 1 2 4
M  V30 4 1 3 5
M  V30 5 1 3 6
M  V30 6 2 4 7
M  V30 7 2 6 8
M  V30 8 1 9 6 CFG=1
M  V30 9 1 9 10
M  V30 10 1 9 11
M  V30 11 1 10 12 CFG=1
M  V30 12 1 10 13
M  V30 13 1 10 14
M  V30 14 1 11 15
M  V30 15 1 11 16 CFG=3
M  V30 16 3 12 17
M  V30 17 2 13 18
M  V30 18 1 13 19
M  V30 19 1 14 20 CFG=1
M  V30 20 2 16 21
M  V30 21 1 16 22
M  V30 22 1 18 23
M  V30 23 1 18 24
M  V30 24 2 19 25
M  V30 25 1 20 26
M  V30 26 1 22 27
M  V30 27 2 24 28
M  V30 28 1 26 29
M  V30 29 1 26 30
M  V30 30 1 26 31
M  V30 31 2 27 32
M  V30 32 1 27 33
M  V30 33 1 28 34
M  V30 34 1 32 35
M  V30 35 1 32 36
M  V30 36 2 33 37
M  V30 37 1 35 38
M  V30 38 2 36 39
M  V30 39 1 39 40
M  V30 40 2 40 41
M  V30 41 1 40 42
M  V30 42 1 7 8
M  V30 43 1 14 15
M  V30 44 1 25 28
M  V30 45 1 37 39
M  V30 END BOND
M  V30 BEGIN COLLECTION
M  V30 MDLV30/STEABS ATOMS=(4 9 10 11 14)
M  V30 END COLLECTION
M  V30 END CTAB
M  END
>  <Compound ID>
10

>  <Name>
RG7388

>  <Uniprot>
Q00987

>  <Target>
MDM2

>  <Smiles>
COC1=CC(C(=O)O)=CC=C1NC(=O)[C@@H]1N[C@@H](CC(C)(C)C)[C@](C#N)(C2=CC=C(Cl)C=C2F)[C@H]1C1=CC=CC(Cl)=C1F

>  <Kd (nM)>


>  <Assay (Kd)>


>  <Ki (nM)>


>  <Assay (Ki)>


>  <IC50 (nM)>
6

>  <Assay (IC50)>
Inhibition of interaction between MDM2 and p53 by HTRF assay

>  <EC50 (nM)>


>  <Assay (EC50)>


>  <Article DOI>
10.1021/jm400487c

>  <Molecular Weight>
616.492

>  <Exact Mass>
615.150318208

>  <XLogP3>
4.29

>  <Heavy Atom Count>
42

>  <Ring Count>
4

>  <Hydrogen Bond Acceptor Count>
5

>  <Hydrogen Bond Donor Count>
3

>  <Rotatable Bond Count>
7

>  <Topological Polar Surface Area>
111.45

>  <Molecular Formula>
C31H29Cl2F2N3O4

>  <InChI>
InChI=1S/C31H29Cl2F2N3O4/c1-30(2,3)14-24-31(15-36,19-10-9-17(32)13-21(19)34)25(18-6-5-7-20(33)26(18)35)27(38-24)28(39)37-22-11-8-16(29(40)41)12-23(22)42-4/h5-13,24-25,27,38H,14H2,1-4H3,(H,37,39)(H,40,41)/t24-,25-,27+,31-/m0/s1

>  <InChI Key>
TVTXCJFHQKSQQM-LJQIRTBHSA-N

>  <BindingDB>
50437206

>  <PubChem>
53358942

>  <ChEMBL>
CHEMBL2402737

$$$$
Compound 11
Actelion Java MolfileCreator 2.0

  0  0  0  0  0  0              0 V3000
M  V30 BEGIN CTAB
M  V30 COUNTS 49 53 0 0 0
M  V30 BEGIN ATOM
M  V30 1 Cl 0.0 0.0 0.0 0
M  V30 2 C -1.3706 0.6498 0.0 0
M  V30 3 C -1.5124 2.1623 0.0 0
M  V30 4 C -2.6113 -0.2008 0.0 0
M  V30 5 C -2.8831 2.8122 0.0 0
M  V30 6 C -3.982 0.449 0.0 0
M  V30 7 C -4.1238 1.9614 0.0 0
M  V30 8 C -5.4945 2.6113 0.0 0 CFG=2
M  V30 9 N -6.6998 3.5212 0.0 0
M  V30 10 C -5.9908 1.2052 0.0 0 CFG=2
M  V30 11 C -4.7383 3.9111 0.0 0
M  V30 12 C -7.9405 2.6704 0.0 0
M  V30 13 N -7.5033 1.2407 0.0 0
M  V30 14 C -6.1798 -0.2717 0.0 0
M  V30 15 C -4.7973 0.6026 0.0 0
M  V30 16 C -9.3702 3.1667 0.0 0
M  V30 17 C -8.4131 0.059 0.0 0
M  V30 18 C -7.5742 -0.8507 0.0 0
M  V30 19 C -4.9982 -1.1579 0.0 0
M  V30 20 C -10.5164 2.1978 0.0 0
M  V30 21 C -9.6656 4.6555 0.0 0
M  V30 22 O -8.1886 -1.4061 0.0 0
M  V30 23 N -9.9138 0.2481 0.0 0
M  V30 24 C -7.7632 -2.3277 0.0 0
M  V30 25 C -5.1873 -2.635 0.0 0
M  V30 26 O -10.2446 0.7326 0.0 0
M  V30 27 C -11.9462 2.6941 0.0 0
M  V30 28 C -11.0954 5.1518 0.0 0
M  V30 29 C -10.5164 1.6424 0.0 0
M  V30 30 C -10.8236 -0.9334 0.0 0
M  V30 31 C -6.5816 -3.214 0.0 0
M  V30 32 C -11.3908 -0.2363 0.0 0
M  V30 33 C -12.2416 4.1829 0.0 0
M  V30 34 C -12.0171 1.8315 0.0 0
M  V30 35 C -12.3243 -0.7444 0.0 0
M  V30 36 Cl -6.7707 -4.691 0.0 0
M  V30 37 C -11.119 -1.7015 0.0 0
M  V30 38 C -13.6713 4.6792 0.0 0
M  V30 39 N -12.9269 0.6498 0.0 0
M  V30 40 C -13.1987 6.1089 0.0 0
M  V30 41 C -14.1676 3.273 0.0 0
M  V30 42 C -15.1011 5.1755 0.0 0
M  V30 43 C -14.4276 0.8389 0.0 0
M  V30 44 C -15.3374 -0.3426 0.0 0
M  V30 45 C -16.8381 -0.1536 0.0 0
M  V30 46 S -17.7479 -1.3352 0.0 0
M  V30 47 O -16.5663 -2.2214 0.0 0
M  V30 48 O -18.9532 -0.4253 0.0 0
M  V30 49 C -18.6578 -2.5168 0.0 0
M  V30 END ATOM
M  V30 BEGIN BOND
M  V30 1 1 1 2
M  V30 2 2 2 3
M  V30 3 1 2 4
M  V30 4 1 3 5
M  V30 5 2 4 6
M  V30 6 2 5 7
M  V30 7 1 7 8
M  V30 8 1 8 9
M  V30 9 1 8 10
M  V30 10 1 8 11 CFG=3
M  V30 11 2 9 12
M  V30 12 1 10 13
M  V30 13 1 10 14
M  V30 14 1 10 15 CFG=3
M  V30 15 1 12 16
M  V30 16 1 13 17
M  V30 17 2 14 18
M  V30 18 1 14 19
M  V30 19 2 16 20
M  V30 20 1 16 21
M  V30 21 2 17 22
M  V30 22 1 17 23
M  V30 23 1 18 24
M  V30 24 2 19 25
M  V30 25 1 20 26
M  V30 26 1 20 27
M  V30 27 2 21 28
M  V30 28 1 23 29
M  V30 29 1 23 30
M  V30 30 2 24 31
M  V30 31 1 26 32
M  V30 32 2 27 33
M  V30 33 1 29 34
M  V30 34 1 30 35
M  V30 35 1 31 36
M  V30 36 1 32 37
M  V30 37 1 33 38
M  V30 38 1 34 39
M  V30 39 1 38 40
M  V30 40 1 38 41
M  V30 41 1 38 42
M  V30 42 1 39 43
M  V30 43 1 43 44
M  V30 44 1 44 45
M  V30 45 1 45 46
M  V30 46 2 46 47
M  V30 47 2 46 48
M  V30 48 1 46 49
M  V30 49 1 6 7
M  V30 50 1 12 13
M  V30 51 1 25 31
M  V30 52 1 28 33
M  V30 53 1 35 39
M  V30 END BOND
M  V30 BEGIN COLLECTION
M  V30 MDLV30/STEABS ATOMS=(2 8 10)
M  V30 END COLLECTION
M  V30 END CTAB
M  END
>  <Compound ID>
11

>  <Name>
RG7112

>  <Uniprot>
Q00987

>  <Target>
MDM2

>  <Smiles>
CCOC1=CC(C(C)(C)C)=CC=C1C1=N[C@@](C)(C2=CC=C(Cl)C=C2)[C@@](C)(C2=CC=C(Cl)C=C2)N1C(=O)N1CCN(CCCS(C)(=O)=O)CC1

>  <Kd (nM)>
2.9

>  <Assay (Kd)>
SPR

>  <Ki (nM)>


>  <Assay (Ki)>


>  <IC50 (nM)>


>  <Assay (IC50)>


>  <EC50 (nM)>


>  <Assay (EC50)>


>  <Article DOI>
10.1021/jm401753e

>  <Molecular Weight>
727.799

>  <Exact Mass>
726.277332376

>  <XLogP3>
7.27

>  <Heavy Atom Count>
49

>  <Ring Count>
5

>  <Hydrogen Bond Acceptor Count>
6

>  <Hydrogen Bond Donor Count>
0

>  <Rotatable Bond Count>
9

>  <Topological Polar Surface Area>
82.52

>  <Molecular Formula>
C38H48Cl2N4O4S

>  <InChI>
InChI=1S/C38H48Cl2N4O4S/c1-8-48-33-26-29(36(2,3)4)14-19-32(33)34-41-37(5,27-10-15-30(39)16-11-27)38(6,28-12-17-31(40)18-13-28)44(34)35(45)43-23-21-42(22-24-43)20-9-25-49(7,46)47/h10-19,26H,8-9,20-25H2,1-7H3/t37-,38+/m0/s1

>  <InChI Key>
QBGKPEROWUKSBK-QPPIDDCLSA-N

>  <BindingDB>
50434287

>  <PubChem>
57406853

>  <ChEMBL>
CHEMBL2386346

$$$$
Compound 12
Actelion Java MolfileCreator 2.0

  0  0  0  0  0  0              0 V3000
M  V30 BEGIN CTAB
M  V30 COUNTS 33 35 0 0 0
M  V30 BEGIN ATOM
M  V30 1 S 0.0 0.0 0.0 0
M  V30 2 C -1.3997 0.5645 0.0 0
M  V30 3 C 0.9409 1.1644 0.0 0
M  V30 4 C -2.67 -0.2234 0.0 0
M  V30 5 C -1.3173 2.0701 0.0 0
M  V30 6 N 0.1293 2.4348 0.0 0
M  V30 7 C -2.623 -1.7055 0.0 0
M  V30 8 C -3.9992 0.4822 0.0 0
M  V30 9 C -2.4818 3.0347 0.0 0
M  V30 10 C -3.8933 -2.4936 0.0 0
M  V30 11 C -5.2695 -0.3058 0.0 0
M  V30 12 C -5.2225 -1.7878 0.0 0
M  V30 13 C -6.4928 -2.5759 0.0 0
M  V30 14 N -7.822 -1.8702 0.0 0
M  V30 15 C -9.0923 -2.6583 0.0 0
M  V30 16 O -9.0453 -4.1403 0.0 0
M  V30 17 C -10.4215 -1.9525 0.0 0 CFG=1
M  V30 18 N -10.645 -0.4587 0.0 0
M  V30 19 C -11.7742 -2.5995 0.0 0
M  V30 20 C -9.5864 0.5998 0.0 0
M  V30 21 C -12.1271 -0.1881 0.0 0
M  V30 22 C -12.8328 -1.5173 0.0 0 CFG=2
M  V30 23 O -8.1631 0.1999 0.0 0
M  V30 24 C -9.9628 2.0584 0.0 0 CFG=1
M  V30 25 O -14.3267 -1.7173 0.0 0
M  V30 26 N -11.4096 2.4818 0.0 0
M  V30 27 C -8.9041 3.117 0.0 0
M  V30 28 C -11.786 3.9404 0.0 0
M  V30 29 C -9.9628 4.1992 0.0 0
M  V30 30 C -7.8691 2.0584 0.0 0
M  V30 31 C -7.8455 4.1756 0.0 0
M  V30 32 O -10.7273 4.999 0.0 0
M  V30 33 C -13.2327 4.3638 0.0 0
M  V30 END ATOM
M  V30 BEGIN BOND
M  V30 1 1 1 2
M  V30 2 1 1 3
M  V30 3 1 2 4
M  V30 4 2 2 5
M  V30 5 2 3 6
M  V30 6 2 4 7
M  V30 7 1 4 8
M  V30 8 1 5 9
M  V30 9 1 7 10
M  V30 10 2 8 11
M  V30 11 2 10 12
M  V30 12 1 12 13
M  V30 13 1 13 14
M  V30 14 1 14 15
M  V30 15 2 15 16
M  V30 16 1 17 15 CFG=3
M  V30 17 1 17 18
M  V30 18 1 17 19
M  V30 19 1 18 20
M  V30 20 1 18 21
M  V30 21 1 19 22
M  V30 22 2 20 23
M  V30 23 1 20 24
M  V30 24 1 22 25 CFG=1
M  V30 25 1 24 26 CFG=1
M  V30 26 1 24 27
M  V30 27 1 26 28
M  V30 28 1 27 29
M  V30 29 1 27 30
M  V30 30 1 27 31
M  V30 31 2 28 32
M  V30 32 1 28 33
M  V30 33 1 5 6
M  V30 34 1 11 12
M  V30 35 1 21 22
M  V30 END BOND
M  V30 BEGIN COLLECTION
M  V30 MDLV30/STEABS ATOMS=(3 17 22 24)
M  V30 END COLLECTION
M  V30 END CTAB
M  END
>  <Compound ID>
12

>  <Name>
VH032

>  <Uniprot>
P40337

>  <Target>
VHL

>  <Smiles>
CC(=O)N[C@H](C(=O)N1C[C@H](O)C[C@H]1C(=O)NCC1=CC=C(C2=C(C)N=CS2)C=C1)C(C)(C)C

>  <Kd (nM)>
185/150

>  <Assay (Kd)>
ITC/FP

>  <Ki (nM)>


>  <Assay (Ki)>


>  <IC50 (nM)>


>  <Assay (IC50)>


>  <EC50 (nM)>


>  <Assay (EC50)>


>  <Article DOI>
10.1038/ncomms13312

>  <Molecular Weight>
472.611

>  <Exact Mass>
472.214426504

>  <XLogP3>
2.31

>  <Heavy Atom Count>
33

>  <Ring Count>
3

>  <Hydrogen Bond Acceptor Count>
6

>  <Hydrogen Bond Donor Count>
3

>  <Rotatable Bond Count>
6

>  <Topological Polar Surface Area>
111.63

>  <Molecular Formula>
C24H32N4O4S

>  <InChI>
InChI=1S/C24H32N4O4S/c1-14-20(33-13-26-14)17-8-6-16(7-9-17)11-25-22(31)19-10-18(30)12-28(19)23(32)21(24(3,4)5)27-15(2)29/h6-9,13,18-19,21,30H,10-12H2,1-5H3,(H,25,31)(H,27,29)/t18-,19+,21-/m1/s1

>  <InChI Key>
GFVIEZBZIUKYOG-SVFBPWRDSA-N

>  <BindingDB>
50099062

>  <PubChem>
77232228

>  <ChEMBL>
CHEMBL3344081

$$$$
Compound 13
Actelion Java MolfileCreator 2.0

  0  0  0  0  0  0              0 V3000
M  V30 BEGIN CTAB
M  V30 COUNTS 37 40 0 0 0
M  V30 BEGIN ATOM
M  V30 1 S 0.0 0.0 0.0 0
M  V30 2 C 1.4567 -0.3316 0.0 0
M  V30 3 C -0.7935 -1.2791 0.0 0
M  V30 4 C 2.5819 0.6632 0.0 0
M  V30 5 C 1.5752 -1.8239 0.0 0
M  V30 6 N 0.1776 -2.4042 0.0 0
M  V30 7 C 3.9913 0.1776 0.0 0
M  V30 8 C 2.2858 2.1555 0.0 0
M  V30 9 C 2.8543 -2.5937 0.0 0
M  V30 10 C 5.1165 1.1725 0.0 0
M  V30 11 C 3.411 3.1504 0.0 0
M  V30 12 C 4.8204 2.6648 0.0 0
M  V30 13 C 5.9455 3.6597 0.0 0
M  V30 14 N 7.3549 3.1741 0.0 0
M  V30 15 C 8.4801 4.169 0.0 0
M  V30 16 O 8.184 5.6613 0.0 0
M  V30 17 C 9.8895 3.6834 0.0 0 CFG=1
M  V30 18 N 10.3159 2.2503 0.0 0
M  V30 19 C 11.1094 4.548 0.0 0
M  V30 20 C 9.3921 1.0659 0.0 0
M  V30 21 C 11.8082 2.2266 0.0 0
M  V30 22 C 12.2938 3.6478 0.0 0 CFG=2
M  V30 23 O 7.8879 1.2672 0.0 0
M  V30 24 C 9.9606 -0.3079 0.0 0 CFG=1
M  V30 25 O 13.7269 4.0979 0.0 0
M  V30 26 N 11.4411 -0.4855 0.0 0
M  V30 27 C 9.0368 -1.4923 0.0 0
M  V30 28 C 12.0096 -1.8594 0.0 0
M  V30 29 C 10.2211 -2.3924 0.0 0
M  V30 30 C 7.8287 -0.5685 0.0 0
M  V30 31 C 8.1129 -2.6766 0.0 0
M  V30 32 O 11.0857 -3.0438 0.0 0
M  V30 33 C 13.49 -2.0371 0.0 0
M  V30 34 C 13.9282 -0.5921 0.0 0
M  V30 35 C 14.8165 -2.7122 0.0 0
M  V30 36 C 13.5492 -3.5294 0.0 0
M  V30 37 N 14.3665 0.8527 0.0 0
M  V30 END ATOM
M  V30 BEGIN BOND
M  V30 1 1 1 2
M  V30 2 1 1 3
M  V30 3 1 2 4
M  V30 4 2 2 5
M  V30 5 2 3 6
M  V30 6 2 4 7
M  V30 7 1 4 8
M  V30 8 1 5 9
M  V30 9 1 7 10
M  V30 10 2 8 11
M  V30 11 2 10 12
M  V30 12 1 12 13
M  V30 13 1 13 14
M  V30 14 1 14 15
M  V30 15 2 15 16
M  V30 16 1 17 15 CFG=3
M  V30 17 1 17 18
M  V30 18 1 17 19
M  V30 19 1 18 20
M  V30 20 1 18 21
M  V30 21 1 19 22
M  V30 22 2 20 23
M  V30 23 1 20 24
M  V30 24 1 22 25 CFG=1
M  V30 25 1 24 26 CFG=1
M  V30 26 1 24 27
M  V30 27 1 26 28
M  V30 28 1 27 29
M  V30 29 1 27 30
M  V30 30 1 27 31
M  V30 31 2 28 32
M  V30 32 1 28 33
M  V30 33 1 33 34
M  V30 34 1 33 35
M  V30 35 1 33 36
M  V30 36 3 34 37
M  V30 37 1 5 6
M  V30 38 1 11 12
M  V30 39 1 21 22
M  V30 40 1 35 36
M  V30 END BOND
M  V30 BEGIN COLLECTION
M  V30 MDLV30/STEABS ATOMS=(3 17 22 24)
M  V30 END COLLECTION
M  V30 END CTAB
M  END
>  <Compound ID>
13

>  <Name>
VH298

>  <Uniprot>
P40337

>  <Target>
VHL

>  <Smiles>
CC1=C(C2=CC=C(CNC(=O)[C@@H]3C[C@@H](O)CN3C(=O)[C@@H](NC(=O)C3(C#N)CC3)C(C)(C)C)C=C2)SC=N1

>  <Kd (nM)>
90/80

>  <Assay (Kd)>
ITC/FP

>  <Ki (nM)>


>  <Assay (Ki)>


>  <IC50 (nM)>


>  <Assay (IC50)>


>  <EC50 (nM)>


>  <Assay (EC50)>


>  <Article DOI>
10.1038/ncomms13312

>  <Molecular Weight>
523.659

>  <Exact Mass>
523.225325536

>  <XLogP3>
2.54

>  <Heavy Atom Count>
37

>  <Ring Count>
4

>  <Hydrogen Bond Acceptor Count>
7

>  <Hydrogen Bond Donor Count>
3

>  <Rotatable Bond Count>
7

>  <Topological Polar Surface Area>
135.42

>  <Molecular Formula>
C27H33N5O4S

>  <InChI>
InChI=1S/C27H33N5O4S/c1-16-21(37-15-30-16)18-7-5-17(6-8-18)12-29-23(34)20-11-19(33)13-32(20)24(35)22(26(2,3)4)31-25(36)27(14-28)9-10-27/h5-8,15,19-20,22,33H,9-13H2,1-4H3,(H,29,34)(H,31,36)/t19-,20+,22-/m1/s1

>  <InChI Key>
NDVQUNZCNAMROD-RZUBCFFCSA-N

>  <BindingDB>
50459944

>  <PubChem>
122199236

>  <ChEMBL>
CHEMBL4225537

$$$$
Compound 14
Actelion Java MolfileCreator 2.0

  0  0  0  0  0  0              0 V3000
M  V30 BEGIN CTAB
M  V30 COUNTS 36 39 0 0 0
M  V30 BEGIN ATOM
M  V30 1 S 0.0 0.0 0.0 0
M  V30 2 C 1.4569 -0.3316 0.0 0
M  V30 3 C -0.7936 -1.2792 0.0 0
M  V30 4 C 2.5822 0.6633 0.0 0
M  V30 5 C 1.5754 -1.8241 0.0 0
M  V30 6 N 0.1776 -2.4045 0.0 0
M  V30 7 C 3.9918 0.1776 0.0 0
M  V30 8 C 2.2861 2.1558 0.0 0
M  V30 9 C 2.8546 -2.594 0.0 0
M  V30 10 C 5.117 1.1726 0.0 0
M  V30 11 C 3.4113 3.1508 0.0 0
M  V30 12 C 4.8209 2.6651 0.0 0
M  V30 13 C 5.9462 3.6601 0.0 0
M  V30 14 N 7.3558 3.1744 0.0 0
M  V30 15 C 8.4811 4.1694 0.0 0
M  V30 16 O 8.1849 5.6619 0.0 0
M  V30 17 C 9.8906 3.6838 0.0 0 CFG=1
M  V30 18 N 10.3171 2.2505 0.0 0
M  V30 19 C 11.1107 4.5603 0.0 0
M  V30 20 C 9.3931 1.066 0.0 0
M  V30 21 C 11.8095 2.2387 0.0 0
M  V30 22 C 12.2952 3.6601 0.0 0 CFG=2
M  V30 23 O 7.8888 1.2674 0.0 0
M  V30 24 C 9.9617 -0.3079 0.0 0 CFG=1
M  V30 25 O 13.7285 4.1102 0.0 0
M  V30 26 N 11.4423 -0.4856 0.0 0
M  V30 27 C 9.0378 -1.4924 0.0 0
M  V30 28 C 12.0109 -1.8596 0.0 0
M  V30 29 C 10.2223 -2.3927 0.0 0
M  V30 30 C 7.8296 -0.5685 0.0 0
M  V30 31 C 8.1139 -2.6769 0.0 0
M  V30 32 O 11.087 -3.0441 0.0 0
M  V30 33 C 13.4915 -2.0373 0.0 0
M  V30 34 F 13.918 -0.5922 0.0 0
M  V30 35 C 14.8182 -2.7125 0.0 0
M  V30 36 C 13.5508 -3.5298 0.0 0
M  V30 END ATOM
M  V30 BEGIN BOND
M  V30 1 1 1 2
M  V30 2 1 1 3
M  V30 3 1 2 4
M  V30 4 2 2 5
M  V30 5 2 3 6
M  V30 6 2 4 7
M  V30 7 1 4 8
M  V30 8 1 5 9
M  V30 9 1 7 10
M  V30 10 2 8 11
M  V30 11 2 10 12
M  V30 12 1 12 13
M  V30 13 1 13 14
M  V30 14 1 14 15
M  V30 15 2 15 16
M  V30 16 1 17 15 CFG=3
M  V30 17 1 17 18
M  V30 18 1 17 19
M  V30 19 1 18 20
M  V30 20 1 18 21
M  V30 21 1 19 22
M  V30 22 2 20 23
M  V30 23 1 20 24
M  V30 24 1 22 25 CFG=1
M  V30 25 1 24 26 CFG=1
M  V30 26 1 24 27
M  V30 27 1 26 28
M  V30 28 1 27 29
M  V30 29 1 27 30
M  V30 30 1 27 31
M  V30 31 2 28 32
M  V30 32 1 28 33
M  V30 33 1 33 34
M  V30 34 1 33 35
M  V30 35 1 33 36
M  V30 36 1 5 6
M  V30 37 1 11 12
M  V30 38 1 21 22
M  V30 39 1 35 36
M  V30 END BOND
M  V30 BEGIN COLLECTION
M  V30 MDLV30/STEABS ATOMS=(3 17 22 24)
M  V30 END COLLECTION
M  V30 END CTAB
M  END
>  <Compound ID>
14

>  <Name>
VH101

>  <Uniprot>
P40337

>  <Target>
VHL

>  <Smiles>
CC1=C(C2=CC=C(CNC(=O)[C@@H]3C[C@@H](O)CN3C(=O)[C@@H](NC(=O)C3(F)CC3)C(C)(C)C)C=C2)SC=N1

>  <Kd (nM)>
44/90

>  <Assay (Kd)>
ITC/FP

>  <Ki (nM)>


>  <Assay (Ki)>


>  <IC50 (nM)>


>  <Assay (IC50)>


>  <EC50 (nM)>


>  <Assay (EC50)>


>  <Article DOI>
10.1021/acs.jmedchem.7b00675

>  <Molecular Weight>
516.639

>  <Exact Mass>
516.220654756

>  <XLogP3>
3.03

>  <Heavy Atom Count>
36

>  <Ring Count>
4

>  <Hydrogen Bond Acceptor Count>
6

>  <Hydrogen Bond Donor Count>
3

>  <Rotatable Bond Count>
7

>  <Topological Polar Surface Area>
111.63

>  <Molecular Formula>
C26H33FN4O4S

>  <InChI>
InChI=1S/C26H33FN4O4S/c1-15-20(36-14-29-15)17-7-5-16(6-8-17)12-28-22(33)19-11-18(32)13-31(19)23(34)21(25(2,3)4)30-24(35)26(27)9-10-26/h5-8,14,18-19,21,32H,9-13H2,1-4H3,(H,28,33)(H,30,35)/t18-,19+,21-/m1/s1

>  <InChI Key>
GFNCBUDQFXZVNN-SVFBPWRDSA-N

>  <BindingDB>
50459943

>  <PubChem>
129900323

>  <ChEMBL>
CHEMBL4225470

$$$$
Compound 15
Actelion Java MolfileCreator 2.0

  0  0  0  0  0  0              0 V3000
M  V30 BEGIN CTAB
M  V30 COUNTS 34 36 0 0 0
M  V30 BEGIN ATOM
M  V30 1 S 0.0 0.0 0.0 0
M  V30 2 C -0.6123 1.3776 0.0 0
M  V30 3 C 1.4718 0.1648 0.0 0
M  V30 4 C -2.0841 1.7073 0.0 0
M  V30 5 C 0.4945 2.3785 0.0 0
M  V30 6 N 1.778 1.6367 0.0 0
M  V30 7 C -3.0968 0.6123 0.0 0
M  V30 8 C -2.5551 3.1439 0.0 0
M  V30 9 C 0.3297 3.874 0.0 0
M  V30 10 C -4.5687 0.942 0.0 0
M  V30 11 C -4.027 3.4736 0.0 0
M  V30 12 C -5.0397 2.3785 0.0 0
M  V30 13 C -6.5116 2.7082 0.0 0 CFG=1
M  V30 14 N -7.5242 1.6131 0.0 0
M  V30 15 C -6.9826 4.1448 0.0 0
M  V30 16 C -8.9961 1.9428 0.0 0
M  V30 17 O -9.4671 3.3794 0.0 0
M  V30 18 C -10.0088 0.8478 0.0 0 CFG=1
M  V30 19 N -11.5042 1.0244 0.0 0
M  V30 20 C -9.7144 -0.6005 0.0 0
M  V30 21 C -12.2578 2.3314 0.0 0
M  V30 22 C -12.1283 -0.3297 0.0 0
M  V30 23 C -11.0214 -1.3305 0.0 0 CFG=2
M  V30 24 O -11.516 3.6385 0.0 0
M  V30 25 C -13.765 2.355 0.0 0 CFG=1
M  V30 26 O -11.1981 -2.8024 0.0 0
M  V30 27 N -14.5304 1.0715 0.0 0
M  V30 28 C -14.5187 3.662 0.0 0
M  V30 29 C -16.0376 1.095 0.0 0
M  V30 30 C -15.8257 2.932 0.0 0
M  V30 31 C -13.2352 4.4156 0.0 0
M  V30 32 C -15.2723 4.969 0.0 0
M  V30 33 O -16.7912 2.4021 0.0 0
M  V30 34 C -16.803 -0.1884 0.0 0
M  V30 END ATOM
M  V30 BEGIN BOND
M  V30 1 1 1 2
M  V30 2 1 1 3
M  V30 3 1 2 4
M  V30 4 2 2 5
M  V30 5 2 3 6
M  V30 6 2 4 7
M  V30 7 1 4 8
M  V30 8 1 5 9
M  V30 9 1 7 10
M  V30 10 2 8 11
M  V30 11 2 10 12
M  V30 12 1 12 13
M  V30 13 1 13 14 CFG=1
M  V30 14 1 13 15
M  V30 15 1 14 16
M  V30 16 2 16 17
M  V30 17 1 18 16 CFG=3
M  V30 18 1 18 19
M  V30 19 1 18 20
M  V30 20 1 19 21
M  V30 21 1 19 22
M  V30 22 1 20 23
M  V30 23 2 21 24
M  V30 24 1 21 25
M  V30 25 1 23 26 CFG=1
M  V30 26 1 25 27 CFG=1
M  V30 27 1 25 28
M  V30 28 1 27 29
M  V30 29 1 28 30
M  V30 30 1 28 31
M  V30 31 1 28 32
M  V30 32 2 29 33
M  V30 33 1 29 34
M  V30 34 1 5 6
M  V30 35 1 11 12
M  V30 36 1 22 23
M  V30 END BOND
M  V30 BEGIN COLLECTION
M  V30 MDLV30/STEABS ATOMS=(4 13 18 23 25)
M  V30 END COLLECTION
M  V30 END CTAB
M  END
>  <Compound ID>
15

>  <Name>
VHL-1

>  <Uniprot>
P40337

>  <Target>
VHL

>  <Smiles>
CC(=O)N[C@H](C(=O)N1C[C@H](O)C[C@H]1C(=O)N[C@@H](C)C1=CC=C(C2=C(C)N=CS2)C=C1)C(C)(C)C

>  <Kd (nM)>


>  <Assay (Kd)>


>  <Ki (nM)>


>  <Assay (Ki)>


>  <IC50 (nM)>
196

>  <Assay (IC50)>
Displacement of a fluorencently tagged VHL ligand from VHL by fluorescence polarization based competitive binding affinity assay

>  <EC50 (nM)>


>  <Assay (EC50)>


>  <Article DOI>
10.1021/acs.jmedchem.8b01572

>  <Molecular Weight>
486.638

>  <Exact Mass>
486.230076568

>  <XLogP3>
2.71

>  <Heavy Atom Count>
34

>  <Ring Count>
3

>  <Hydrogen Bond Acceptor Count>
6

>  <Hydrogen Bond Donor Count>
3

>  <Rotatable Bond Count>
6

>  <Topological Polar Surface Area>
111.63

>  <Molecular Formula>
C25H34N4O4S

>  <InChI>
InChI=1S/C25H34N4O4S/c1-14(17-7-9-18(10-8-17)21-15(2)26-13-34-21)27-23(32)20-11-19(31)12-29(20)24(33)22(25(4,5)6)28-16(3)30/h7-10,13-14,19-20,22,31H,11-12H2,1-6H3,(H,27,32)(H,28,30)/t14-,19+,20-,22+/m0/s1

>  <InChI Key>
JAHUHEDUDMTTTF-COWZOJLOSA-N

>  <BindingDB>


>  <PubChem>
122529139

>  <ChEMBL>
CHEMBL4565531

$$$$
Compound 16
Actelion Java MolfileCreator 2.0

  0  0  0  0  0  0              0 V3000
M  V30 BEGIN CTAB
M  V30 COUNTS 34 36 0 0 0
M  V30 BEGIN ATOM
M  V30 1 S 0.0 0.0 0.0 0
M  V30 2 C -1.3656 0.6357 0.0 0
M  V30 3 C 1.0007 1.1066 0.0 0
M  V30 4 C -2.6842 -0.0824 0.0 0
M  V30 5 C -1.2008 2.1309 0.0 0
M  V30 6 N 0.259 2.4252 0.0 0
M  V30 7 C -2.7195 -1.5658 0.0 0
M  V30 8 C -3.9793 0.6946 0.0 0
M  V30 9 C -2.3075 3.1551 0.0 0
M  V30 10 C -4.0381 -2.2839 0.0 0
M  V30 11 C -5.2978 -0.0235 0.0 0
M  V30 12 C -5.3332 -1.5069 0.0 0
M  V30 13 C -6.6517 -2.2251 0.0 0
M  V30 14 N -7.9468 -1.448 0.0 0
M  V30 15 C -9.2654 -2.1662 0.0 0
M  V30 16 O -9.3007 -3.6496 0.0 0
M  V30 17 C -10.5604 -1.3892 0.0 0 CFG=1
M  V30 18 N -10.7135 0.1059 0.0 0
M  V30 19 C -11.9496 -1.9661 0.0 0 CFG=1
M  V30 20 C -9.6068 1.1066 0.0 0
M  V30 21 C -12.1851 0.4473 0.0 0
M  V30 22 F -12.291 -3.4141 0.0 0
M  V30 23 C -12.9503 -0.8358 0.0 0 CFG=2
M  V30 24 O -8.2058 0.6357 0.0 0
M  V30 25 C -9.9129 2.59 0.0 0 CFG=1
M  V30 26 O -14.4455 -0.9653 0.0 0
M  V30 27 N -11.3374 3.0845 0.0 0
M  V30 28 C -8.8062 3.5907 0.0 0
M  V30 29 C -11.6435 4.5679 0.0 0
M  V30 30 C -9.8069 4.721 0.0 0
M  V30 31 C -7.829 2.4841 0.0 0
M  V30 32 C -7.6995 4.5915 0.0 0
M  V30 33 O -10.5369 5.5686 0.0 0
M  V30 34 C -13.0681 5.0624 0.0 0
M  V30 END ATOM
M  V30 BEGIN BOND
M  V30 1 1 1 2
M  V30 2 1 1 3
M  V30 3 1 2 4
M  V30 4 2 2 5
M  V30 5 2 3 6
M  V30 6 2 4 7
M  V30 7 1 4 8
M  V30 8 1 5 9
M  V30 9 1 7 10
M  V30 10 2 8 11
M  V30 11 2 10 12
M  V30 12 1 12 13
M  V30 13 1 13 14
M  V30 14 1 14 15
M  V30 15 2 15 16
M  V30 16 1 17 15 CFG=3
M  V30 17 1 17 18
M  V30 18 1 17 19
M  V30 19 1 18 20
M  V30 20 1 18 21
M  V30 21 1 19 22 CFG=1
M  V30 22 1 19 23
M  V30 23 2 20 24
M  V30 24 1 20 25
M  V30 25 1 23 26 CFG=1
M  V30 26 1 25 27 CFG=1
M  V30 27 1 25 28
M  V30 28 1 27 29
M  V30 29 1 28 30
M  V30 30 1 28 31
M  V30 31 1 28 32
M  V30 32 2 29 33
M  V30 33 1 29 34
M  V30 34 1 5 6
M  V30 35 1 11 12
M  V30 36 1 21 23
M  V30 END BOND
M  V30 BEGIN COLLECTION
M  V30 MDLV30/STEABS ATOMS=(4 17 19 23 25)
M  V30 END COLLECTION
M  V30 END CTAB
M  END
>  <Compound ID>
16

>  <Name>


>  <Uniprot>
P40337

>  <Target>
VHL

>  <Smiles>
CC(=O)N[C@H](C(=O)N1C[C@H](O)[C@H](F)[C@H]1C(=O)NCC1=CC=C(C2=C(C)N=CS2)C=C1)C(C)(C)C

>  <Kd (nM)>
244

>  <Assay (Kd)>
ITC

>  <Ki (nM)>


>  <Assay (Ki)>


>  <IC50 (nM)>


>  <Assay (IC50)>


>  <EC50 (nM)>


>  <Assay (EC50)>


>  <Article DOI>
10.1021/jacs.8b05807

>  <Molecular Weight>
490.601

>  <Exact Mass>
490.205004692

>  <XLogP3>
2.36

>  <Heavy Atom Count>
34

>  <Ring Count>
3

>  <Hydrogen Bond Acceptor Count>
6

>  <Hydrogen Bond Donor Count>
3

>  <Rotatable Bond Count>
6

>  <Topological Polar Surface Area>
111.63

>  <Molecular Formula>
C24H31FN4O4S

>  <InChI>
InChI=1S/C24H31FN4O4S/c1-13-20(34-12-27-13)16-8-6-15(7-9-16)10-26-22(32)19-18(25)17(31)11-29(19)23(33)21(24(3,4)5)28-14(2)30/h6-9,12,17-19,21,31H,10-11H2,1-5H3,(H,26,32)(H,28,30)/t17-,18-,19-,21+/m0/s1

>  <InChI Key>
MNNVXLLCYGGFOQ-VNYTWHDVSA-N

>  <BindingDB>


>  <PubChem>
134686806

>  <ChEMBL>


$$$$
Compound 17
Actelion Java MolfileCreator 2.0

  0  0  0  0  0  0              0 V3000
M  V30 BEGIN CTAB
M  V30 COUNTS 29 30 0 0 0
M  V30 BEGIN ATOM
M  V30 1 Cl 0.0 0.0 0.0 0
M  V30 2 C -1.4684 0.3524 0.0 0
M  V30 3 C -2.5023 -0.7283 0.0 0
M  V30 4 C -1.9149 1.7856 0.0 0
M  V30 5 C -3.9708 -0.3759 0.0 0
M  V30 6 C -3.3834 2.1381 0.0 0
M  V30 7 C -4.4172 1.0573 0.0 0
M  V30 8 C -5.8857 1.4097 0.0 0 CFG=1
M  V30 9 N -6.9195 0.3289 0.0 0
M  V30 10 C -6.3321 2.843 0.0 0
M  V30 11 C -8.388 0.6813 0.0 0
M  V30 12 O -8.8344 2.1146 0.0 0
M  V30 13 C -9.4218 -0.3994 0.0 0 CFG=1
M  V30 14 N -10.9138 -0.1997 0.0 0
M  V30 15 C -9.1516 -1.8561 0.0 0
M  V30 16 C -11.654 1.116 0.0 0
M  V30 17 C -11.56 -1.5389 0.0 0
M  V30 18 C -10.4674 -2.5728 0.0 0 CFG=2
M  V30 19 O -10.9021 2.4083 0.0 0
M  V30 20 C -13.1577 1.1513 0.0 0 CFG=1
M  V30 21 O -10.6671 -4.0413 0.0 0
M  V30 22 N -13.9331 -0.1174 0.0 0
M  V30 23 C -13.8978 2.467 0.0 0
M  V30 24 C -15.4368 -0.0822 0.0 0
M  V30 25 C -15.2136 1.7504 0.0 0
M  V30 26 C -12.6055 3.2072 0.0 0
M  V30 27 C -14.638 3.7828 0.0 0
M  V30 28 O -16.1769 1.2335 0.0 0
M  V30 29 C -16.2122 -1.351 0.0 0
M  V30 END ATOM
M  V30 BEGIN BOND
M  V30 1 1 1 2
M  V30 2 2 2 3
M  V30 3 1 2 4
M  V30 4 1 3 5
M  V30 5 2 4 6
M  V30 6 2 5 7
M  V30 7 1 7 8
M  V30 8 1 8 9 CFG=1
M  V30 9 1 8 10
M  V30 10 1 9 11
M  V30 11 2 11 12
M  V30 12 1 13 11 CFG=3
M  V30 13 1 13 14
M  V30 14 1 13 15
M  V30 15 1 14 16
M  V30 16 1 14 17
M  V30 17 1 15 18
M  V30 18 2 16 19
M  V30 19 1 16 20
M  V30 20 1 18 21 CFG=1
M  V30 21 1 20 22 CFG=1
M  V30 22 1 20 23
M  V30 23 1 22 24
M  V30 24 1 23 25
M  V30 25 1 23 26
M  V30 26 1 23 27
M  V30 27 2 24 28
M  V30 28 1 24 29
M  V30 29 1 6 7
M  V30 30 1 17 18
M  V30 END BOND
M  V30 BEGIN COLLECTION
M  V30 MDLV30/STEABS ATOMS=(4 8 13 18 20)
M  V30 END COLLECTION
M  V30 END CTAB
M  END
>  <Compound ID>
17

>  <Name>


>  <Uniprot>
P40337

>  <Target>
VHL

>  <Smiles>
CC(=O)N[C@H](C(=O)N1C[C@H](O)C[C@H]1C(=O)N[C@@H](C)C1=CC=C(Cl)C=C1)C(C)(C)C

>  <Kd (nM)>


>  <Assay (Kd)>


>  <Ki (nM)>


>  <Assay (Ki)>


>  <IC50 (nM)>
7867

>  <Assay (IC50)>
Displacement of a fluorencently tagged VHL ligand from VHL by fluorescence polarization based competitive binding affinity assay

>  <EC50 (nM)>


>  <Assay (EC50)>


>  <Article DOI>
10.1021/acs.jmedchem.8b01572

>  <Molecular Weight>
423.941

>  <Exact Mass>
423.19248412

>  <XLogP3>
2.25

>  <Heavy Atom Count>
29

>  <Ring Count>
2

>  <Hydrogen Bond Acceptor Count>
4

>  <Hydrogen Bond Donor Count>
3

>  <Rotatable Bond Count>
5

>  <Topological Polar Surface Area>
98.74

>  <Molecular Formula>
C21H30ClN3O4

>  <InChI>
InChI=1S/C21H30ClN3O4/c1-12(14-6-8-15(22)9-7-14)23-19(28)17-10-16(27)11-25(17)20(29)18(21(3,4)5)24-13(2)26/h6-9,12,16-18,27H,10-11H2,1-5H3,(H,23,28)(H,24,26)/t12-,16+,17-,18+/m0/s1

>  <InChI Key>
QORQDSURGXKKLU-PSMGESJCSA-N

>  <BindingDB>


>  <PubChem>
154979030

>  <ChEMBL>
CHEMBL4468137

$$$$
Compound 18
Actelion Java MolfileCreator 2.0

  0  0  0  0  0  0              0 V3000
M  V30 BEGIN CTAB
M  V30 COUNTS 30 31 0 0 0
M  V30 BEGIN ATOM
M  V30 1 O 0.0 0.0 0.0 0
M  V30 2 C 0.4495 -1.4195 0.0 0
M  V30 3 N 1.9045 -1.7271 0.0 0
M  V30 4 C -0.5678 -2.5197 0.0 0 CFG=1
M  V30 5 C 2.8983 -0.6033 0.0 0 CFG=2
M  V30 6 N -2.0702 -2.3423 0.0 0
M  V30 7 C -0.272 -3.9748 0.0 0
M  V30 8 C 4.3533 -0.9108 0.0 0
M  V30 9 C 2.4251 0.8399 0.0 0
M  V30 10 C -2.8273 -1.0291 0.0 0
M  V30 11 C -2.6971 -3.7027 0.0 0
M  V30 12 C -1.5851 -4.7082 0.0 0 CFG=2
M  V30 13 C 4.8028 -2.3304 0.0 0
M  V30 14 C 5.347 0.2129 0.0 0
M  V30 15 O -2.082 0.2839 0.0 0
M  V30 16 C -4.3415 -1.0055 0.0 0 CFG=1
M  V30 17 O -1.7626 -6.1869 0.0 0
M  V30 18 C 6.2579 -2.638 0.0 0
M  V30 19 C 6.8021 -0.0946 0.0 0
M  V30 20 N -5.1104 -2.2949 0.0 0
M  V30 21 C -5.0986 0.3075 0.0 0
M  V30 22 C 7.2516 -1.5142 0.0 0
M  V30 23 C -6.6246 -2.2713 0.0 0
M  V30 24 C -6.4117 -0.4258 0.0 0
M  V30 25 C -3.8091 1.0646 0.0 0
M  V30 26 C -5.8557 1.6206 0.0 0
M  V30 27 C 8.7067 -1.8217 0.0 0
M  V30 28 O -7.3817 -0.9582 0.0 0
M  V30 29 C -7.3936 -3.5607 0.0 0
M  V30 30 N 10.1617 -2.1293 0.0 0
M  V30 END ATOM
M  V30 BEGIN BOND
M  V30 1 2 1 2
M  V30 2 1 2 3
M  V30 3 1 4 2 CFG=3
M  V30 4 1 5 3 CFG=1
M  V30 5 1 4 6
M  V30 6 1 4 7
M  V30 7 1 5 8
M  V30 8 1 5 9
M  V30 9 1 6 10
M  V30 10 1 6 11
M  V30 11 1 7 12
M  V30 12 2 8 13
M  V30 13 1 8 14
M  V30 14 2 10 15
M  V30 15 1 10 16
M  V30 16 1 12 17 CFG=1
M  V30 17 1 13 18
M  V30 18 2 14 19
M  V30 19 1 16 20 CFG=1
M  V30 20 1 16 21
M  V30 21 2 18 22
M  V30 22 1 20 23
M  V30 23 1 21 24
M  V30 24 1 21 25
M  V30 25 1 21 26
M  V30 26 1 22 27
M  V30 27 2 23 28
M  V30 28 1 23 29
M  V30 29 3 27 30
M  V30 30 1 11 12
M  V30 31 1 19 22
M  V30 END BOND
M  V30 BEGIN COLLECTION
M  V30 MDLV30/STEABS ATOMS=(4 4 5 12 16)
M  V30 END COLLECTION
M  V30 END CTAB
M  END
>  <Compound ID>
18

>  <Name>


>  <Uniprot>
P40337

>  <Target>
VHL

>  <Smiles>
CC(=O)N[C@H](C(=O)N1C[C@H](O)C[C@H]1C(=O)N[C@@H](C)C1=CC=C(C#N)C=C1)C(C)(C)C

>  <Kd (nM)>


>  <Assay (Kd)>


>  <Ki (nM)>


>  <Assay (Ki)>


>  <IC50 (nM)>
4827

>  <Assay (IC50)>
Displacement of a fluorencently tagged VHL ligand from VHL by fluorescence polarization based competitive binding affinity assay

>  <EC50 (nM)>


>  <Assay (EC50)>


>  <Article DOI>
10.1021/acs.jmedchem.8b01572

>  <Molecular Weight>
414.506

>  <Exact Mass>
414.22670544

>  <XLogP3>
1.34

>  <Heavy Atom Count>
30

>  <Ring Count>
2

>  <Hydrogen Bond Acceptor Count>
5

>  <Hydrogen Bond Donor Count>
3

>  <Rotatable Bond Count>
5

>  <Topological Polar Surface Area>
122.53

>  <Molecular Formula>
C22H30N4O4

>  <InChI>
InChI=1S/C22H30N4O4/c1-13(16-8-6-15(11-23)7-9-16)24-20(29)18-10-17(28)12-26(18)21(30)19(22(3,4)5)25-14(2)27/h6-9,13,17-19,28H,10,12H2,1-5H3,(H,24,29)(H,25,27)/t13-,17+,18-,19+/m0/s1

>  <InChI Key>
OXUULQVWMAOYDZ-NUDXDXSLSA-N

>  <BindingDB>


>  <PubChem>
153633177

>  <ChEMBL>
CHEMBL4435205

$$$$
Compound 19
Actelion Java MolfileCreator 2.0

  0  0  0  0  0  0              0 V3000
M  V30 BEGIN CTAB
M  V30 COUNTS 30 31 0 0 0
M  V30 BEGIN ATOM
M  V30 1 O 0.0 0.0 0.0 0
M  V30 2 C 0.4495 -1.4195 0.0 0
M  V30 3 N 1.9045 -1.7271 0.0 0
M  V30 4 C -0.5678 -2.5197 0.0 0 CFG=1
M  V30 5 C 2.8983 -0.6033 0.0 0 CFG=2
M  V30 6 N -2.0702 -2.3423 0.0 0
M  V30 7 C -0.272 -3.9748 0.0 0
M  V30 8 C 4.3533 -0.9108 0.0 0
M  V30 9 C 2.4251 0.8399 0.0 0
M  V30 10 C -2.8273 -1.0291 0.0 0
M  V30 11 C -2.6971 -3.7027 0.0 0
M  V30 12 C -1.5851 -4.7082 0.0 0 CFG=2
M  V30 13 C 4.8028 -2.3304 0.0 0
M  V30 14 C 5.347 0.2129 0.0 0
M  V30 15 O -2.082 0.2839 0.0 0
M  V30 16 C -4.3415 -1.0055 0.0 0 CFG=1
M  V30 17 O -1.7626 -6.1869 0.0 0
M  V30 18 C 6.2579 -2.638 0.0 0
M  V30 19 C 6.8021 -0.0946 0.0 0
M  V30 20 N -5.1104 -2.2949 0.0 0
M  V30 21 C -5.0986 0.3075 0.0 0
M  V30 22 C 7.2516 -1.5142 0.0 0
M  V30 23 C -6.6246 -2.2713 0.0 0
M  V30 24 C -6.4117 -0.4258 0.0 0
M  V30 25 C -3.8091 1.0646 0.0 0
M  V30 26 C -5.8557 1.6206 0.0 0
M  V30 27 C 8.7067 -1.8217 0.0 0
M  V30 28 O -7.3817 -0.9582 0.0 0
M  V30 29 C -7.3936 -3.5607 0.0 0
M  V30 30 C 10.1617 -2.1293 0.0 0
M  V30 END ATOM
M  V30 BEGIN BOND
M  V30 1 2 1 2
M  V30 2 1 2 3
M  V30 3 1 4 2 CFG=3
M  V30 4 1 5 3 CFG=1
M  V30 5 1 4 6
M  V30 6 1 4 7
M  V30 7 1 5 8
M  V30 8 1 5 9
M  V30 9 1 6 10
M  V30 10 1 6 11
M  V30 11 1 7 12
M  V30 12 2 8 13
M  V30 13 1 8 14
M  V30 14 2 10 15
M  V30 15 1 10 16
M  V30 16 1 12 17 CFG=1
M  V30 17 1 13 18
M  V30 18 2 14 19
M  V30 19 1 16 20 CFG=1
M  V30 20 1 16 21
M  V30 21 2 18 22
M  V30 22 1 20 23
M  V30 23 1 21 24
M  V30 24 1 21 25
M  V30 25 1 21 26
M  V30 26 1 22 27
M  V30 27 2 23 28
M  V30 28 1 23 29
M  V30 29 3 27 30
M  V30 30 1 11 12
M  V30 31 1 19 22
M  V30 END BOND
M  V30 BEGIN COLLECTION
M  V30 MDLV30/STEABS ATOMS=(4 4 5 12 16)
M  V30 END COLLECTION
M  V30 END CTAB
M  END
>  <Compound ID>
19

>  <Name>


>  <Uniprot>
P40337

>  <Target>
VHL

>  <Smiles>
C#CC1=CC=C([C@H](C)NC(=O)[C@@H]2C[C@@H](O)CN2C(=O)[C@@H](NC(C)=O)C(C)(C)C)C=C1

>  <Kd (nM)>


>  <Assay (Kd)>


>  <Ki (nM)>


>  <Assay (Ki)>


>  <IC50 (nM)>
879

>  <Assay (IC50)>
Displacement of a fluorencently tagged VHL ligand from VHL by fluorescence polarization based competitive binding affinity assay

>  <EC50 (nM)>


>  <Assay (EC50)>


>  <Article DOI>
10.1021/acs.jmedchem.8b01572

>  <Molecular Weight>
413.518

>  <Exact Mass>
413.231456472

>  <XLogP3>
1.86

>  <Heavy Atom Count>
30

>  <Ring Count>
2

>  <Hydrogen Bond Acceptor Count>
4

>  <Hydrogen Bond Donor Count>
3

>  <Rotatable Bond Count>
5

>  <Topological Polar Surface Area>
98.74

>  <Molecular Formula>
C23H31N3O4

>  <InChI>
InChI=1S/C23H31N3O4/c1-7-16-8-10-17(11-9-16)14(2)24-21(29)19-12-18(28)13-26(19)22(30)20(23(4,5)6)25-15(3)27/h1,8-11,14,18-20,28H,12-13H2,2-6H3,(H,24,29)(H,25,27)/t14-,18+,19-,20+/m0/s1

>  <InChI Key>
WHTWICJCWCIKHM-WEFJBSGNSA-N

>  <BindingDB>


>  <PubChem>
153633215

>  <ChEMBL>
CHEMBL4585902

$$$$
Compound 20
Actelion Java MolfileCreator 2.0

  0  0  0  0  0  0              0 V3000
M  V30 BEGIN CTAB
M  V30 COUNTS 31 33 0 0 0
M  V30 BEGIN ATOM
M  V30 1 O 0.0 0.0 0.0 0
M  V30 2 C 0.4491 -1.4184 0.0 0
M  V30 3 N 1.903 -1.7139 0.0 0
M  V30 4 C -0.5673 -2.5294 0.0 0 CFG=1
M  V30 5 C 2.8959 -0.5791 0.0 0 CFG=2
M  V30 6 N -2.0685 -2.364 0.0 0
M  V30 7 C -0.26 -3.9833 0.0 0
M  V30 8 C 4.3497 -0.8746 0.0 0
M  V30 9 C 2.4231 0.8628 0.0 0
M  V30 10 C -2.8368 -1.0519 0.0 0
M  V30 11 C -2.6831 -3.7233 0.0 0
M  V30 12 C -1.572 -4.728 0.0 0 CFG=2
M  V30 13 C 4.7989 -2.293 0.0 0
M  V30 14 C 5.3426 0.26 0.0 0
M  V30 15 O -2.1039 0.26 0.0 0
M  V30 16 C -4.3497 -1.0401 0.0 0 CFG=1
M  V30 17 O -1.7375 -6.2055 0.0 0
M  V30 18 C 6.2528 -2.5886 0.0 0
M  V30 19 C 6.7965 -0.0354 0.0 0
M  V30 20 N -5.1062 -2.3285 0.0 0
M  V30 21 C -5.1181 0.2718 0.0 0
M  V30 22 C 7.2457 -1.4538 0.0 0
M  V30 23 C -6.6192 -2.3167 0.0 0
M  V30 24 C -6.4301 -0.4728 0.0 0
M  V30 25 C -3.8297 1.0401 0.0 0
M  V30 26 C -5.8864 1.5838 0.0 0
M  V30 27 C 8.6995 -1.7493 0.0 0
M  V30 28 O -7.3875 -1.0047 0.0 0
M  V30 29 C -7.3757 -3.6051 0.0 0
M  V30 30 C 10.1179 -1.2765 0.0 0
M  V30 31 C 9.8106 -2.7422 0.0 0
M  V30 END ATOM
M  V30 BEGIN BOND
M  V30 1 2 1 2
M  V30 2 1 2 3
M  V30 3 1 4 2 CFG=3
M  V30 4 1 5 3 CFG=1
M  V30 5 1 4 6
M  V30 6 1 4 7
M  V30 7 1 5 8
M  V30 8 1 5 9
M  V30 9 1 6 10
M  V30 10 1 6 11
M  V30 11 1 7 12
M  V30 12 2 8 13
M  V30 13 1 8 14
M  V30 14 2 10 15
M  V30 15 1 10 16
M  V30 16 1 12 17 CFG=1
M  V30 17 1 13 18
M  V30 18 2 14 19
M  V30 19 1 16 20 CFG=1
M  V30 20 1 16 21
M  V30 21 2 18 22
M  V30 22 1 20 23
M  V30 23 1 21 24
M  V30 24 1 21 25
M  V30 25 1 21 26
M  V30 26 1 22 27
M  V30 27 2 23 28
M  V30 28 1 23 29
M  V30 29 1 27 30
M  V30 30 1 27 31
M  V30 31 1 11 12
M  V30 32 1 19 22
M  V30 33 1 30 31
M  V30 END BOND
M  V30 BEGIN COLLECTION
M  V30 MDLV30/STEABS ATOMS=(4 4 5 12 16)
M  V30 END COLLECTION
M  V30 END CTAB
M  END
>  <Compound ID>
20

>  <Name>


>  <Uniprot>
P40337

>  <Target>
VHL

>  <Smiles>
CC(=O)N[C@H](C(=O)N1C[C@H](O)C[C@H]1C(=O)N[C@@H](C)C1=CC=C(C2CC2)C=C1)C(C)(C)C

>  <Kd (nM)>


>  <Assay (Kd)>


>  <Ki (nM)>


>  <Assay (Ki)>


>  <IC50 (nM)>
6112

>  <Assay (IC50)>
Displacement of a fluorencently tagged VHL ligand from VHL by fluorescence polarization based competitive binding affinity assay

>  <EC50 (nM)>


>  <Assay (EC50)>


>  <Article DOI>
10.1021/acs.jmedchem.8b01572

>  <Molecular Weight>
429.561

>  <Exact Mass>
429.2627566

>  <XLogP3>
2.53

>  <Heavy Atom Count>
31

>  <Ring Count>
3

>  <Hydrogen Bond Acceptor Count>
4

>  <Hydrogen Bond Donor Count>
3

>  <Rotatable Bond Count>
6

>  <Topological Polar Surface Area>
98.74

>  <Molecular Formula>
C24H35N3O4

>  <InChI>
InChI=1S/C24H35N3O4/c1-14(16-6-8-17(9-7-16)18-10-11-18)25-22(30)20-12-19(29)13-27(20)23(31)21(24(3,4)5)26-15(2)28/h6-9,14,18-21,29H,10-13H2,1-5H3,(H,25,30)(H,26,28)/t14-,19+,20-,21+/m0/s1

>  <InChI Key>
CFQQOSHEPDRZSL-MYDCNYLUSA-N

>  <BindingDB>


>  <PubChem>
154979028

>  <ChEMBL>
CHEMBL4442326

$$$$
Compound 21
Actelion Java MolfileCreator 2.0

  0  0  0  0  0  0              0 V3000
M  V30 BEGIN CTAB
M  V30 COUNTS 31 32 0 0 0
M  V30 BEGIN ATOM
M  V30 1 O 0.0 0.0 0.0 0
M  V30 2 C 0.4495 -1.4195 0.0 0
M  V30 3 N 1.9045 -1.727 0.0 0
M  V30 4 C -0.5678 -2.5196 0.0 0 CFG=1
M  V30 5 C 2.8981 -0.6032 0.0 0 CFG=2
M  V30 6 N -2.0701 -2.3422 0.0 0
M  V30 7 C -0.272 -3.9746 0.0 0
M  V30 8 C 4.3532 -0.9108 0.0 0
M  V30 9 C 2.425 0.8398 0.0 0
M  V30 10 C -2.8272 -1.0291 0.0 0
M  V30 11 C -2.697 -3.7025 0.0 0
M  V30 12 C -1.5851 -4.708 0.0 0 CFG=2
M  V30 13 C 4.8027 -2.3303 0.0 0
M  V30 14 C 5.3468 0.2129 0.0 0
M  V30 15 O -2.0819 0.2839 0.0 0
M  V30 16 C -4.3413 -1.0173 0.0 0 CFG=1
M  V30 17 O -1.7625 -6.1867 0.0 0
M  V30 18 C 6.2577 -2.6379 0.0 0
M  V30 19 C 6.8018 -0.0946 0.0 0
M  V30 20 N -5.1102 -2.3067 0.0 0
M  V30 21 C -5.0984 0.2957 0.0 0
M  V30 22 C 7.2514 -1.5141 0.0 0
M  V30 23 C -6.6244 -2.2948 0.0 0
M  V30 24 C -6.4115 -0.4376 0.0 0
M  V30 25 C -3.809 1.0528 0.0 0
M  V30 26 C -5.8555 1.6087 0.0 0
M  V30 27 C 8.7064 -1.8217 0.0 0
M  V30 28 O -7.3815 -0.9818 0.0 0
M  V30 29 C -7.3933 -3.5843 0.0 0
M  V30 30 C 9.1559 -3.2412 0.0 0
M  V30 31 C 9.7 -0.6979 0.0 0
M  V30 END ATOM
M  V30 BEGIN BOND
M  V30 1 2 1 2
M  V30 2 1 2 3
M  V30 3 1 4 2 CFG=3
M  V30 4 1 5 3 CFG=1
M  V30 5 1 4 6
M  V30 6 1 4 7
M  V30 7 1 5 8
M  V30 8 1 5 9
M  V30 9 1 6 10
M  V30 10 1 6 11
M  V30 11 1 7 12
M  V30 12 2 8 13
M  V30 13 1 8 14
M  V30 14 2 10 15
M  V30 15 1 10 16
M  V30 16 1 12 17 CFG=1
M  V30 17 1 13 18
M  V30 18 2 14 19
M  V30 19 1 16 20 CFG=1
M  V30 20 1 16 21
M  V30 21 2 18 22
M  V30 22 1 20 23
M  V30 23 1 21 24
M  V30 24 1 21 25
M  V30 25 1 21 26
M  V30 26 1 22 27
M  V30 27 2 23 28
M  V30 28 1 23 29
M  V30 29 1 27 30
M  V30 30 1 27 31
M  V30 31 1 11 12
M  V30 32 1 19 22
M  V30 END BOND
M  V30 BEGIN COLLECTION
M  V30 MDLV30/STEABS ATOMS=(4 4 5 12 16)
M  V30 END COLLECTION
M  V30 END CTAB
M  END
>  <Compound ID>
21

>  <Name>


>  <Uniprot>
P40337

>  <Target>
VHL

>  <Smiles>
CC(=O)N[C@H](C(=O)N1C[C@H](O)C[C@H]1C(=O)N[C@@H](C)C1=CC=C(C(C)C)C=C1)C(C)(C)C

>  <Kd (nM)>


>  <Assay (Kd)>


>  <Ki (nM)>


>  <Assay (Ki)>


>  <IC50 (nM)>
41001

>  <Assay (IC50)>
Displacement of a fluorencently tagged VHL ligand from VHL by fluorescence polarization based competitive binding affinity assay

>  <EC50 (nM)>


>  <Assay (EC50)>


>  <Article DOI>
10.1021/acs.jmedchem.8b01572

>  <Molecular Weight>
431.577

>  <Exact Mass>
431.278406664

>  <XLogP3>
2.74

>  <Heavy Atom Count>
31

>  <Ring Count>
2

>  <Hydrogen Bond Acceptor Count>
4

>  <Hydrogen Bond Donor Count>
3

>  <Rotatable Bond Count>
6

>  <Topological Polar Surface Area>
98.74

>  <Molecular Formula>
C24H37N3O4

>  <InChI>
InChI=1S/C24H37N3O4/c1-14(2)17-8-10-18(11-9-17)15(3)25-22(30)20-12-19(29)13-27(20)23(31)21(24(5,6)7)26-16(4)28/h8-11,14-15,19-21,29H,12-13H2,1-7H3,(H,25,30)(H,26,28)/t15-,19+,20-,21+/m0/s1

>  <InChI Key>
FPHVSWUJMFIEOJ-PSMQTCRGSA-N

>  <BindingDB>


>  <PubChem>
154979033

>  <ChEMBL>
CHEMBL4462335

$$$$
Compound 22
Actelion Java MolfileCreator 2.0

  0  0  0  0  0  0              0 V3000
M  V30 BEGIN CTAB
M  V30 COUNTS 32 33 0 0 0
M  V30 BEGIN ATOM
M  V30 1 O 0.0 0.0 0.0 0
M  V30 2 C 0.4494 -1.4194 0.0 0
M  V30 3 N 1.9044 -1.7151 0.0 0
M  V30 4 C -0.5677 -2.5195 0.0 0 CFG=1
M  V30 5 C 2.898 -0.5914 0.0 0 CFG=2
M  V30 6 N -2.07 -2.3539 0.0 0
M  V30 7 C -0.272 -3.9745 0.0 0
M  V30 8 C 4.353 -0.8871 0.0 0
M  V30 9 C 2.4249 0.8516 0.0 0
M  V30 10 C -2.8389 -1.0409 0.0 0
M  V30 11 C -2.6969 -3.7142 0.0 0
M  V30 12 C -1.585 -4.7197 0.0 0 CFG=2
M  V30 13 C 4.8025 -2.3066 0.0 0
M  V30 14 C 5.3466 0.2365 0.0 0
M  V30 15 O -2.1055 0.272 0.0 0
M  V30 16 C -4.353 -1.0291 0.0 0 CFG=1
M  V30 17 O -1.7506 -6.1983 0.0 0
M  V30 18 C 6.2574 -2.6023 0.0 0
M  V30 19 C 6.8016 -0.0591 0.0 0
M  V30 20 N -5.11 -2.3184 0.0 0
M  V30 21 C -5.1219 0.2838 0.0 0
M  V30 22 C 7.251 -1.4786 0.0 0
M  V30 23 C -6.6241 -2.3066 0.0 0
M  V30 24 C -6.4349 -0.4613 0.0 0
M  V30 25 C -3.8325 1.0527 0.0 0
M  V30 26 C -5.8907 1.5968 0.0 0
M  V30 27 C 8.706 -1.7743 0.0 0
M  V30 28 O -7.393 -0.9936 0.0 0
M  V30 29 C -7.3812 -3.5959 0.0 0
M  V30 30 C 8.3866 -3.2292 0.0 0
M  V30 31 C 9.0017 -0.2957 0.0 0
M  V30 32 C 10.161 -2.07 0.0 0
M  V30 END ATOM
M  V30 BEGIN BOND
M  V30 1 2 1 2
M  V30 2 1 2 3
M  V30 3 1 4 2 CFG=3
M  V30 4 1 5 3 CFG=1
M  V30 5 1 4 6
M  V30 6 1 4 7
M  V30 7 1 5 8
M  V30 8 1 5 9
M  V30 9 1 6 10
M  V30 10 1 6 11
M  V30 11 1 7 12
M  V30 12 2 8 13
M  V30 13 1 8 14
M  V30 14 2 10 15
M  V30 15 1 10 16
M  V30 16 1 12 17 CFG=1
M  V30 17 1 13 18
M  V30 18 2 14 19
M  V30 19 1 16 20 CFG=1
M  V30 20 1 16 21
M  V30 21 2 18 22
M  V30 22 1 20 23
M  V30 23 1 21 24
M  V30 24 1 21 25
M  V30 25 1 21 26
M  V30 26 1 22 27
M  V30 27 2 23 28
M  V30 28 1 23 29
M  V30 29 1 27 30
M  V30 30 1 27 31
M  V30 31 1 27 32
M  V30 32 1 11 12
M  V30 33 1 19 22
M  V30 END BOND
M  V30 BEGIN COLLECTION
M  V30 MDLV30/STEABS ATOMS=(4 4 5 12 16)
M  V30 END COLLECTION
M  V30 END CTAB
M  END
>  <Compound ID>
22

>  <Name>


>  <Uniprot>
P40337

>  <Target>
VHL

>  <Smiles>
CC(=O)N[C@H](C(=O)N1C[C@H](O)C[C@H]1C(=O)N[C@@H](C)C1=CC=C(C(C)(C)C)C=C1)C(C)(C)C

>  <Kd (nM)>


>  <Assay (Kd)>


>  <Ki (nM)>


>  <Assay (Ki)>


>  <IC50 (nM)>
58897

>  <Assay (IC50)>
Displacement of a fluorencently tagged VHL ligand from VHL by fluorescence polarization based competitive binding affinity assay

>  <EC50 (nM)>


>  <Assay (EC50)>


>  <Article DOI>
10.1021/acs.jmedchem.8b01572

>  <Molecular Weight>
445.604

>  <Exact Mass>
445.294056728

>  <XLogP3>
3.29

>  <Heavy Atom Count>
32

>  <Ring Count>
2

>  <Hydrogen Bond Acceptor Count>
4

>  <Hydrogen Bond Donor Count>
3

>  <Rotatable Bond Count>
5

>  <Topological Polar Surface Area>
98.74

>  <Molecular Formula>
C25H39N3O4

>  <InChI>
InChI=1S/C25H39N3O4/c1-15(17-9-11-18(12-10-17)24(3,4)5)26-22(31)20-13-19(30)14-28(20)23(32)21(25(6,7)8)27-16(2)29/h9-12,15,19-21,30H,13-14H2,1-8H3,(H,26,31)(H,27,29)/t15-,19+,20-,21+/m0/s1

>  <InChI Key>
HWRVUOLZBZRHRB-PSMQTCRGSA-N

>  <BindingDB>


>  <PubChem>
153633208

>  <ChEMBL>
CHEMBL4553101

$$$$
Compound 23
Actelion Java MolfileCreator 2.0

  0  0  0  0  0  0              0 V3000
M  V30 BEGIN CTAB
M  V30 COUNTS 38 40 0 0 0
M  V30 BEGIN ATOM
M  V30 1 S 0.0 0.0 0.0 0
M  V30 2 C 0.919 -1.1665 0.0 0
M  V30 3 C 0.813 1.2607 0.0 0
M  V30 4 C 0.5066 -2.604 0.0 0
M  V30 5 C 2.3094 -0.6362 0.0 0
M  V30 6 N 2.2505 0.8719 0.0 0
M  V30 7 C -0.9544 -2.9692 0.0 0
M  V30 8 C 1.5435 -3.6644 0.0 0
M  V30 9 C 3.5466 -1.4493 0.0 0
M  V30 10 C -1.3668 -4.4068 0.0 0
M  V30 11 C 1.1311 -5.102 0.0 0
M  V30 12 C -0.3299 -5.4672 0.0 0
M  V30 13 C -0.7423 -6.9048 0.0 0 CFG=1
M  V30 14 N -2.2034 -7.27 0.0 0
M  V30 15 C 0.2945 -7.9652 0.0 0
M  V30 16 C -3.2638 -6.186 0.0 0
M  V30 17 C -0.1178 -9.4027 0.0 0
M  V30 18 O -2.875 -4.7249 0.0 0
M  V30 19 C -4.7249 -6.5513 0.0 0 CFG=1
M  V30 20 O -1.5789 -9.768 0.0 0
M  V30 21 N 0.919 -10.4632 0.0 0
M  V30 22 N -5.8914 -5.5851 0.0 0
M  V30 23 C -5.2905 -7.9299 0.0 0
M  V30 24 C 0.5066 -11.9007 0.0 0
M  V30 25 C -5.8089 -4.0768 0.0 0
M  V30 26 C -7.164 -6.3745 0.0 0
M  V30 27 C -6.7987 -7.8238 0.0 0 CFG=2
M  V30 28 O -4.4775 -3.3934 0.0 0
M  V30 29 C -7.0697 -3.2403 0.0 0 CFG=1
M  V30 30 O -7.7649 -8.9668 0.0 0
M  V30 31 N -8.4247 -3.9001 0.0 0
M  V30 32 C -6.9872 -1.732 0.0 0
M  V30 33 C -9.6855 -3.0635 0.0 0
M  V30 34 C -8.4954 -1.626 0.0 0
M  V30 35 C -5.5026 -1.8145 0.0 0
M  V30 36 C -6.9048 -0.2238 0.0 0
M  V30 37 O -9.603 -1.5553 0.0 0
M  V30 38 C -11.0406 -3.7234 0.0 0
M  V30 END ATOM
M  V30 BEGIN BOND
M  V30 1 1 1 2
M  V30 2 1 1 3
M  V30 3 1 2 4
M  V30 4 2 2 5
M  V30 5 2 3 6
M  V30 6 2 4 7
M  V30 7 1 4 8
M  V30 8 1 5 9
M  V30 9 1 7 10
M  V30 10 2 8 11
M  V30 11 2 10 12
M  V30 12 1 12 13
M  V30 13 1 13 14 CFG=3
M  V30 14 1 13 15
M  V30 15 1 14 16
M  V30 16 1 15 17
M  V30 17 2 16 18
M  V30 18 1 19 16 CFG=3
M  V30 19 2 17 20
M  V30 20 1 17 21
M  V30 21 1 19 22
M  V30 22 1 19 23
M  V30 23 1 21 24
M  V30 24 1 22 25
M  V30 25 1 22 26
M  V30 26 1 23 27
M  V30 27 2 25 28
M  V30 28 1 25 29
M  V30 29 1 27 30 CFG=1
M  V30 30 1 29 31 CFG=1
M  V30 31 1 29 32
M  V30 32 1 31 33
M  V30 33 1 32 34
M  V30 34 1 32 35
M  V30 35 1 32 36
M  V30 36 2 33 37
M  V30 37 1 33 38
M  V30 38 1 5 6
M  V30 39 1 11 12
M  V30 40 1 26 27
M  V30 END BOND
M  V30 BEGIN COLLECTION
M  V30 MDLV30/STEABS ATOMS=(4 13 19 27 29)
M  V30 END COLLECTION
M  V30 END CTAB
M  END
>  <Compound ID>
23

>  <Name>


>  <Uniprot>
P40337

>  <Target>
VHL

>  <Smiles>
CNC(=O)C[C@H](NC(=O)[C@@H]1C[C@@H](O)CN1C(=O)[C@@H](NC(C)=O)C(C)(C)C)C1=CC=C(C2=C(C)N=CS2)C=C1

>  <Kd (nM)>


>  <Assay (Kd)>


>  <Ki (nM)>


>  <Assay (Ki)>


>  <IC50 (nM)>
130

>  <Assay (IC50)>
Displacement of a fluorescent probe from VHL by fluorescence polarization based competitive binding affinity assay

>  <EC50 (nM)>


>  <Assay (EC50)>


>  <Article DOI>
10.1021/acs.jmedchem.8b01631

>  <Molecular Weight>
543.69

>  <Exact Mass>
543.251540284

>  <XLogP3>
1.59

>  <Heavy Atom Count>
38

>  <Ring Count>
3

>  <Hydrogen Bond Acceptor Count>
7

>  <Hydrogen Bond Donor Count>
4

>  <Rotatable Bond Count>
8

>  <Topological Polar Surface Area>
140.73

>  <Molecular Formula>
C27H37N5O5S

>  <InChI>
InChI=1S/C27H37N5O5S/c1-15-23(38-14-29-15)18-9-7-17(8-10-18)20(12-22(35)28-6)31-25(36)21-11-19(34)13-32(21)26(37)24(27(3,4)5)30-16(2)33/h7-10,14,19-21,24,34H,11-13H2,1-6H3,(H,28,35)(H,30,33)(H,31,36)/t19-,20+,21+,24-/m1/s1

>  <InChI Key>
DHJHMRSRAVXNPQ-MDAIXWLXSA-N

>  <BindingDB>


>  <PubChem>


>  <ChEMBL>


$$$$
Compound 24
Actelion Java MolfileCreator 2.0

  0  0  0  0  0  0              0 V3000
M  V30 BEGIN CTAB
M  V30 COUNTS 39 42 0 0 0
M  V30 BEGIN ATOM
M  V30 1 S 0.0 0.0 0.0 0
M  V30 2 C 0.6487 -1.3329 0.0 0
M  V30 3 C 1.0616 1.0616 0.0 0
M  V30 4 C -0.0589 -2.6422 0.0 0
M  V30 5 C 2.1232 -1.1087 0.0 0
M  V30 6 N 2.3709 0.3774 0.0 0
M  V30 7 C -1.5688 -2.6893 0.0 0
M  V30 8 C 0.7313 -3.9043 0.0 0
M  V30 9 C 3.1612 -2.1703 0.0 0
M  V30 10 C -2.2765 -3.9987 0.0 0
M  V30 11 C 0.0235 -5.2136 0.0 0
M  V30 12 C -1.4862 -5.2608 0.0 0
M  V30 13 C -2.1939 -6.5701 0.0 0 CFG=1
M  V30 14 N -3.7038 -6.6173 0.0 0
M  V30 15 C -1.4036 -7.8322 0.0 0
M  V30 16 C -4.5177 -5.3316 0.0 0
M  V30 17 C -2.1114 -9.1415 0.0 0
M  V30 18 O -3.8335 -3.9987 0.0 0
M  V30 19 C -6.0275 -5.3787 0.0 0 CFG=1
M  V30 20 O -3.6212 -9.1887 0.0 0
M  V30 21 N -1.3211 -10.4037 0.0 0
M  V30 22 N -6.9712 -4.1874 0.0 0
M  V30 23 C -6.8768 -6.6173 0.0 0
M  V30 24 C -2.0288 -11.713 0.0 0
M  V30 25 C -6.5701 -2.7365 0.0 0
M  V30 26 C -8.3866 -4.6946 0.0 0
M  V30 27 C -8.3276 -6.1926 0.0 0 CFG=2
M  V30 28 O -5.131 -2.3591 0.0 0
M  V30 29 C -7.6317 -1.6513 0.0 0 CFG=1
M  V30 30 O -9.519 -7.1127 0.0 0
M  V30 31 C -9.0944 -2.0052 0.0 0
M  V30 32 C -7.2307 -0.2005 0.0 0
M  V30 33 O -10.2621 -1.038 0.0 0
M  V30 34 C -9.6606 -3.3853 0.0 0
M  V30 35 C -8.2923 0.8846 0.0 0
M  V30 36 C -5.7916 0.1769 0.0 0
M  V30 37 N -11.5478 -1.8283 0.0 0
M  V30 38 C -11.1704 -3.2791 0.0 0
M  V30 39 C -12.1376 -4.4233 0.0 0
M  V30 END ATOM
M  V30 BEGIN BOND
M  V30 1 1 1 2
M  V30 2 1 1 3
M  V30 3 1 2 4
M  V30 4 2 2 5
M  V30 5 2 3 6
M  V30 6 2 4 7
M  V30 7 1 4 8
M  V30 8 1 5 9
M  V30 9 1 7 10
M  V30 10 2 8 11
M  V30 11 2 10 12
M  V30 12 1 12 13
M  V30 13 1 13 14 CFG=3
M  V30 14 1 13 15
M  V30 15 1 14 16
M  V30 16 1 15 17
M  V30 17 2 16 18
M  V30 18 1 19 16 CFG=3
M  V30 19 2 17 20
M  V30 20 1 17 21
M  V30 21 1 19 22
M  V30 22 1 19 23
M  V30 23 1 21 24
M  V30 24 1 22 25
M  V30 25 1 22 26
M  V30 26 1 23 27
M  V30 27 2 25 28
M  V30 28 1 29 25 CFG=1
M  V30 29 1 27 30 CFG=1
M  V30 30 1 29 31
M  V30 31 1 29 32
M  V30 32 1 31 33
M  V30 33 2 31 34
M  V30 34 1 32 35
M  V30 35 1 32 36
M  V30 36 1 33 37
M  V30 37 1 34 38
M  V30 38 1 38 39
M  V30 39 1 5 6
M  V30 40 1 11 12
M  V30 41 1 26 27
M  V30 42 2 37 38
M  V30 END BOND
M  V30 BEGIN COLLECTION
M  V30 MDLV30/STEABS ATOMS=(4 13 19 27 29)
M  V30 END COLLECTION
M  V30 END CTAB
M  END
>  <Compound ID>
24

>  <Name>


>  <Uniprot>
P40337

>  <Target>
VHL

>  <Smiles>
CNC(=O)C[C@H](NC(=O)[C@@H]1C[C@@H](O)CN1C(=O)[C@@H](C1=CC(C)=NO1)C(C)C)C1=CC=C(C2=C(C)N=CS2)C=C1

>  <Kd (nM)>


>  <Assay (Kd)>


>  <Ki (nM)>


>  <Assay (Ki)>


>  <IC50 (nM)>
26.8

>  <Assay (IC50)>
Displacement of a fluorescent probe from VHL by fluorescence polarization based competitive binding affinity assay

>  <EC50 (nM)>


>  <Assay (EC50)>


>  <Article DOI>
10.1021/acs.jmedchem.8b01631

>  <Molecular Weight>
553.685

>  <Exact Mass>
553.23589022

>  <XLogP3>
2.33

>  <Heavy Atom Count>
39

>  <Ring Count>
4

>  <Hydrogen Bond Acceptor Count>
8

>  <Hydrogen Bond Donor Count>
3

>  <Rotatable Bond Count>
9

>  <Topological Polar Surface Area>
137.66

>  <Molecular Formula>
C28H35N5O5S

>  <InChI>
InChI=1S/C28H35N5O5S/c1-15(2)25(23-10-16(3)32-38-23)28(37)33-13-20(34)11-22(33)27(36)31-21(12-24(35)29-5)18-6-8-19(9-7-18)26-17(4)30-14-39-26/h6-10,14-15,20-22,25,34H,11-13H2,1-5H3,(H,29,35)(H,31,36)/t20-,21+,22+,25-/m1/s1

>  <InChI Key>
BUFJKORGWVCZBG-HXKBJWFLSA-N

>  <BindingDB>


>  <PubChem>
155521301

>  <ChEMBL>
CHEMBL4449823

$$$$
Compound 25
Actelion Java MolfileCreator 2.0

  0  0  0  0  0  0              0 V3000
M  V30 BEGIN CTAB
M  V30 COUNTS 41 44 0 0 0
M  V30 BEGIN ATOM
M  V30 1 S 0.0 0.0 0.0 0
M  V30 2 C 0.9669 -1.1202 0.0 0
M  V30 3 C 0.7665 1.2971 0.0 0
M  V30 4 C 0.6132 -2.5707 0.0 0
M  V30 5 C 2.3348 -0.5306 0.0 0
M  V30 6 N 2.2169 0.9669 0.0 0
M  V30 7 C -0.8372 -2.9952 0.0 0
M  V30 8 C 1.698 -3.5848 0.0 0
M  V30 9 C 3.6084 -1.2971 0.0 0
M  V30 10 C -1.191 -4.4457 0.0 0
M  V30 11 C 1.3443 -5.0353 0.0 0
M  V30 12 C -0.1061 -5.4598 0.0 0
M  V30 13 C -0.4599 -6.9102 0.0 0 CFG=1
M  V30 14 N -1.9103 -7.3348 0.0 0
M  V30 15 C 0.6249 -7.9244 0.0 0
M  V30 16 C -3.0188 -6.297 0.0 0
M  V30 17 C 0.2712 -9.3748 0.0 0
M  V30 18 O -2.6886 -4.823 0.0 0
M  V30 19 C -4.4692 -6.7216 0.0 0 CFG=1
M  V30 20 O -1.1792 -9.7994 0.0 0
M  V30 21 N 1.3561 -10.389 0.0 0
M  V30 22 N -5.6721 -5.8018 0.0 0
M  V30 23 C -4.9763 -8.1249 0.0 0
M  V30 24 C 1.0023 -11.8394 0.0 0
M  V30 25 C -5.6485 -4.2924 0.0 0
M  V30 26 C -6.9102 -6.6508 0.0 0
M  V30 27 C -6.4857 -8.0777 0.0 0 CFG=2
M  V30 28 O -4.3513 -3.5612 0.0 0
M  V30 29 C -6.9456 -3.5023 0.0 0 CFG=1
M  V30 30 O -7.4055 -9.2569 0.0 0
M  V30 31 N -8.2664 -4.2098 0.0 0
M  V30 32 C -6.922 -1.9929 0.0 0
M  V30 33 C -9.5635 -3.4197 0.0 0
M  V30 34 C -8.4315 -1.9457 0.0 0
M  V30 35 C -5.4362 -2.0164 0.0 0
M  V30 36 C -6.8985 -0.4834 0.0 0
M  V30 37 O -9.5399 -1.9103 0.0 0
M  V30 38 C -10.8843 -4.1273 0.0 0
M  V30 39 F -10.4126 -5.5305 0.0 0
M  V30 40 C -12.3819 -4.3395 0.0 0
M  V30 41 C -11.8394 -2.948 0.0 0
M  V30 END ATOM
M  V30 BEGIN BOND
M  V30 1 1 1 2
M  V30 2 1 1 3
M  V30 3 1 2 4
M  V30 4 2 2 5
M  V30 5 2 3 6
M  V30 6 2 4 7
M  V30 7 1 4 8
M  V30 8 1 5 9
M  V30 9 1 7 10
M  V30 10 2 8 11
M  V30 11 2 10 12
M  V30 12 1 12 13
M  V30 13 1 13 14 CFG=3
M  V30 14 1 13 15
M  V30 15 1 14 16
M  V30 16 1 15 17
M  V30 17 2 16 18
M  V30 18 1 19 16 CFG=3
M  V30 19 2 17 20
M  V30 20 1 17 21
M  V30 21 1 19 22
M  V30 22 1 19 23
M  V30 23 1 21 24
M  V30 24 1 22 25
M  V30 25 1 22 26
M  V30 26 1 23 27
M  V30 27 2 25 28
M  V30 28 1 25 29
M  V30 29 1 27 30 CFG=1
M  V30 30 1 29 31 CFG=1
M  V30 31 1 29 32
M  V30 32 1 31 33
M  V30 33 1 32 34
M  V30 34 1 32 35
M  V30 35 1 32 36
M  V30 36 2 33 37
M  V30 37 1 33 38
M  V30 38 1 38 39
M  V30 39 1 38 40
M  V30 40 1 38 41
M  V30 41 1 5 6
M  V30 42 1 11 12
M  V30 43 1 26 27
M  V30 44 1 40 41
M  V30 END BOND
M  V30 BEGIN COLLECTION
M  V30 MDLV30/STEABS ATOMS=(4 13 19 27 29)
M  V30 END COLLECTION
M  V30 END CTAB
M  END
>  <Compound ID>
25

>  <Name>


>  <Uniprot>
P40337

>  <Target>
VHL

>  <Smiles>
CNC(=O)C[C@H](NC(=O)[C@@H]1C[C@@H](O)CN1C(=O)[C@@H](NC(=O)C1(F)CC1)C(C)(C)C)C1=CC=C(C2=C(C)N=CS2)C=C1

>  <Kd (nM)>


>  <Assay (Kd)>


>  <Ki (nM)>


>  <Assay (Ki)>


>  <IC50 (nM)>
190

>  <Assay (IC50)>
Displacement of a fluorescent probe from VHL by fluorescence polarization based competitive binding affinity assay

>  <EC50 (nM)>


>  <Assay (EC50)>


>  <Article DOI>
10.1021/acs.jmedchem.8b01631

>  <Molecular Weight>
587.718

>  <Exact Mass>
587.257768536

>  <XLogP3>
2.31

>  <Heavy Atom Count>
41

>  <Ring Count>
4

>  <Hydrogen Bond Acceptor Count>
7

>  <Hydrogen Bond Donor Count>
4

>  <Rotatable Bond Count>
9

>  <Topological Polar Surface Area>
140.73

>  <Molecular Formula>
C29H38FN5O5S

>  <InChI>
InChI=1S/C29H38FN5O5S/c1-16-23(41-15-32-16)18-8-6-17(7-9-18)20(13-22(37)31-5)33-25(38)21-12-19(36)14-35(21)26(39)24(28(2,3)4)34-27(40)29(30)10-11-29/h6-9,15,19-21,24,36H,10-14H2,1-5H3,(H,31,37)(H,33,38)(H,34,40)/t19-,20+,21+,24-/m1/s1

>  <InChI Key>
PTPPMFQIIPBSRV-MDAIXWLXSA-N

>  <BindingDB>


>  <PubChem>
153633179

>  <ChEMBL>


$$$$
Compound 26
Actelion Java MolfileCreator 2.0

  0  0  0  0  0  0              0 V3000
M  V30 BEGIN CTAB
M  V30 COUNTS 42 45 0 0 0
M  V30 BEGIN ATOM
M  V30 1 S 0.0 0.0 0.0 0
M  V30 2 C 0.9313 -1.1553 0.0 0
M  V30 3 C 0.8134 1.2614 0.0 0
M  V30 4 C 0.5305 -2.5935 0.0 0
M  V30 5 C 2.3224 -0.613 0.0 0
M  V30 6 N 2.2516 0.8841 0.0 0
M  V30 7 C -0.9313 -2.959 0.0 0
M  V30 8 C 1.5797 -3.6427 0.0 0
M  V30 9 C 3.5602 -1.4264 0.0 0
M  V30 10 C -1.3321 -4.3972 0.0 0
M  V30 11 C 1.1788 -5.081 0.0 0
M  V30 12 C -0.2829 -5.4465 0.0 0
M  V30 13 C -0.6837 -6.8847 0.0 0 CFG=1
M  V30 14 N -2.1455 -7.2502 0.0 0
M  V30 15 C 0.3654 -7.9339 0.0 0
M  V30 16 C -3.2183 -6.1774 0.0 0
M  V30 17 C -0.0353 -9.3722 0.0 0
M  V30 18 O -2.8411 -4.7155 0.0 0
M  V30 19 C -4.6802 -6.5428 0.0 0 CFG=1
M  V30 20 O -1.4971 -9.7376 0.0 0
M  V30 21 N 1.0138 -10.4214 0.0 0
M  V30 22 N -5.8473 -5.5879 0.0 0
M  V30 23 C -5.2342 -7.9339 0.0 0
M  V30 24 C 0.613 -11.8596 0.0 0
M  V30 25 C -5.7765 -4.0789 0.0 0
M  V30 26 C -7.1205 -6.3896 0.0 0
M  V30 27 C -6.7432 -7.8396 0.0 0 CFG=2
M  V30 28 O -4.4444 -3.3952 0.0 0
M  V30 29 C -7.038 -3.2419 0.0 0 CFG=1
M  V30 30 O -7.6981 -8.9949 0.0 0
M  V30 31 N -8.3937 -3.9021 0.0 0
M  V30 32 C -6.9672 -1.7329 0.0 0
M  V30 33 C -9.6551 -3.0651 0.0 0
M  V30 34 C -8.4762 -1.6386 0.0 0
M  V30 35 C -5.4818 -1.8037 0.0 0
M  V30 36 C -6.8965 -0.2239 0.0 0
M  V30 37 O -9.5844 -1.5561 0.0 0
M  V30 38 C -11.0108 -3.7253 0.0 0
M  V30 39 C -10.5864 -5.1517 0.0 0
M  V30 40 C -12.508 -3.8903 0.0 0
M  V30 41 C -11.9186 -2.511 0.0 0
M  V30 42 N -10.162 -6.5782 0.0 0
M  V30 END ATOM
M  V30 BEGIN BOND
M  V30 1 1 1 2
M  V30 2 1 1 3
M  V30 3 1 2 4
M  V30 4 2 2 5
M  V30 5 2 3 6
M  V30 6 2 4 7
M  V30 7 1 4 8
M  V30 8 1 5 9
M  V30 9 1 7 10
M  V30 10 2 8 11
M  V30 11 2 10 12
M  V30 12 1 12 13
M  V30 13 1 13 14 CFG=3
M  V30 14 1 13 15
M  V30 15 1 14 16
M  V30 16 1 15 17
M  V30 17 2 16 18
M  V30 18 1 19 16 CFG=3
M  V30 19 2 17 20
M  V30 20 1 17 21
M  V30 21 1 19 22
M  V30 22 1 19 23
M  V30 23 1 21 24
M  V30 24 1 22 25
M  V30 25 1 22 26
M  V30 26 1 23 27
M  V30 27 2 25 28
M  V30 28 1 25 29
M  V30 29 1 27 30 CFG=1
M  V30 30 1 29 31 CFG=1
M  V30 31 1 29 32
M  V30 32 1 31 33
M  V30 33 1 32 34
M  V30 34 1 32 35
M  V30 35 1 32 36
M  V30 36 2 33 37
M  V30 37 1 33 38
M  V30 38 1 38 39
M  V30 39 1 38 40
M  V30 40 1 38 41
M  V30 41 3 39 42
M  V30 42 1 5 6
M  V30 43 1 11 12
M  V30 44 1 26 27
M  V30 45 1 40 41
M  V30 END BOND
M  V30 BEGIN COLLECTION
M  V30 MDLV30/STEABS ATOMS=(4 13 19 27 29)
M  V30 END COLLECTION
M  V30 END CTAB
M  END
>  <Compound ID>
26

>  <Name>


>  <Uniprot>
P40337

>  <Target>
VHL

>  <Smiles>
CNC(=O)C[C@H](NC(=O)[C@@H]1C[C@@H](O)CN1C(=O)[C@@H](NC(=O)C1(C#N)CC1)C(C)(C)C)C1=CC=C(C2=C(C)N=CS2)C=C1

>  <Kd (nM)>


>  <Assay (Kd)>


>  <Ki (nM)>


>  <Assay (Ki)>


>  <IC50 (nM)>
28.6

>  <Assay (IC50)>
Displacement of a fluorescent probe from VHL by fluorescence polarization based competitive binding affinity assay

>  <EC50 (nM)>


>  <Assay (EC50)>


>  <Article DOI>
10.1021/acs.jmedchem.8b01631

>  <Molecular Weight>
594.738

>  <Exact Mass>
594.262439316

>  <XLogP3>
1.83

>  <Heavy Atom Count>
42

>  <Ring Count>
4

>  <Hydrogen Bond Acceptor Count>
8

>  <Hydrogen Bond Donor Count>
4

>  <Rotatable Bond Count>
9

>  <Topological Polar Surface Area>
164.52

>  <Molecular Formula>
C30H38N6O5S

>  <InChI>
InChI=1S/C30H38N6O5S/c1-17-24(42-16-33-17)19-8-6-18(7-9-19)21(13-23(38)32-5)34-26(39)22-12-20(37)14-36(22)27(40)25(29(2,3)4)35-28(41)30(15-31)10-11-30/h6-9,16,20-22,25,37H,10-14H2,1-5H3,(H,32,38)(H,34,39)(H,35,41)/t20-,21+,22+,25-/m1/s1

>  <InChI Key>
TXOUIGUFBKWBLO-HXKBJWFLSA-N

>  <BindingDB>


>  <PubChem>
153633209

>  <ChEMBL>


$$$$
Compound 27
Actelion Java MolfileCreator 2.0

  0  0  0  0  0  0              0 V3000
M  V30 BEGIN CTAB
M  V30 COUNTS 41 44 0 0 0
M  V30 BEGIN ATOM
M  V30 1 S 0.0 0.0 0.0 0
M  V30 2 C 0.9669 -1.1202 0.0 0
M  V30 3 C 0.7665 1.2971 0.0 0
M  V30 4 C 0.6132 -2.5707 0.0 0
M  V30 5 C 2.3348 -0.5306 0.0 0
M  V30 6 N 2.2169 0.9669 0.0 0
M  V30 7 C -0.8372 -2.9952 0.0 0
M  V30 8 C 1.698 -3.5848 0.0 0
M  V30 9 C 3.6084 -1.2971 0.0 0
M  V30 10 C -1.191 -4.4457 0.0 0
M  V30 11 C 1.3443 -5.0353 0.0 0
M  V30 12 C -0.1061 -5.4598 0.0 0
M  V30 13 C -0.4599 -6.9102 0.0 0 CFG=2
M  V30 14 N -1.9103 -7.3348 0.0 0
M  V30 15 C 0.6249 -7.9244 0.0 0
M  V30 16 C -3.0188 -6.297 0.0 0
M  V30 17 C 0.2712 -9.3748 0.0 0
M  V30 18 O -2.6886 -4.823 0.0 0
M  V30 19 C -4.4692 -6.7216 0.0 0 CFG=1
M  V30 20 O -1.1792 -9.7994 0.0 0
M  V30 21 N 1.3561 -10.389 0.0 0
M  V30 22 N -5.6721 -5.8018 0.0 0
M  V30 23 C -4.9763 -8.1249 0.0 0
M  V30 24 C 1.0023 -11.8394 0.0 0
M  V30 25 C -5.6485 -4.2924 0.0 0
M  V30 26 C -6.9102 -6.6508 0.0 0
M  V30 27 C -6.4857 -8.0777 0.0 0 CFG=2
M  V30 28 O -4.3513 -3.5612 0.0 0
M  V30 29 C -6.9456 -3.5023 0.0 0 CFG=1
M  V30 30 O -7.4055 -9.2569 0.0 0
M  V30 31 N -8.2664 -4.2098 0.0 0
M  V30 32 C -6.922 -1.9929 0.0 0
M  V30 33 C -9.5635 -3.4197 0.0 0
M  V30 34 C -8.4315 -1.9457 0.0 0
M  V30 35 C -5.4362 -2.0164 0.0 0
M  V30 36 C -6.8985 -0.4834 0.0 0
M  V30 37 O -9.5399 -1.9103 0.0 0
M  V30 38 C -10.8843 -4.1273 0.0 0
M  V30 39 F -10.4126 -5.5305 0.0 0
M  V30 40 C -12.3819 -4.3395 0.0 0
M  V30 41 C -11.8394 -2.948 0.0 0
M  V30 END ATOM
M  V30 BEGIN BOND
M  V30 1 1 1 2
M  V30 2 1 1 3
M  V30 3 1 2 4
M  V30 4 2 2 5
M  V30 5 2 3 6
M  V30 6 2 4 7
M  V30 7 1 4 8
M  V30 8 1 5 9
M  V30 9 1 7 10
M  V30 10 2 8 11
M  V30 11 2 10 12
M  V30 12 1 12 13
M  V30 13 1 13 14 CFG=1
M  V30 14 1 13 15
M  V30 15 1 14 16
M  V30 16 1 15 17
M  V30 17 2 16 18
M  V30 18 1 19 16 CFG=3
M  V30 19 2 17 20
M  V30 20 1 17 21
M  V30 21 1 19 22
M  V30 22 1 19 23
M  V30 23 1 21 24
M  V30 24 1 22 25
M  V30 25 1 22 26
M  V30 26 1 23 27
M  V30 27 2 25 28
M  V30 28 1 25 29
M  V30 29 1 27 30 CFG=1
M  V30 30 1 29 31 CFG=1
M  V30 31 1 29 32
M  V30 32 1 31 33
M  V30 33 1 32 34
M  V30 34 1 32 35
M  V30 35 1 32 36
M  V30 36 2 33 37
M  V30 37 1 33 38
M  V30 38 1 38 39
M  V30 39 1 38 40
M  V30 40 1 38 41
M  V30 41 1 5 6
M  V30 42 1 11 12
M  V30 43 1 26 27
M  V30 44 1 40 41
M  V30 END BOND
M  V30 BEGIN COLLECTION
M  V30 MDLV30/STEABS ATOMS=(4 13 19 27 29)
M  V30 END COLLECTION
M  V30 END CTAB
M  END
>  <Compound ID>
27

>  <Name>


>  <Uniprot>
P40337

>  <Target>
VHL

>  <Smiles>
CNC(=O)C[C@@H](NC(=O)[C@@H]1C[C@@H](O)CN1C(=O)[C@@H](NC(=O)C1(F)CC1)C(C)(C)C)C1=CC=C(C2=C(C)N=CS2)C=C1

>  <Kd (nM)>


>  <Assay (Kd)>


>  <Ki (nM)>


>  <Assay (Ki)>


>  <IC50 (nM)>
179

>  <Assay (IC50)>
Displacement of a fluorescent probe from VHL by fluorescence polarization based competitive binding affinity assay

>  <EC50 (nM)>


>  <Assay (EC50)>


>  <Article DOI>
10.1021/acs.jmedchem.8b01631

>  <Molecular Weight>
587.718

>  <Exact Mass>
587.257768536

>  <XLogP3>
2.31

>  <Heavy Atom Count>
41

>  <Ring Count>
4

>  <Hydrogen Bond Acceptor Count>
7

>  <Hydrogen Bond Donor Count>
4

>  <Rotatable Bond Count>
9

>  <Topological Polar Surface Area>
140.73

>  <Molecular Formula>
C29H38FN5O5S

>  <InChI>
InChI=1S/C29H38FN5O5S/c1-16-23(41-15-32-16)18-8-6-17(7-9-18)20(13-22(37)31-5)33-25(38)21-12-19(36)14-35(21)26(39)24(28(2,3)4)34-27(40)29(30)10-11-29/h6-9,15,19-21,24,36H,10-14H2,1-5H3,(H,31,37)(H,33,38)(H,34,40)/t19-,20-,21+,24-/m1/s1

>  <InChI Key>
PTPPMFQIIPBSRV-IUBSTNSRSA-N

>  <BindingDB>


>  <PubChem>
153633193

>  <ChEMBL>


$$$$
Compound 28
Actelion Java MolfileCreator 2.0

  0  0  0  0  0  0              0 V3000
M  V30 BEGIN CTAB
M  V30 COUNTS 41 44 0 0 0
M  V30 BEGIN ATOM
M  V30 1 S 0.0 0.0 0.0 0
M  V30 2 C 0.9669 -1.1202 0.0 0
M  V30 3 C 0.7665 1.2971 0.0 0
M  V30 4 C 0.6132 -2.5707 0.0 0
M  V30 5 C 2.3348 -0.5306 0.0 0
M  V30 6 N 2.2169 0.9669 0.0 0
M  V30 7 C -0.8372 -2.9952 0.0 0
M  V30 8 C 1.698 -3.5848 0.0 0
M  V30 9 C 3.6084 -1.2971 0.0 0
M  V30 10 C -1.191 -4.4457 0.0 0
M  V30 11 C 1.3443 -5.0353 0.0 0
M  V30 12 C -0.1061 -5.4598 0.0 0
M  V30 13 C -0.4599 -6.9102 0.0 0 CFG=1
M  V30 14 N -1.9103 -7.3348 0.0 0
M  V30 15 C 0.6249 -7.9244 0.0 0
M  V30 16 C -3.0188 -6.297 0.0 0
M  V30 17 C 0.2712 -9.3748 0.0 0
M  V30 18 O -2.6886 -4.823 0.0 0
M  V30 19 C -4.4692 -6.7216 0.0 0 CFG=1
M  V30 20 O -1.1792 -9.7994 0.0 0
M  V30 21 N 1.3561 -10.389 0.0 0
M  V30 22 N -5.6721 -5.8018 0.0 0
M  V30 23 C -4.9763 -8.1249 0.0 0
M  V30 24 C 1.0023 -11.8394 0.0 0
M  V30 25 C -5.6485 -4.2924 0.0 0
M  V30 26 C -6.9102 -6.6508 0.0 0
M  V30 27 C -6.4857 -8.0777 0.0 0 CFG=2
M  V30 28 O -4.3513 -3.5612 0.0 0
M  V30 29 C -6.9456 -3.5023 0.0 0 CFG=2
M  V30 30 O -7.4055 -9.2569 0.0 0
M  V30 31 N -8.2664 -4.2098 0.0 0
M  V30 32 C -6.922 -1.9929 0.0 0
M  V30 33 C -9.5635 -3.4197 0.0 0
M  V30 34 C -8.4315 -1.9457 0.0 0
M  V30 35 C -5.4362 -2.0164 0.0 0
M  V30 36 C -6.8985 -0.4834 0.0 0
M  V30 37 O -9.5399 -1.9103 0.0 0
M  V30 38 C -10.8843 -4.1273 0.0 0
M  V30 39 F -10.4126 -5.5305 0.0 0
M  V30 40 C -12.3819 -4.3395 0.0 0
M  V30 41 C -11.8394 -2.948 0.0 0
M  V30 END ATOM
M  V30 BEGIN BOND
M  V30 1 1 1 2
M  V30 2 1 1 3
M  V30 3 1 2 4
M  V30 4 2 2 5
M  V30 5 2 3 6
M  V30 6 2 4 7
M  V30 7 1 4 8
M  V30 8 1 5 9
M  V30 9 1 7 10
M  V30 10 2 8 11
M  V30 11 2 10 12
M  V30 12 1 12 13
M  V30 13 1 13 14 CFG=3
M  V30 14 1 13 15
M  V30 15 1 14 16
M  V30 16 1 15 17
M  V30 17 2 16 18
M  V30 18 1 19 16 CFG=3
M  V30 19 2 17 20
M  V30 20 1 17 21
M  V30 21 1 19 22
M  V30 22 1 19 23
M  V30 23 1 21 24
M  V30 24 1 22 25
M  V30 25 1 22 26
M  V30 26 1 23 27
M  V30 27 2 25 28
M  V30 28 1 25 29
M  V30 29 1 27 30 CFG=1
M  V30 30 1 29 31 CFG=3
M  V30 31 1 29 32
M  V30 32 1 31 33
M  V30 33 1 32 34
M  V30 34 1 32 35
M  V30 35 1 32 36
M  V30 36 2 33 37
M  V30 37 1 33 38
M  V30 38 1 38 39
M  V30 39 1 38 40
M  V30 40 1 38 41
M  V30 41 1 5 6
M  V30 42 1 11 12
M  V30 43 1 26 27
M  V30 44 1 40 41
M  V30 END BOND
M  V30 BEGIN COLLECTION
M  V30 MDLV30/STEABS ATOMS=(4 13 19 27 29)
M  V30 END COLLECTION
M  V30 END CTAB
M  END
>  <Compound ID>
28

>  <Name>


>  <Uniprot>
P40337

>  <Target>
VHL

>  <Smiles>
CNC(=O)C[C@H](NC(=O)[C@@H]1C[C@@H](O)CN1C(=O)[C@H](NC(=O)C1(F)CC1)C(C)(C)C)C1=CC=C(C2=C(C)N=CS2)C=C1

>  <Kd (nM)>


>  <Assay (Kd)>


>  <Ki (nM)>


>  <Assay (Ki)>


>  <IC50 (nM)>
78

>  <Assay (IC50)>
Displacement of a fluorescent probe from VHL by fluorescence polarization based competitive binding affinity assay

>  <EC50 (nM)>


>  <Assay (EC50)>


>  <Article DOI>
10.1021/acs.jmedchem.8b01631

>  <Molecular Weight>
587.718

>  <Exact Mass>
587.257768536

>  <XLogP3>
2.31

>  <Heavy Atom Count>
41

>  <Ring Count>
4

>  <Hydrogen Bond Acceptor Count>
7

>  <Hydrogen Bond Donor Count>
4

>  <Rotatable Bond Count>
9

>  <Topological Polar Surface Area>
140.73

>  <Molecular Formula>
C29H38FN5O5S

>  <InChI>
InChI=1S/C29H38FN5O5S/c1-16-23(41-15-32-16)18-8-6-17(7-9-18)20(13-22(37)31-5)33-25(38)21-12-19(36)14-35(21)26(39)24(28(2,3)4)34-27(40)29(30)10-11-29/h6-9,15,19-21,24,36H,10-14H2,1-5H3,(H,31,37)(H,33,38)(H,34,40)/t19-,20+,21+,24+/m1/s1

>  <InChI Key>
PTPPMFQIIPBSRV-XBJMDHIQSA-N

>  <BindingDB>


>  <PubChem>
153633178

>  <ChEMBL>


$$$$
Compound 29
Actelion Java MolfileCreator 2.0

  0  0  0  0  0  0              0 V3000
M  V30 BEGIN CTAB
M  V30 COUNTS 38 42 0 0 0
M  V30 BEGIN ATOM
M  V30 1 S 0.0 0.0 0.0 0
M  V30 2 C 0.8407 -1.2315 0.0 0
M  V30 3 C -1.4565 -0.4144 0.0 0
M  V30 4 C 2.3328 -1.2552 0.0 0
M  V30 5 C -0.0828 -2.4157 0.0 0
M  V30 6 N -1.5039 -1.9065 0.0 0
M  V30 7 C 3.0433 -2.5697 0.0 0
M  V30 8 C 3.1026 0.0355 0.0 0
M  V30 9 C 0.3315 -3.8486 0.0 0
M  V30 10 C 4.5354 -2.5933 0.0 0
M  V30 11 C 4.5946 0.0118 0.0 0
M  V30 12 C 5.3052 -1.3026 0.0 0
M  V30 13 C 6.7973 -1.3263 0.0 0
M  V30 14 N 7.567 -0.0355 0.0 0
M  V30 15 C 9.0591 -0.0592 0.0 0
M  V30 16 O 9.7696 -1.3736 0.0 0
M  V30 17 C 9.8288 1.2315 0.0 0 CFG=1
M  V30 18 N 11.3209 1.3618 0.0 0
M  V30 19 C 9.2367 2.6289 0.0 0
M  V30 20 C 12.2801 0.2249 0.0 0
M  V30 21 C 11.6643 2.842 0.0 0
M  V30 22 C 10.3735 3.6118 0.0 0 CFG=2
M  V30 23 O 11.7709 -1.1841 0.0 0
M  V30 24 C 13.7485 0.5092 0.0 0 CFG=1
M  V30 25 O 10.2433 5.1275 0.0 0
M  V30 26 N 14.7077 -0.6276 0.0 0
M  V30 27 C 14.234 1.942 0.0 0
M  V30 28 C 14.3406 -2.0841 0.0 0
M  V30 29 C 16.1998 -0.4973 0.0 0
M  V30 30 C 13.2511 3.1026 0.0 0
M  V30 31 C 15.7024 2.2262 0.0 0
M  V30 32 O 12.9432 -2.6526 0.0 0
M  V30 33 C 15.6077 -2.8539 0.0 0
M  V30 34 C 16.7682 -1.871 0.0 0
M  V30 35 C 15.8682 -4.3223 0.0 0
M  V30 36 C 18.1774 -2.3565 0.0 0
M  V30 37 C 17.2774 -4.8078 0.0 0
M  V30 38 C 18.4379 -3.8249 0.0 0
M  V30 END ATOM
M  V30 BEGIN BOND
M  V30 1 1 1 2
M  V30 2 1 1 3
M  V30 3 1 2 4
M  V30 4 2 2 5
M  V30 5 2 3 6
M  V30 6 2 4 7
M  V30 7 1 4 8
M  V30 8 1 5 9
M  V30 9 1 7 10
M  V30 10 2 8 11
M  V30 11 2 10 12
M  V30 12 1 12 13
M  V30 13 1 13 14
M  V30 14 1 14 15
M  V30 15 2 15 16
M  V30 16 1 17 15 CFG=3
M  V30 17 1 17 18
M  V30 18 1 17 19
M  V30 19 1 18 20
M  V30 20 1 18 21
M  V30 21 1 19 22
M  V30 22 2 20 23
M  V30 23 1 20 24
M  V30 24 1 22 25 CFG=1
M  V30 25 1 24 26 CFG=3
M  V30 26 1 24 27
M  V30 27 1 26 28
M  V30 28 1 26 29
M  V30 29 1 27 30
M  V30 30 1 27 31
M  V30 31 2 28 32
M  V30 32 1 28 33
M  V30 33 1 29 34
M  V30 34 1 33 35
M  V30 35 1 34 36
M  V30 36 2 35 37
M  V30 37 2 36 38
M  V30 38 1 5 6
M  V30 39 1 11 12
M  V30 40 1 21 22
M  V30 41 2 33 34
M  V30 42 1 37 38
M  V30 END BOND
M  V30 BEGIN COLLECTION
M  V30 MDLV30/STEABS ATOMS=(3 17 22 24)
M  V30 END COLLECTION
M  V30 END CTAB
M  END
>  <Compound ID>
29

>  <Name>
VL285

>  <Uniprot>
P40337

>  <Target>
VHL

>  <Smiles>
CC1=C(C2=CC=C(CNC(=O)[C@@H]3C[C@@H](O)CN3C(=O)[C@H](C(C)C)N3CC4=CC=CC=C4C3=O)C=C2)SC=N1

>  <Kd (nM)>


>  <Assay (Kd)>


>  <Ki (nM)>


>  <Assay (Ki)>


>  <IC50 (nM)>
340

>  <Assay (IC50)>
Displacement of FAM-DEALA-Hyp-YIPD from VHL by fluorescence polarization based competitive binding affinity assay

>  <EC50 (nM)>


>  <Assay (EC50)>


>  <Article DOI>
10.1021/acschembio.5b00442

>  <Molecular Weight>
532.666

>  <Exact Mass>
532.214426504

>  <XLogP3>
3.33

>  <Heavy Atom Count>
38

>  <Ring Count>
5

>  <Hydrogen Bond Acceptor Count>
6

>  <Hydrogen Bond Donor Count>
2

>  <Rotatable Bond Count>
7

>  <Topological Polar Surface Area>
102.84

>  <Molecular Formula>
C29H32N4O4S

>  <InChI>
InChI=1S/C29H32N4O4S/c1-17(2)25(33-14-21-6-4-5-7-23(21)28(33)36)29(37)32-15-22(34)12-24(32)27(35)30-13-19-8-10-20(11-9-19)26-18(3)31-16-38-26/h4-11,16-17,22,24-25,34H,12-15H2,1-3H3,(H,30,35)/t22-,24+,25+/m1/s1

>  <InChI Key>
HEDFFPYRFJKXQP-VJTSUQJLSA-N

>  <BindingDB>


>  <PubChem>
71667162

>  <ChEMBL>


$$$$
Compound 30
Actelion Java MolfileCreator 2.0

  0  0  0  0  0  0              0 V3000
M  V30 BEGIN CTAB
M  V30 COUNTS 35 37 0 0 0
M  V30 BEGIN ATOM
M  V30 1 O 0.0 0.0 0.0 0
M  V30 2 C -0.1534 -1.4754 0.0 0
M  V30 3 N 1.0505 -2.337 0.0 0
M  V30 4 C -1.5344 -2.0892 0.0 0 CFG=1
M  V30 5 C 2.4079 -1.6997 0.0 0 CFG=2
M  V30 6 N -2.8564 -1.3456 0.0 0
M  V30 7 C -1.8413 -3.541 0.0 0
M  V30 8 C 2.5377 -0.2006 0.0 0
M  V30 9 C 3.6118 -2.5613 0.0 0
M  V30 10 C -3.0335 0.1534 0.0 0
M  V30 11 C -3.9777 -2.3489 0.0 0
M  V30 12 C -3.3403 -3.6945 0.0 0 CFG=2
M  V30 13 C 1.3101 0.6846 0.0 0
M  V30 14 C 3.8951 0.4367 0.0 0
M  V30 15 C 3.4584 -4.0368 0.0 0
M  V30 16 O -1.8413 1.0623 0.0 0
M  V30 17 C -4.4145 0.7672 0.0 0 CFG=1
M  V30 18 O -4.084 -4.9928 0.0 0
M  V30 19 C 1.44 2.1836 0.0 0
M  V30 20 C 4.025 1.9357 0.0 0
M  V30 21 O 2.0774 -4.6505 0.0 0
M  V30 22 N 4.6623 -4.8984 0.0 0
M  V30 23 C -5.6302 -0.118 0.0 0
M  V30 24 C -4.5915 2.2662 0.0 0
M  V30 25 C 2.7974 2.821 0.0 0
M  V30 26 C 4.5089 -6.3739 0.0 0
M  V30 27 O -7.0703 0.3423 0.0 0
M  V30 28 C -5.6302 -1.6052 0.0 0
M  V30 29 C -5.9843 2.88 0.0 0
M  V30 30 C -3.3994 3.1751 0.0 0
M  V30 31 C 2.9272 4.32 0.0 0
M  V30 32 N -7.9555 -0.8616 0.0 0
M  V30 33 C -7.0585 -2.0656 0.0 0
M  V30 34 C 3.0571 5.8191 0.0 0
M  V30 35 C -7.5188 -3.482 0.0 0
M  V30 END ATOM
M  V30 BEGIN BOND
M  V30 1 2 1 2
M  V30 2 1 2 3
M  V30 3 1 4 2 CFG=3
M  V30 4 1 5 3 CFG=3
M  V30 5 1 4 6
M  V30 6 1 4 7
M  V30 7 1 5 8
M  V30 8 1 5 9
M  V30 9 1 6 10
M  V30 10 1 6 11
M  V30 11 1 7 12
M  V30 12 2 8 13
M  V30 13 1 8 14
M  V30 14 1 9 15
M  V30 15 2 10 16
M  V30 16 1 17 10 CFG=1
M  V30 17 1 12 18 CFG=1
M  V30 18 1 13 19
M  V30 19 2 14 20
M  V30 20 2 15 21
M  V30 21 1 15 22
M  V30 22 1 17 23
M  V30 23 1 17 24
M  V30 24 2 19 25
M  V30 25 1 22 26
M  V30 26 1 23 27
M  V30 27 2 23 28
M  V30 28 1 24 29
M  V30 29 1 24 30
M  V30 30 1 25 31
M  V30 31 1 27 32
M  V30 32 1 28 33
M  V30 33 3 31 34
M  V30 34 1 33 35
M  V30 35 1 11 12
M  V30 36 1 20 25
M  V30 37 2 32 33
M  V30 END BOND
M  V30 BEGIN COLLECTION
M  V30 MDLV30/STEABS ATOMS=(4 4 5 12 17)
M  V30 END COLLECTION
M  V30 END CTAB
M  END
>  <Compound ID>
30

>  <Name>


>  <Uniprot>
P40337

>  <Target>
VHL

>  <Smiles>
C#CC1=CC=C([C@H](CC(=O)NC)NC(=O)[C@@H]2C[C@@H](O)CN2C(=O)[C@@H](C2=CC(C)=NO2)C(C)C)C=C1

>  <Kd (nM)>


>  <Assay (Kd)>


>  <Ki (nM)>
58

>  <Assay (Ki)>
FP

>  <IC50 (nM)>
210

>  <Assay (IC50)>
Displacement of FAM-DEALA-Hyp-YIPD from VHL by fluorescence polarization based competitive binding affinity assay

>  <EC50 (nM)>


>  <Assay (EC50)>


>  <Article DOI>
10.1021/acs.jmedchem.9b01393

>  <Molecular Weight>
480.565

>  <Exact Mass>
480.237270124

>  <XLogP3>
1.48

>  <Heavy Atom Count>
35

>  <Ring Count>
3

>  <Hydrogen Bond Acceptor Count>
6

>  <Hydrogen Bond Donor Count>
3

>  <Rotatable Bond Count>
8

>  <Topological Polar Surface Area>
124.77

>  <Molecular Formula>
C26H32N4O5

>  <InChI>
InChI=1S/C26H32N4O5/c1-6-17-7-9-18(10-8-17)20(13-23(32)27-5)28-25(33)21-12-19(31)14-30(21)26(34)24(15(2)3)22-11-16(4)29-35-22/h1,7-11,15,19-21,24,31H,12-14H2,2-5H3,(H,27,32)(H,28,33)/t19-,20+,21+,24-/m1/s1

>  <InChI Key>
RILDEXHTOOMQCV-MDAIXWLXSA-N

>  <BindingDB>


>  <PubChem>
155564175

>  <ChEMBL>
CHEMBL4574171

$$$$
Compound 31
Actelion Java MolfileCreator 2.0

  0  0  0  0  0  0              0 V3000
M  V30 BEGIN CTAB
M  V30 COUNTS 35 37 0 0 0
M  V30 BEGIN ATOM
M  V30 1 O 0.0 0.0 0.0 0
M  V30 2 C -0.1534 -1.4754 0.0 0
M  V30 3 N 1.0505 -2.337 0.0 0
M  V30 4 C -1.5344 -2.0892 0.0 0 CFG=1
M  V30 5 C 2.4079 -1.6997 0.0 0 CFG=2
M  V30 6 N -2.8564 -1.3456 0.0 0
M  V30 7 C -1.8413 -3.541 0.0 0
M  V30 8 C 2.5377 -0.2006 0.0 0
M  V30 9 C 3.6118 -2.5613 0.0 0
M  V30 10 C -3.0335 0.1534 0.0 0
M  V30 11 C -3.9777 -2.3489 0.0 0
M  V30 12 C -3.3403 -3.6945 0.0 0 CFG=2
M  V30 13 C 1.3101 0.6846 0.0 0
M  V30 14 C 3.8951 0.4367 0.0 0
M  V30 15 C 3.4584 -4.0368 0.0 0
M  V30 16 O -1.8413 1.0623 0.0 0
M  V30 17 C -4.4145 0.7672 0.0 0 CFG=1
M  V30 18 O -4.084 -4.9928 0.0 0
M  V30 19 C 1.44 2.1836 0.0 0
M  V30 20 C 4.025 1.9357 0.0 0
M  V30 21 O 2.0774 -4.6505 0.0 0
M  V30 22 N 4.6623 -4.8984 0.0 0
M  V30 23 C -5.6302 -0.118 0.0 0
M  V30 24 C -4.5915 2.2662 0.0 0
M  V30 25 C 2.7974 2.821 0.0 0
M  V30 26 C 4.5089 -6.3739 0.0 0
M  V30 27 O -7.0703 0.3423 0.0 0
M  V30 28 C -5.6302 -1.6052 0.0 0
M  V30 29 C -5.9843 2.88 0.0 0
M  V30 30 C -3.3994 3.1751 0.0 0
M  V30 31 C 2.9272 4.32 0.0 0
M  V30 32 N -7.9555 -0.8616 0.0 0
M  V30 33 C -7.0585 -2.0656 0.0 0
M  V30 34 N 3.0571 5.8191 0.0 0
M  V30 35 C -7.5188 -3.482 0.0 0
M  V30 END ATOM
M  V30 BEGIN BOND
M  V30 1 2 1 2
M  V30 2 1 2 3
M  V30 3 1 4 2 CFG=3
M  V30 4 1 5 3 CFG=3
M  V30 5 1 4 6
M  V30 6 1 4 7
M  V30 7 1 5 8
M  V30 8 1 5 9
M  V30 9 1 6 10
M  V30 10 1 6 11
M  V30 11 1 7 12
M  V30 12 2 8 13
M  V30 13 1 8 14
M  V30 14 1 9 15
M  V30 15 2 10 16
M  V30 16 1 17 10 CFG=1
M  V30 17 1 12 18 CFG=1
M  V30 18 1 13 19
M  V30 19 2 14 20
M  V30 20 2 15 21
M  V30 21 1 15 22
M  V30 22 1 17 23
M  V30 23 1 17 24
M  V30 24 2 19 25
M  V30 25 1 22 26
M  V30 26 1 23 27
M  V30 27 2 23 28
M  V30 28 1 24 29
M  V30 29 1 24 30
M  V30 30 1 25 31
M  V30 31 1 27 32
M  V30 32 1 28 33
M  V30 33 3 31 34
M  V30 34 1 33 35
M  V30 35 1 11 12
M  V30 36 1 20 25
M  V30 37 2 32 33
M  V30 END BOND
M  V30 BEGIN COLLECTION
M  V30 MDLV30/STEABS ATOMS=(4 4 5 12 17)
M  V30 END COLLECTION
M  V30 END CTAB
M  END
>  <Compound ID>
31

>  <Name>


>  <Uniprot>
P40337

>  <Target>
VHL

>  <Smiles>
CNC(=O)C[C@H](NC(=O)[C@@H]1C[C@@H](O)CN1C(=O)[C@@H](C1=CC(C)=NO1)C(C)C)C1=CC=C(C#N)C=C1

>  <Kd (nM)>


>  <Assay (Kd)>


>  <Ki (nM)>
310

>  <Assay (Ki)>
FP

>  <IC50 (nM)>
1080

>  <Assay (IC50)>
Displacement of FAM-DEALA-Hyp-YIPD from VHL by fluorescence polarization based competitive binding affinity assay

>  <EC50 (nM)>


>  <Assay (EC50)>


>  <Article DOI>
10.1021/acs.jmedchem.9b01393

>  <Molecular Weight>
481.553

>  <Exact Mass>
481.232519092

>  <XLogP3>
0.96

>  <Heavy Atom Count>
35

>  <Ring Count>
3

>  <Hydrogen Bond Acceptor Count>
7

>  <Hydrogen Bond Donor Count>
3

>  <Rotatable Bond Count>
8

>  <Topological Polar Surface Area>
148.56

>  <Molecular Formula>
C25H31N5O5

>  <InChI>
InChI=1S/C25H31N5O5/c1-14(2)23(21-9-15(3)29-35-21)25(34)30-13-18(31)10-20(30)24(33)28-19(11-22(32)27-4)17-7-5-16(12-26)6-8-17/h5-9,14,18-20,23,31H,10-11,13H2,1-4H3,(H,27,32)(H,28,33)/t18-,19+,20+,23-/m1/s1

>  <InChI Key>
GEWZUXIXBYUKKN-QTDGGUCWSA-N

>  <BindingDB>


>  <PubChem>
155529914

>  <ChEMBL>
CHEMBL4463827

$$$$
Compound 32
Actelion Java MolfileCreator 2.0

  0  0  0  0  0  0              0 V3000
M  V30 BEGIN CTAB
M  V30 COUNTS 34 36 0 0 0
M  V30 BEGIN ATOM
M  V30 1 Br 0.0 0.0 0.0 0
M  V30 2 C -0.0118 -1.4896 0.0 0
M  V30 3 C -1.3241 -2.2226 0.0 0
M  V30 4 C 1.2768 -2.2344 0.0 0
M  V30 5 C -1.3359 -3.7122 0.0 0
M  V30 6 C 1.265 -3.724 0.0 0
M  V30 7 C -0.0472 -4.457 0.0 0
M  V30 8 C -0.0591 -5.9467 0.0 0 CFG=1
M  V30 9 N -1.3714 -6.6797 0.0 0
M  V30 10 C 1.2295 -6.6915 0.0 0
M  V30 11 C -2.6837 -5.9112 0.0 0
M  V30 12 C 1.2177 -8.1811 0.0 0
M  V30 13 O -2.6955 -4.3979 0.0 0
M  V30 14 C -3.9959 -6.6442 0.0 0 CFG=1
M  V30 15 O -0.0945 -8.9141 0.0 0
M  V30 16 N 2.5063 -8.9259 0.0 0
M  V30 17 N -5.3792 -6.0176 0.0 0
M  V30 18 C -4.1615 -8.122 0.0 0
M  V30 19 C 2.4945 -10.4156 0.0 0
M  V30 20 C -5.6984 -4.5398 0.0 0
M  V30 21 C -6.3959 -7.1171 0.0 0
M  V30 22 C -5.6393 -8.4176 0.0 0 CFG=2
M  V30 23 O -4.5989 -3.5231 0.0 0
M  V30 24 C -7.1407 -4.0669 0.0 0 CFG=1
M  V30 25 O -6.2659 -9.7771 0.0 0
M  V30 26 C -8.2639 -5.06 0.0 0
M  V30 27 C -7.4599 -2.5891 0.0 0
M  V30 28 O -9.7417 -4.7408 0.0 0
M  V30 29 C -8.122 -6.5378 0.0 0
M  V30 30 C -8.9023 -2.1162 0.0 0
M  V30 31 C -6.3604 -1.5723 0.0 0
M  V30 32 N -10.5101 -6.0294 0.0 0
M  V30 33 C -9.5052 -7.1407 0.0 0
M  V30 34 C -9.8244 -8.5949 0.0 0
M  V30 END ATOM
M  V30 BEGIN BOND
M  V30 1 1 1 2
M  V30 2 2 2 3
M  V30 3 1 2 4
M  V30 4 1 3 5
M  V30 5 2 4 6
M  V30 6 2 5 7
M  V30 7 1 7 8
M  V30 8 1 8 9 CFG=3
M  V30 9 1 8 10
M  V30 10 1 9 11
M  V30 11 1 10 12
M  V30 12 2 11 13
M  V30 13 1 14 11 CFG=3
M  V30 14 2 12 15
M  V30 15 1 12 16
M  V30 16 1 14 17
M  V30 17 1 14 18
M  V30 18 1 16 19
M  V30 19 1 17 20
M  V30 20 1 17 21
M  V30 21 1 18 22
M  V30 22 2 20 23
M  V30 23 1 24 20 CFG=1
M  V30 24 1 22 25 CFG=1
M  V30 25 1 24 26
M  V30 26 1 24 27
M  V30 27 1 26 28
M  V30 28 2 26 29
M  V30 29 1 27 30
M  V30 30 1 27 31
M  V30 31 1 28 32
M  V30 32 1 29 33
M  V30 33 1 33 34
M  V30 34 1 6 7
M  V30 35 1 21 22
M  V30 36 2 32 33
M  V30 END BOND
M  V30 BEGIN COLLECTION
M  V30 MDLV30/STEABS ATOMS=(4 8 14 22 24)
M  V30 END COLLECTION
M  V30 END CTAB
M  END
>  <Compound ID>
32

>  <Name>


>  <Uniprot>
P40337

>  <Target>
VHL

>  <Smiles>
CNC(=O)C[C@H](NC(=O)[C@@H]1C[C@@H](O)CN1C(=O)[C@@H](C1=CC(C)=NO1)C(C)C)C1=CC=C(Br)C=C1

>  <Kd (nM)>


>  <Assay (Kd)>


>  <Ki (nM)>
280

>  <Assay (Ki)>
FP

>  <IC50 (nM)>
980

>  <Assay (IC50)>
Displacement of FAM-DEALA-Hyp-YIPD from VHL by fluorescence polarization based competitive binding affinity assay

>  <EC50 (nM)>


>  <Assay (EC50)>


>  <Article DOI>
10.1021/acs.jmedchem.9b01393

>  <Molecular Weight>
535.439

>  <Exact Mass>
534.147782192

>  <XLogP3>
1.93

>  <Heavy Atom Count>
34

>  <Ring Count>
3

>  <Hydrogen Bond Acceptor Count>
6

>  <Hydrogen Bond Donor Count>
3

>  <Rotatable Bond Count>
8

>  <Topological Polar Surface Area>
124.77

>  <Molecular Formula>
C24H31BrN4O5

>  <InChI>
InChI=1S/C24H31BrN4O5/c1-13(2)22(20-9-14(3)28-34-20)24(33)29-12-17(30)10-19(29)23(32)27-18(11-21(31)26-4)15-5-7-16(25)8-6-15/h5-9,13,17-19,22,30H,10-12H2,1-4H3,(H,26,31)(H,27,32)/t17-,18+,19+,22-/m1/s1

>  <InChI Key>
DZVFTEQNLPBNLU-MDPIYQRISA-N

>  <BindingDB>


>  <PubChem>
155533526

>  <ChEMBL>
CHEMBL4469498

$$$$
Compound 33
Actelion Java MolfileCreator 2.0

  0  0  0  0  0  0              0 V3000
M  V30 BEGIN CTAB
M  V30 COUNTS 34 36 0 0 0
M  V30 BEGIN ATOM
M  V30 1 Cl 0.0 0.0 0.0 0
M  V30 2 C -0.0118 -1.4896 0.0 0
M  V30 3 C -1.3241 -2.2226 0.0 0
M  V30 4 C 1.2768 -2.2344 0.0 0
M  V30 5 C -1.3359 -3.7122 0.0 0
M  V30 6 C 1.265 -3.724 0.0 0
M  V30 7 C -0.0472 -4.457 0.0 0
M  V30 8 C -0.0591 -5.9467 0.0 0 CFG=1
M  V30 9 N -1.3714 -6.6797 0.0 0
M  V30 10 C 1.2295 -6.6915 0.0 0
M  V30 11 C -2.6837 -5.9112 0.0 0
M  V30 12 C 1.2177 -8.1811 0.0 0
M  V30 13 O -2.6955 -4.3979 0.0 0
M  V30 14 C -3.9959 -6.6442 0.0 0 CFG=1
M  V30 15 O -0.0945 -8.9141 0.0 0
M  V30 16 N 2.5063 -8.9259 0.0 0
M  V30 17 N -5.3792 -6.0176 0.0 0
M  V30 18 C -4.1615 -8.122 0.0 0
M  V30 19 C 2.4945 -10.4156 0.0 0
M  V30 20 C -5.6984 -4.5398 0.0 0
M  V30 21 C -6.3959 -7.1171 0.0 0
M  V30 22 C -5.6393 -8.4176 0.0 0 CFG=2
M  V30 23 O -4.5989 -3.5231 0.0 0
M  V30 24 C -7.1407 -4.0669 0.0 0 CFG=1
M  V30 25 O -6.2659 -9.7771 0.0 0
M  V30 26 C -8.2639 -5.06 0.0 0
M  V30 27 C -7.4599 -2.5891 0.0 0
M  V30 28 O -9.7417 -4.7408 0.0 0
M  V30 29 C -8.122 -6.5378 0.0 0
M  V30 30 C -8.9023 -2.1162 0.0 0
M  V30 31 C -6.3604 -1.5723 0.0 0
M  V30 32 N -10.5101 -6.0294 0.0 0
M  V30 33 C -9.5052 -7.1407 0.0 0
M  V30 34 C -9.8244 -8.5949 0.0 0
M  V30 END ATOM
M  V30 BEGIN BOND
M  V30 1 1 1 2
M  V30 2 2 2 3
M  V30 3 1 2 4
M  V30 4 1 3 5
M  V30 5 2 4 6
M  V30 6 2 5 7
M  V30 7 1 7 8
M  V30 8 1 8 9 CFG=3
M  V30 9 1 8 10
M  V30 10 1 9 11
M  V30 11 1 10 12
M  V30 12 2 11 13
M  V30 13 1 14 11 CFG=3
M  V30 14 2 12 15
M  V30 15 1 12 16
M  V30 16 1 14 17
M  V30 17 1 14 18
M  V30 18 1 16 19
M  V30 19 1 17 20
M  V30 20 1 17 21
M  V30 21 1 18 22
M  V30 22 2 20 23
M  V30 23 1 24 20 CFG=1
M  V30 24 1 22 25 CFG=1
M  V30 25 1 24 26
M  V30 26 1 24 27
M  V30 27 1 26 28
M  V30 28 2 26 29
M  V30 29 1 27 30
M  V30 30 1 27 31
M  V30 31 1 28 32
M  V30 32 1 29 33
M  V30 33 1 33 34
M  V30 34 1 6 7
M  V30 35 1 21 22
M  V30 36 2 32 33
M  V30 END BOND
M  V30 BEGIN COLLECTION
M  V30 MDLV30/STEABS ATOMS=(4 8 14 22 24)
M  V30 END COLLECTION
M  V30 END CTAB
M  END
>  <Compound ID>
33

>  <Name>


>  <Uniprot>
P40337

>  <Target>
VHL

>  <Smiles>
CNC(=O)C[C@H](NC(=O)[C@@H]1C[C@@H](O)CN1C(=O)[C@@H](C1=CC(C)=NO1)C(C)C)C1=CC=C(Cl)C=C1

>  <Kd (nM)>


>  <Assay (Kd)>


>  <Ki (nM)>
720

>  <Assay (Ki)>
FP

>  <IC50 (nM)>
2520

>  <Assay (IC50)>
Displacement of FAM-DEALA-Hyp-YIPD from VHL by fluorescence polarization based competitive binding affinity assay

>  <EC50 (nM)>


>  <Assay (EC50)>


>  <Article DOI>
10.1021/acs.jmedchem.9b01393

>  <Molecular Weight>
490.988

>  <Exact Mass>
490.198297772

>  <XLogP3>
1.86

>  <Heavy Atom Count>
34

>  <Ring Count>
3

>  <Hydrogen Bond Acceptor Count>
6

>  <Hydrogen Bond Donor Count>
3

>  <Rotatable Bond Count>
8

>  <Topological Polar Surface Area>
124.77

>  <Molecular Formula>
C24H31ClN4O5

>  <InChI>
InChI=1S/C24H31ClN4O5/c1-13(2)22(20-9-14(3)28-34-20)24(33)29-12-17(30)10-19(29)23(32)27-18(11-21(31)26-4)15-5-7-16(25)8-6-15/h5-9,13,17-19,22,30H,10-12H2,1-4H3,(H,26,31)(H,27,32)/t17-,18+,19+,22-/m1/s1

>  <InChI Key>
AVTUCSSCVXIPKR-MDPIYQRISA-N

>  <BindingDB>


>  <PubChem>
155554579

>  <ChEMBL>
CHEMBL4557341

$$$$
Compound 34
Actelion Java MolfileCreator 2.0

  0  0  0  0  0  0              0 V3000
M  V30 BEGIN CTAB
M  V30 COUNTS 34 36 0 0 0
M  V30 BEGIN ATOM
M  V30 1 F 0.0 0.0 0.0 0
M  V30 2 C -0.0118 -1.4896 0.0 0
M  V30 3 C -1.3241 -2.2226 0.0 0
M  V30 4 C 1.2768 -2.2344 0.0 0
M  V30 5 C -1.3359 -3.7122 0.0 0
M  V30 6 C 1.265 -3.724 0.0 0
M  V30 7 C -0.0472 -4.457 0.0 0
M  V30 8 C -0.0591 -5.9467 0.0 0 CFG=1
M  V30 9 N -1.3714 -6.6797 0.0 0
M  V30 10 C 1.2295 -6.6915 0.0 0
M  V30 11 C -2.6837 -5.9112 0.0 0
M  V30 12 C 1.2177 -8.1811 0.0 0
M  V30 13 O -2.6955 -4.3979 0.0 0
M  V30 14 C -3.9959 -6.6442 0.0 0 CFG=1
M  V30 15 O -0.0945 -8.9141 0.0 0
M  V30 16 N 2.5063 -8.9259 0.0 0
M  V30 17 N -5.3792 -6.0176 0.0 0
M  V30 18 C -4.1615 -8.122 0.0 0
M  V30 19 C 2.4945 -10.4156 0.0 0
M  V30 20 C -5.6984 -4.5398 0.0 0
M  V30 21 C -6.3959 -7.1171 0.0 0
M  V30 22 C -5.6393 -8.4176 0.0 0 CFG=2
M  V30 23 O -4.5989 -3.5231 0.0 0
M  V30 24 C -7.1407 -4.0669 0.0 0 CFG=1
M  V30 25 O -6.2659 -9.7771 0.0 0
M  V30 26 C -8.2639 -5.06 0.0 0
M  V30 27 C -7.4599 -2.5891 0.0 0
M  V30 28 O -9.7417 -4.7408 0.0 0
M  V30 29 C -8.122 -6.5378 0.0 0
M  V30 30 C -8.9023 -2.1162 0.0 0
M  V30 31 C -6.3604 -1.5723 0.0 0
M  V30 32 N -10.5101 -6.0294 0.0 0
M  V30 33 C -9.5052 -7.1407 0.0 0
M  V30 34 C -9.8244 -8.5949 0.0 0
M  V30 END ATOM
M  V30 BEGIN BOND
M  V30 1 1 1 2
M  V30 2 2 2 3
M  V30 3 1 2 4
M  V30 4 1 3 5
M  V30 5 2 4 6
M  V30 6 2 5 7
M  V30 7 1 7 8
M  V30 8 1 8 9 CFG=3
M  V30 9 1 8 10
M  V30 10 1 9 11
M  V30 11 1 10 12
M  V30 12 2 11 13
M  V30 13 1 14 11 CFG=3
M  V30 14 2 12 15
M  V30 15 1 12 16
M  V30 16 1 14 17
M  V30 17 1 14 18
M  V30 18 1 16 19
M  V30 19 1 17 20
M  V30 20 1 17 21
M  V30 21 1 18 22
M  V30 22 2 20 23
M  V30 23 1 24 20 CFG=1
M  V30 24 1 22 25 CFG=1
M  V30 25 1 24 26
M  V30 26 1 24 27
M  V30 27 1 26 28
M  V30 28 2 26 29
M  V30 29 1 27 30
M  V30 30 1 27 31
M  V30 31 1 28 32
M  V30 32 1 29 33
M  V30 33 1 33 34
M  V30 34 1 6 7
M  V30 35 1 21 22
M  V30 36 2 32 33
M  V30 END BOND
M  V30 BEGIN COLLECTION
M  V30 MDLV30/STEABS ATOMS=(4 8 14 22 24)
M  V30 END COLLECTION
M  V30 END CTAB
M  END
>  <Compound ID>
34

>  <Name>


>  <Uniprot>
P40337

>  <Target>
VHL

>  <Smiles>
CNC(=O)C[C@H](NC(=O)[C@@H]1C[C@@H](O)CN1C(=O)[C@@H](C1=CC(C)=NO1)C(C)C)C1=CC=C(F)C=C1

>  <Kd (nM)>


>  <Assay (Kd)>


>  <Ki (nM)>
3000

>  <Assay (Ki)>
FP

>  <IC50 (nM)>
10500

>  <Assay (IC50)>
Displacement of FAM-DEALA-Hyp-YIPD from VHL by fluorescence polarization based competitive binding affinity assay

>  <EC50 (nM)>


>  <Assay (EC50)>


>  <Article DOI>
10.1021/acs.jmedchem.9b01393

>  <Molecular Weight>
474.533

>  <Exact Mass>
474.227848312

>  <XLogP3>
1.34

>  <Heavy Atom Count>
34

>  <Ring Count>
3

>  <Hydrogen Bond Acceptor Count>
6

>  <Hydrogen Bond Donor Count>
3

>  <Rotatable Bond Count>
8

>  <Topological Polar Surface Area>
124.77

>  <Molecular Formula>
C24H31FN4O5

>  <InChI>
InChI=1S/C24H31FN4O5/c1-13(2)22(20-9-14(3)28-34-20)24(33)29-12-17(30)10-19(29)23(32)27-18(11-21(31)26-4)15-5-7-16(25)8-6-15/h5-9,13,17-19,22,30H,10-12H2,1-4H3,(H,26,31)(H,27,32)/t17-,18+,19+,22-/m1/s1

>  <InChI Key>
QOVORLCCBWSWNE-MDPIYQRISA-N

>  <BindingDB>


>  <PubChem>
155539556

>  <ChEMBL>
CHEMBL4515241

$$$$
Compound 35
Actelion Java MolfileCreator 2.0

  0  0  0  0  0  0              0 V3000
M  V30 BEGIN CTAB
M  V30 COUNTS 33 35 0 0 0
M  V30 BEGIN ATOM
M  V30 1 O 0.0 0.0 0.0 0
M  V30 2 C 0.0825 -1.4852 0.0 0
M  V30 3 N 1.4145 -2.1335 0.0 0
M  V30 4 C -1.1787 -2.3103 0.0 0 CFG=1
M  V30 5 C 2.6522 -1.2848 0.0 0 CFG=2
M  V30 6 N -2.5932 -1.7799 0.0 0
M  V30 7 C -1.2494 -3.7955 0.0 0
M  V30 8 C 2.5461 0.2239 0.0 0
M  V30 9 C 3.9841 -1.9331 0.0 0
M  V30 10 C -3.0176 -0.33 0.0 0
M  V30 11 C -3.5362 -2.9468 0.0 0
M  V30 12 C -2.6993 -4.1963 0.0 0 CFG=2
M  V30 13 C 1.1905 0.8958 0.0 0
M  V30 14 C 3.7838 1.0726 0.0 0
M  V30 15 C 4.0667 -3.4183 0.0 0
M  V30 16 O -1.9803 0.7544 0.0 0
M  V30 17 C -4.4792 0.0471 0.0 0 CFG=1
M  V30 18 O -3.2297 -5.5873 0.0 0
M  V30 19 C 1.0844 2.4046 0.0 0
M  V30 20 C 3.6777 2.5814 0.0 0
M  V30 21 O 2.8054 -4.2435 0.0 0
M  V30 22 N 5.3987 -4.0667 0.0 0
M  V30 23 C -5.5401 -1.0137 0.0 0
M  V30 24 C -4.9036 1.497 0.0 0
M  V30 25 C 2.3221 3.2533 0.0 0
M  V30 26 C 5.4812 -5.5519 0.0 0
M  V30 27 O -7.0371 -0.7897 0.0 0
M  V30 28 C -5.2926 -2.4753 0.0 0
M  V30 29 C -6.3652 1.8742 0.0 0
M  V30 30 C -3.8663 2.5814 0.0 0
M  V30 31 N -7.709 -2.1217 0.0 0
M  V30 32 C -6.6246 -3.159 0.0 0
M  V30 33 C -6.8485 -4.6325 0.0 0
M  V30 END ATOM
M  V30 BEGIN BOND
M  V30 1 2 1 2
M  V30 2 1 2 3
M  V30 3 1 4 2 CFG=3
M  V30 4 1 5 3 CFG=3
M  V30 5 1 4 6
M  V30 6 1 4 7
M  V30 7 1 5 8
M  V30 8 1 5 9
M  V30 9 1 6 10
M  V30 10 1 6 11
M  V30 11 1 7 12
M  V30 12 2 8 13
M  V30 13 1 8 14
M  V30 14 1 9 15
M  V30 15 2 10 16
M  V30 16 1 17 10 CFG=1
M  V30 17 1 12 18 CFG=1
M  V30 18 1 13 19
M  V30 19 2 14 20
M  V30 20 2 15 21
M  V30 21 1 15 22
M  V30 22 1 17 23
M  V30 23 1 17 24
M  V30 24 2 19 25
M  V30 25 1 22 26
M  V30 26 1 23 27
M  V30 27 2 23 28
M  V30 28 1 24 29
M  V30 29 1 24 30
M  V30 30 1 27 31
M  V30 31 1 28 32
M  V30 32 1 32 33
M  V30 33 1 11 12
M  V30 34 1 20 25
M  V30 35 2 31 32
M  V30 END BOND
M  V30 BEGIN COLLECTION
M  V30 MDLV30/STEABS ATOMS=(4 4 5 12 17)
M  V30 END COLLECTION
M  V30 END CTAB
M  END
>  <Compound ID>
35

>  <Name>


>  <Uniprot>
P40337

>  <Target>
VHL

>  <Smiles>
CNC(=O)C[C@H](NC(=O)[C@@H]1C[C@@H](O)CN1C(=O)[C@@H](C1=CC(C)=NO1)C(C)C)C1=CC=CC=C1

>  <Kd (nM)>


>  <Assay (Kd)>


>  <Ki (nM)>
2800

>  <Assay (Ki)>
FP

>  <IC50 (nM)>
9900

>  <Assay (IC50)>
Displacement of FAM-DEALA-Hyp-YIPD from VHL by fluorescence polarization based competitive binding affinity assay

>  <EC50 (nM)>


>  <Assay (EC50)>


>  <Article DOI>
10.1021/acs.jmedchem.9b01393

>  <Molecular Weight>
456.543

>  <Exact Mass>
456.237270124

>  <XLogP3>
1.24

>  <Heavy Atom Count>
33

>  <Ring Count>
3

>  <Hydrogen Bond Acceptor Count>
6

>  <Hydrogen Bond Donor Count>
3

>  <Rotatable Bond Count>
8

>  <Topological Polar Surface Area>
124.77

>  <Molecular Formula>
C24H32N4O5

>  <InChI>
InChI=1S/C24H32N4O5/c1-14(2)22(20-10-15(3)27-33-20)24(32)28-13-17(29)11-19(28)23(31)26-18(12-21(30)25-4)16-8-6-5-7-9-16/h5-10,14,17-19,22,29H,11-13H2,1-4H3,(H,25,30)(H,26,31)/t17-,18+,19+,22-/m1/s1

>  <InChI Key>
YRJWYFLCJKATIJ-MDPIYQRISA-N

>  <BindingDB>


>  <PubChem>
155565130

>  <ChEMBL>
CHEMBL4578149

$$$$
Compound 36
Actelion Java MolfileCreator 2.0

  0  0  0  0  0  0              0 V3000
M  V30 BEGIN CTAB
M  V30 COUNTS 31 32 0 0 0
M  V30 BEGIN ATOM
M  V30 1 O 0.0 0.0 0.0 0
M  V30 2 C 0.3412 -1.4472 0.0 0
M  V30 3 N 1.7649 -1.859 0.0 0
M  V30 4 C -0.753 -2.4708 0.0 0 CFG=1
M  V30 5 C 2.8356 -0.8118 0.0 0 CFG=2
M  V30 6 N -2.2355 -2.1884 0.0 0
M  V30 7 C -0.5647 -3.9416 0.0 0
M  V30 8 C 2.4708 0.6589 0.0 0
M  V30 9 C 4.2593 -1.2236 0.0 0
M  V30 10 C -2.8944 -0.8236 0.0 0
M  V30 11 C -2.9532 -3.4945 0.0 0
M  V30 12 C -1.9296 -4.577 0.0 0 CFG=2
M  V30 13 C 1.0236 1.0942 0.0 0
M  V30 14 C 3.5415 1.706 0.0 0
M  V30 15 C 4.6005 -2.6709 0.0 0
M  V30 16 O -2.059 0.4235 0.0 0
M  V30 17 C -4.4005 -0.7059 0.0 0 CFG=1
M  V30 18 O -2.212 -6.036 0.0 0
M  V30 19 C 0.6589 2.565 0.0 0
M  V30 20 C 3.1768 3.1768 0.0 0
M  V30 21 O 3.5062 -3.6945 0.0 0
M  V30 22 N 6.0242 -3.0827 0.0 0
M  V30 23 N -5.2594 -1.9296 0.0 0
M  V30 24 C -5.0594 0.6589 0.0 0
M  V30 25 C 1.7296 3.6121 0.0 0
M  V30 26 C 6.3654 -4.5299 0.0 0
M  V30 27 C -6.7655 -1.8119 0.0 0
M  V30 28 C -6.5654 0.7765 0.0 0
M  V30 29 C -4.224 1.9061 0.0 0
M  V30 30 O -7.4244 -0.4471 0.0 0
M  V30 31 C -7.6244 -3.0356 0.0 0
M  V30 END ATOM
M  V30 BEGIN BOND
M  V30 1 2 1 2
M  V30 2 1 2 3
M  V30 3 1 4 2 CFG=3
M  V30 4 1 5 3 CFG=3
M  V30 5 1 4 6
M  V30 6 1 4 7
M  V30 7 1 5 8
M  V30 8 1 5 9
M  V30 9 1 6 10
M  V30 10 1 6 11
M  V30 11 1 7 12
M  V30 12 2 8 13
M  V30 13 1 8 14
M  V30 14 1 9 15
M  V30 15 2 10 16
M  V30 16 1 10 17
M  V30 17 1 12 18 CFG=1
M  V30 18 1 13 19
M  V30 19 2 14 20
M  V30 20 2 15 21
M  V30 21 1 15 22
M  V30 22 1 17 23 CFG=1
M  V30 23 1 17 24
M  V30 24 2 19 25
M  V30 25 1 22 26
M  V30 26 1 23 27
M  V30 27 1 24 28
M  V30 28 1 24 29
M  V30 29 2 27 30
M  V30 30 1 27 31
M  V30 31 1 11 12
M  V30 32 1 20 25
M  V30 END BOND
M  V30 BEGIN COLLECTION
M  V30 MDLV30/STEABS ATOMS=(4 4 5 12 17)
M  V30 END COLLECTION
M  V30 END CTAB
M  END
>  <Compound ID>
36

>  <Name>


>  <Uniprot>
P40337

>  <Target>
VHL

>  <Smiles>
CNC(=O)C[C@H](NC(=O)[C@@H]1C[C@@H](O)CN1C(=O)[C@@H](NC(C)=O)C(C)C)C1=CC=CC=C1

>  <Kd (nM)>


>  <Assay (Kd)>


>  <Ki (nM)>


>  <Assay (Ki)>


>  <IC50 (nM)>
>100000

>  <Assay (IC50)>
Displacement of FAM-DEALA-Hyp-YIPD from VHL by fluorescence polarization based competitive binding affinity assay

>  <EC50 (nM)>


>  <Assay (EC50)>


>  <Article DOI>
10.1021/acs.jmedchem.9b01393

>  <Molecular Weight>
432.521

>  <Exact Mass>
432.237270124

>  <XLogP3>
0.1

>  <Heavy Atom Count>
31

>  <Ring Count>
2

>  <Hydrogen Bond Acceptor Count>
5

>  <Hydrogen Bond Donor Count>
4

>  <Rotatable Bond Count>
8

>  <Topological Polar Surface Area>
127.84

>  <Molecular Formula>
C22H32N4O5

>  <InChI>
InChI=1S/C22H32N4O5/c1-13(2)20(24-14(3)27)22(31)26-12-16(28)10-18(26)21(30)25-17(11-19(29)23-4)15-8-6-5-7-9-15/h5-9,13,16-18,20,28H,10-12H2,1-4H3,(H,23,29)(H,24,27)(H,25,30)/t16-,17+,18+,20+/m1/s1

>  <InChI Key>
UEIQRCHIEZGBTN-LXZJYRNTSA-N

>  <BindingDB>


>  <PubChem>
155569045

>  <ChEMBL>
CHEMBL4592044

$$$$
Compound 37
Actelion Java MolfileCreator 2.0

  0  0  0  0  0  0              0 V3000
M  V30 BEGIN CTAB
M  V30 COUNTS 40 44 0 0 0
M  V30 BEGIN ATOM
M  V30 1 Cl 0.0 0.0 0.0 0
M  V30 2 C 1.2972 0.7547 0.0 0
M  V30 3 C 1.2972 2.2642 0.0 0
M  V30 4 C 2.5708 0.0117 0.0 0
M  V30 5 C 2.5944 3.0189 0.0 0
M  V30 6 C 3.868 0.7665 0.0 0
M  V30 7 C 3.868 2.276 0.0 0
M  V30 8 C 5.1652 3.0307 0.0 0 CFG=1
M  V30 9 N 6.5214 2.4175 0.0 0
M  V30 10 C 5.3185 4.5284 0.0 0 CFG=1
M  V30 11 C 7.5238 3.5378 0.0 0
M  V30 12 N 6.769 4.835 0.0 0
M  V30 13 C 4.1982 5.5544 0.0 0
M  V30 14 C 8.9979 3.3845 0.0 0
M  V30 15 C 7.3823 6.2148 0.0 0
M  V30 16 C 4.5166 7.0285 0.0 0
M  V30 17 C 2.7595 5.118 0.0 0
M  V30 18 C 9.8823 4.5991 0.0 0
M  V30 19 C 9.5875 2.0283 0.0 0
M  V30 20 O 8.7856 6.7219 0.0 0
M  V30 21 N 6.4978 7.4412 0.0 0
M  V30 22 C 3.3963 8.0544 0.0 0
M  V30 23 C 1.6392 6.144 0.0 0
M  V30 24 O 9.2691 5.9789 0.0 0
M  V30 25 C 11.3564 4.4458 0.0 0
M  V30 26 C 11.0616 1.875 0.0 0
M  V30 27 C 7.111 8.821 0.0 0
M  V30 28 C 5.0001 7.3115 0.0 0
M  V30 29 C 1.9576 7.6181 0.0 0
M  V30 30 C 10.1536 7.1936 0.0 0
M  V30 31 C 11.9461 3.0897 0.0 0
M  V30 32 C 6.2266 10.0474 0.0 0
M  V30 33 C 4.1156 8.538 0.0 0
M  V30 34 Cl 0.8372 8.6441 0.0 0
M  V30 35 C 9.5403 8.5733 0.0 0
M  V30 36 C 11.6277 7.0403 0.0 0
M  V30 37 O 13.4202 2.9364 0.0 0
M  V30 38 O 6.8398 11.4272 0.0 0
M  V30 39 N 4.7289 9.9177 0.0 0
M  V30 40 C 14.0098 1.5802 0.0 0
M  V30 END ATOM
M  V30 BEGIN BOND
M  V30 1 1 1 2
M  V30 2 2 2 3
M  V30 3 1 2 4
M  V30 4 1 3 5
M  V30 5 2 4 6
M  V30 6 2 5 7
M  V30 7 1 8 7 CFG=3
M  V30 8 1 8 9
M  V30 9 1 8 10
M  V30 10 2 9 11
M  V30 11 1 10 12
M  V30 12 1 10 13 CFG=3
M  V30 13 1 11 14
M  V30 14 1 12 15
M  V30 15 2 13 16
M  V30 16 1 13 17
M  V30 17 2 14 18
M  V30 18 1 14 19
M  V30 19 2 15 20
M  V30 20 1 15 21
M  V30 21 1 16 22
M  V30 22 2 17 23
M  V30 23 1 18 24
M  V30 24 1 18 25
M  V30 25 2 19 26
M  V30 26 1 21 27
M  V30 27 1 21 28
M  V30 28 2 22 29
M  V30 29 1 24 30
M  V30 30 2 25 31
M  V30 31 1 27 32
M  V30 32 1 28 33
M  V30 33 1 29 34
M  V30 34 1 30 35
M  V30 35 1 30 36
M  V30 36 1 31 37
M  V30 37 2 32 38
M  V30 38 1 32 39
M  V30 39 1 37 40
M  V30 40 1 6 7
M  V30 41 1 11 12
M  V30 42 1 23 29
M  V30 43 1 26 31
M  V30 44 1 33 39
M  V30 END BOND
M  V30 BEGIN COLLECTION
M  V30 MDLV30/STEABS ATOMS=(2 8 10)
M  V30 END COLLECTION
M  V30 END CTAB
M  END
>  <Compound ID>
37

>  <Name>
Nutlin-3B

>  <Uniprot>
Q00987

>  <Target>
MDM2

>  <Smiles>
COC1=CC=C(C2=N[C@H](C3=CC=C(Cl)C=C3)[C@H](C3=CC=C(Cl)C=C3)N2C(=O)N2CCNC(=O)C2)C(OC(C)C)=C1

>  <Kd (nM)>


>  <Assay (Kd)>


>  <Ki (nM)>


>  <Assay (Ki)>


>  <IC50 (nM)>
13600

>  <Assay (IC50)>
Inhibition of interaction between MDM2 and p53 on a Biacore S51

>  <EC50 (nM)>


>  <Assay (EC50)>


>  <Article DOI>
10.1126/science.1092472

>  <Molecular Weight>
581.5

>  <Exact Mass>
580.1644108

>  <XLogP3>
5.2

>  <Heavy Atom Count>
40

>  <Ring Count>
5

>  <Hydrogen Bond Acceptor Count>
5

>  <Hydrogen Bond Donor Count>
1

>  <Rotatable Bond Count>
6

>  <Topological Polar Surface Area>
83.47

>  <Molecular Formula>
C30H30Cl2N4O4

>  <InChI>
InChI=1S/C30H30Cl2N4O4/c1-18(2)40-25-16-23(39-3)12-13-24(25)29-34-27(19-4-8-21(31)9-5-19)28(20-6-10-22(32)11-7-20)36(29)30(38)35-15-14-33-26(37)17-35/h4-13,16,18,27-28H,14-15,17H2,1-3H3,(H,33,37)/t27-,28+/m1/s1

>  <InChI Key>
BDUHCSBCVGXTJM-IZLXSDGUSA-N

>  <BindingDB>
50392532

>  <PubChem>
16755649

>  <ChEMBL>
CHEMBL2152332

$$$$
Compound 38
Actelion Java MolfileCreator 2.0

  0  0  0  0  0  0              0 V3000
M  V30 BEGIN CTAB
M  V30 COUNTS 22 22 0 0 0
M  V30 BEGIN ATOM
M  V30 1 O 0.0 0.0 0.0 0
M  V30 2 C -1.3234 -0.7208 0.0 0
M  V30 3 O -2.6232 0.059 0.0 0
M  V30 4 C -1.347 -2.2096 0.0 0 CFG=1
M  V30 5 N -0.0708 -2.9659 0.0 0
M  V30 6 C -2.6705 -2.9304 0.0 0
M  V30 7 C 1.2289 -2.2214 0.0 0
M  V30 8 C -3.9703 -2.1506 0.0 0
M  V30 9 O 1.2289 -0.7089 0.0 0
M  V30 10 C 2.505 -2.9777 0.0 0 CFG=1
M  V30 11 C -5.2937 -2.8714 0.0 0
M  V30 12 C -3.9703 -0.638 0.0 0
M  V30 13 O 2.4814 -4.4666 0.0 0
M  V30 14 C 3.8049 -2.2333 0.0 0 CFG=2
M  V30 15 N 3.8049 -0.7208 0.0 0
M  V30 16 C 5.081 -2.9895 0.0 0
M  V30 17 C 6.3809 -2.2451 0.0 0
M  V30 18 C 6.3809 -0.7326 0.0 0
M  V30 19 C 7.657 -3.0013 0.0 0
M  V30 20 C 7.6807 0.0118 0.0 0
M  V30 21 C 8.9568 -2.2569 0.0 0
M  V30 22 C 8.9568 -0.7444 0.0 0
M  V30 END ATOM
M  V30 BEGIN BOND
M  V30 1 2 1 2
M  V30 2 1 2 3
M  V30 3 1 2 4
M  V30 4 1 4 5 CFG=1
M  V30 5 1 4 6
M  V30 6 1 5 7
M  V30 7 1 6 8
M  V30 8 2 7 9
M  V30 9 1 7 10
M  V30 10 1 8 11
M  V30 11 1 8 12
M  V30 12 1 10 13 CFG=3
M  V30 13 1 10 14
M  V30 14 1 14 15 CFG=3
M  V30 15 1 14 16
M  V30 16 1 16 17
M  V30 17 2 17 18
M  V30 18 1 17 19
M  V30 19 1 18 20
M  V30 20 2 19 21
M  V30 21 2 20 22
M  V30 22 1 21 22
M  V30 END BOND
M  V30 BEGIN COLLECTION
M  V30 MDLV30/STEABS ATOMS=(3 4 10 14)
M  V30 END COLLECTION
M  V30 END CTAB
M  END
>  <Compound ID>
38

>  <Name>
bestatin

>  <Uniprot>
Q13490

>  <Target>
cIAP1

>  <Smiles>
CC(C)C[C@H](NC(=O)[C@@H](O)[C@H](N)CC1=CC=CC=C1)C(=O)O

>  <Kd (nM)>


>  <Assay (Kd)>


>  <Ki (nM)>


>  <Assay (Ki)>


>  <IC50 (nM)>


>  <Assay (IC50)>


>  <EC50 (nM)>


>  <Assay (EC50)>


>  <Article DOI>
10.1016/j.bmcl.2008.04.031

>  <Molecular Weight>
308.378

>  <Exact Mass>
308.173607248

>  <XLogP3>
-0.96

>  <Heavy Atom Count>
22

>  <Ring Count>
1

>  <Hydrogen Bond Acceptor Count>
4

>  <Hydrogen Bond Donor Count>
4

>  <Rotatable Bond Count>
8

>  <Topological Polar Surface Area>
112.65

>  <Molecular Formula>
C16H24N2O4

>  <InChI>
InChI=1S/C16H24N2O4/c1-10(2)8-13(16(21)22)18-15(20)14(19)12(17)9-11-6-4-3-5-7-11/h3-7,10,12-14,19H,8-9,17H2,1-2H3,(H,18,20)(H,21,22)/t12-,13+,14+/m1/s1

>  <InChI Key>
VGGGPCQERPFHOB-RDBSUJKOSA-N

>  <BindingDB>
23971

>  <PubChem>
72172

>  <ChEMBL>
CHEMBL29292

$$$$
Compound 39
Actelion Java MolfileCreator 2.0

  0  0  0  0  0  0              0 V3000
M  V30 BEGIN CTAB
M  V30 COUNTS 31 32 0 0 0
M  V30 BEGIN ATOM
M  V30 1 F 0.0 0.0 0.0 0
M  V30 2 C -0.0822 1.5035 0.0 0
M  V30 3 C -1.4213 2.2083 0.0 0
M  V30 4 C 1.1629 2.314 0.0 0
M  V30 5 N -2.6899 1.4213 0.0 0
M  V30 6 C -1.5035 3.7119 0.0 0
M  V30 7 C 1.0806 3.8176 0.0 0
M  V30 8 C -4.0291 2.1261 0.0 0
M  V30 9 F -2.8426 4.4167 0.0 0
M  V30 10 C -0.2584 4.5224 0.0 0
M  V30 11 O -4.1113 3.6297 0.0 0
M  V30 12 C -5.2977 1.3391 0.0 0 CFG=1
M  V30 13 N -6.6955 1.8912 0.0 0
M  V30 14 C -5.4034 -0.1409 0.0 0
M  V30 15 C -7.0832 3.3477 0.0 0
M  V30 16 C -7.6588 0.7517 0.0 0
M  V30 17 C -6.86 -0.5051 0.0 0 CFG=1
M  V30 18 O -6.026 4.4049 0.0 0
M  V30 19 C -8.5398 3.7589 0.0 0 CFG=1
M  V30 20 N -7.4121 -1.8794 0.0 0
M  V30 21 N -9.6205 2.7252 0.0 0
M  V30 22 C -8.9274 5.2155 0.0 0
M  V30 23 C -11.0771 3.1363 0.0 0
M  V30 24 C -10.384 4.8513 0.0 0
M  V30 25 C -7.4943 5.6031 0.0 0
M  V30 26 C -9.3151 6.6721 0.0 0
M  V30 27 O -11.4647 4.5929 0.0 0
M  V30 28 C -12.1577 2.1026 0.0 0 CFG=1
M  V30 29 N -11.7936 0.6695 0.0 0
M  V30 30 C -13.6143 2.5137 0.0 0
M  V30 31 C -12.8743 -0.3641 0.0 0
M  V30 END ATOM
M  V30 BEGIN BOND
M  V30 1 1 1 2
M  V30 2 2 2 3
M  V30 3 1 2 4
M  V30 4 1 3 5
M  V30 5 1 3 6
M  V30 6 2 4 7
M  V30 7 1 5 8
M  V30 8 1 6 9
M  V30 9 2 6 10
M  V30 10 2 8 11
M  V30 11 1 12 8 CFG=3
M  V30 12 1 12 13
M  V30 13 1 12 14
M  V30 14 1 13 15
M  V30 15 1 13 16
M  V30 16 1 14 17
M  V30 17 2 15 18
M  V30 18 1 15 19
M  V30 19 1 17 20 CFG=3
M  V30 20 1 19 21 CFG=1
M  V30 21 1 19 22
M  V30 22 1 21 23
M  V30 23 1 22 24
M  V30 24 1 22 25
M  V30 25 1 22 26
M  V30 26 2 23 27
M  V30 27 1 23 28
M  V30 28 1 28 29 CFG=1
M  V30 29 1 28 30
M  V30 30 1 29 31
M  V30 31 1 7 10
M  V30 32 1 16 17
M  V30 END BOND
M  V30 BEGIN COLLECTION
M  V30 MDLV30/STEABS ATOMS=(4 12 17 19 28)
M  V30 END COLLECTION
M  V30 END CTAB
M  END
>  <Compound ID>
39

>  <Name>


>  <Uniprot>
Q13490

>  <Target>
cIAP1

>  <Smiles>
CN[C@@H](C)C(=O)N[C@H](C(=O)N1C[C@@H](N)C[C@H]1C(=O)NC1=C(F)C=CC=C1F)C(C)(C)C

>  <Kd (nM)>


>  <Assay (Kd)>


>  <Ki (nM)>


>  <Assay (Ki)>


>  <IC50 (nM)>


>  <Assay (IC50)>


>  <EC50 (nM)>


>  <Assay (EC50)>


>  <Article DOI>
10.1016/j.bmcl.2020.127106

>  <Molecular Weight>
439.507

>  <Exact Mass>
439.239496292

>  <XLogP3>
1.23

>  <Heavy Atom Count>
31

>  <Ring Count>
2

>  <Hydrogen Bond Acceptor Count>
5

>  <Hydrogen Bond Donor Count>
4

>  <Rotatable Bond Count>
6

>  <Topological Polar Surface Area>
116.56

>  <Molecular Formula>
C21H31F2N5O3

>  <InChI>
InChI=1S/C21H31F2N5O3/c1-11(25-5)18(29)27-17(21(2,3)4)20(31)28-10-12(24)9-15(28)19(30)26-16-13(22)7-6-8-14(16)23/h6-8,11-12,15,17,25H,9-10,24H2,1-5H3,(H,26,30)(H,27,29)/t11-,12-,15-,17+/m0/s1

>  <InChI Key>
QESAPZFIIYNQSO-WXRXAMBDSA-N

>  <BindingDB>


>  <PubChem>


>  <ChEMBL>


$$$$
Compound 40
Actelion Java MolfileCreator 2.0

  0  0  0  0  0  0              0 V3000
M  V30 BEGIN CTAB
M  V30 COUNTS 34 37 0 0 0
M  V30 BEGIN ATOM
M  V30 1 O 0.0 0.0 0.0 0
M  V30 2 C 0.3175 1.47 0.0 0
M  V30 3 N 1.7405 1.9286 0.0 0
M  V30 4 C -0.7997 2.4931 0.0 0 CFG=1
M  V30 5 C 2.8342 0.929 0.0 0 CFG=1
M  V30 6 N -2.2814 2.2109 0.0 0
M  V30 7 C -0.635 3.9985 0.0 0
M  V30 8 C 4.2572 1.3877 0.0 0
M  V30 9 C 2.4931 -0.5174 0.0 0
M  V30 10 C -2.9165 0.8585 0.0 0
M  V30 11 C -3.0341 3.528 0.0 0
M  V30 12 C -2.011 4.6335 0.0 0
M  V30 13 C 5.3509 0.388 0.0 0
M  V30 14 C 4.5747 2.8577 0.0 0
M  V30 15 C 3.5868 -1.517 0.0 0
M  V30 16 O -2.058 -0.3528 0.0 0
M  V30 17 C -4.4218 0.7291 0.0 0 CFG=1
M  V30 18 C 6.7739 0.8467 0.0 0
M  V30 19 C 5.0098 -1.0584 0.0 0
M  V30 20 C 5.9977 3.3164 0.0 0
M  V30 21 N -5.3038 1.9639 0.0 0
M  V30 22 C -5.0569 -0.6232 0.0 0
M  V30 23 C 7.0914 2.3167 0.0 0
M  V30 24 C -6.8092 1.8346 0.0 0
M  V30 25 C -6.5622 -0.7526 0.0 0
M  V30 26 C -4.1984 -1.8346 0.0 0
M  V30 27 O -7.4442 0.4821 0.0 0
M  V30 28 C -7.6912 3.0694 0.0 0 CFG=1
M  V30 29 C -7.1973 -2.105 0.0 0
M  V30 30 C -4.8334 -3.187 0.0 0
M  V30 31 N -7.0796 4.4453 0.0 0
M  V30 32 C -9.1965 2.94 0.0 0
M  V30 33 C -6.3388 -3.3164 0.0 0
M  V30 34 C -7.9617 5.6802 0.0 0
M  V30 END ATOM
M  V30 BEGIN BOND
M  V30 1 2 1 2
M  V30 2 1 2 3
M  V30 3 1 4 2 CFG=1
M  V30 4 1 5 3 CFG=1
M  V30 5 1 4 6
M  V30 6 1 4 7
M  V30 7 1 5 8
M  V30 8 1 5 9
M  V30 9 1 6 10
M  V30 10 1 6 11
M  V30 11 1 7 12
M  V30 12 2 8 13
M  V30 13 1 8 14
M  V30 14 1 9 15
M  V30 15 2 10 16
M  V30 16 1 10 17
M  V30 17 1 13 18
M  V30 18 1 13 19
M  V30 19 2 14 20
M  V30 20 1 17 21 CFG=3
M  V30 21 1 17 22
M  V30 22 2 18 23
M  V30 23 1 21 24
M  V30 24 1 22 25
M  V30 25 1 22 26
M  V30 26 2 24 27
M  V30 27 1 24 28
M  V30 28 1 25 29
M  V30 29 1 26 30
M  V30 30 1 28 31 CFG=3
M  V30 31 1 28 32
M  V30 32 1 29 33
M  V30 33 1 31 34
M  V30 34 1 11 12
M  V30 35 1 15 19
M  V30 36 1 20 23
M  V30 37 1 30 33
M  V30 END BOND
M  V30 BEGIN COLLECTION
M  V30 MDLV30/STEABS ATOMS=(4 4 5 17 28)
M  V30 END COLLECTION
M  V30 END CTAB
M  END
>  <Compound ID>
40

>  <Name>


>  <Uniprot>
P98170

>  <Target>
XIAP

>  <Smiles>
CN[C@@H](C)C(=O)N[C@H](C(=O)N1CCC[C@H]1C(=O)N[C@@H]1CCCC2=CC=CC=C21)C1CCCCC1

>  <Kd (nM)>
16

>  <Assay (Kd)>
Kd of XIAP BIR3 was tested using a fluorescence polarization anisotropy competition assay

>  <Ki (nM)>


>  <Assay (Ki)>


>  <IC50 (nM)>


>  <Assay (IC50)>


>  <EC50 (nM)>


>  <Assay (EC50)>


>  <Article DOI>
10.1021/jm040037k

>  <Molecular Weight>
468.642

>  <Exact Mass>
468.31004114

>  <XLogP3>
3.62

>  <Heavy Atom Count>
34

>  <Ring Count>
4

>  <Hydrogen Bond Acceptor Count>
4

>  <Hydrogen Bond Donor Count>
3

>  <Rotatable Bond Count>
7

>  <Topological Polar Surface Area>
90.54

>  <Molecular Formula>
C27H40N4O3

>  <InChI>
InChI=1S/C27H40N4O3/c1-18(28-2)25(32)30-24(20-11-4-3-5-12-20)27(34)31-17-9-16-23(31)26(33)29-22-15-8-13-19-10-6-7-14-21(19)22/h6-7,10,14,18,20,22-24,28H,3-5,8-9,11-13,15-17H2,1-2H3,(H,29,33)(H,30,32)/t18-,22+,23-,24-/m0/s1

>  <InChI Key>
NJUHOYLCAHNNLJ-QODFHFCMSA-N

>  <BindingDB>
13175

>  <PubChem>
6918762

>  <ChEMBL>
CHEMBL2371815

$$$$
Compound 41
Actelion Java MolfileCreator 2.0

  0  0  0  0  0  0              0 V3000
M  V30 BEGIN CTAB
M  V30 COUNTS 16 17 0 0 0
M  V30 BEGIN ATOM
M  V30 1 Cl 0.0 0.0 0.0 0
M  V30 2 C 0.894 1.2116 0.0 0
M  V30 3 C 2.3762 1.0352 0.0 0
M  V30 4 O 2.9526 -0.3411 0.0 0
M  V30 5 N 3.2703 2.2468 0.0 0
M  V30 6 C 4.7525 2.0704 0.0 0
M  V30 7 C 2.6703 3.6467 0.0 0
M  V30 8 C 5.6465 3.282 0.0 0
M  V30 9 C 5.3289 0.694 0.0 0
M  V30 10 C 3.5644 4.8584 0.0 0
M  V30 11 C 7.1288 3.1056 0.0 0
M  V30 12 C 5.0466 4.6819 0.0 0
M  V30 13 C 6.8112 0.5176 0.0 0
M  V30 14 C 7.7052 1.7292 0.0 0
M  V30 15 O 9.1874 1.5528 0.0 0
M  V30 16 C 9.7638 0.1764 0.0 0
M  V30 END ATOM
M  V30 BEGIN BOND
M  V30 1 1 1 2
M  V30 2 1 2 3
M  V30 3 2 3 4
M  V30 4 1 3 5
M  V30 5 1 5 6
M  V30 6 1 5 7
M  V30 7 2 6 8
M  V30 8 1 6 9
M  V30 9 1 7 10
M  V30 10 1 8 11
M  V30 11 1 8 12
M  V30 12 2 9 13
M  V30 13 2 11 14
M  V30 14 1 14 15
M  V30 15 1 15 16
M  V30 16 1 10 12
M  V30 17 1 13 14
M  V30 END BOND
M  V30 END CTAB
M  END
>  <Compound ID>
41

>  <Name>


>  <Uniprot>
Q9NXF7

>  <Target>
DCAF16

>  <Smiles>
COC1=CC=C2C(=C1)CCCN2C(=O)CCl

>  <Kd (nM)>


>  <Assay (Kd)>


>  <Ki (nM)>


>  <Assay (Ki)>


>  <IC50 (nM)>


>  <Assay (IC50)>


>  <EC50 (nM)>


>  <Assay (EC50)>


>  <Article DOI>
10.1016/j.cell.2017.08.051

>  <Molecular Weight>
239.702

>  <Exact Mass>
239.071306368

>  <XLogP3>
2.27

>  <Heavy Atom Count>
16

>  <Ring Count>
2

>  <Hydrogen Bond Acceptor Count>
2

>  <Hydrogen Bond Donor Count>
0

>  <Rotatable Bond Count>
2

>  <Topological Polar Surface Area>
29.54

>  <Molecular Formula>
C12H14ClNO2

>  <InChI>
InChI=1S/C12H14ClNO2/c1-16-10-4-5-11-9(7-10)3-2-6-14(11)12(15)8-13/h4-5,7H,2-3,6,8H2,1H3

>  <InChI Key>
XJPUWRWIBSSPSL-UHFFFAOYSA-N

>  <BindingDB>


>  <PubChem>
16227198

>  <ChEMBL>


$$$$
Compound 42
Actelion Java MolfileCreator 2.0

  0  0  0  0  0  0              0 V3000
M  V30 BEGIN CTAB
M  V30 COUNTS 21 24 0 0 0
M  V30 BEGIN ATOM
M  V30 1 O 0.0 0.0 0.0 0
M  V30 2 C -0.7211 -1.3123 0.0 0
M  V30 3 C 0.0591 -2.5773 0.0 0
M  V30 4 C -2.2344 -1.3477 0.0 0
M  V30 5 C -0.662 -3.8896 0.0 0
M  V30 6 C 1.5487 -2.5182 0.0 0
M  V30 7 C -2.9556 -2.66 0.0 0
M  V30 8 O -2.1753 -3.9251 0.0 0
M  V30 9 C 0.1182 -5.1546 0.0 0
M  V30 10 C 2.329 -3.7832 0.0 0
M  V30 11 C 2.2463 -1.1822 0.0 0
M  V30 12 C -4.4689 -2.6955 0.0 0
M  V30 13 C 1.6078 -5.0955 0.0 0
M  V30 14 C 3.8187 -3.7241 0.0 0
M  V30 15 C 3.7359 -1.1231 0.0 0
M  V30 16 C -5.2729 -1.4068 0.0 0
M  V30 17 C -5.1901 -4.0078 0.0 0
M  V30 18 C 4.5162 -2.3881 0.0 0
M  V30 19 C -6.7862 -1.4423 0.0 0
M  V30 20 C -6.7034 -4.0433 0.0 0
M  V30 21 C -7.5073 -2.7546 0.0 0
M  V30 END ATOM
M  V30 BEGIN BOND
M  V30 1 2 1 2
M  V30 2 1 2 3
M  V30 3 1 2 4
M  V30 4 2 3 5
M  V30 5 1 3 6
M  V30 6 2 4 7
M  V30 7 1 5 8
M  V30 8 1 5 9
M  V30 9 1 6 10
M  V30 10 2 6 11
M  V30 11 1 7 12
M  V30 12 2 9 13
M  V30 13 2 10 14
M  V30 14 1 11 15
M  V30 15 2 12 16
M  V30 16 1 12 17
M  V30 17 1 14 18
M  V30 18 1 16 19
M  V30 19 2 17 20
M  V30 20 2 19 21
M  V30 21 1 7 8
M  V30 22 1 10 13
M  V30 23 2 15 18
M  V30 24 1 20 21
M  V30 END BOND
M  V30 END CTAB
M  END
>  <Compound ID>
42

>  <Name>
beta-naphthoflavone

>  <Uniprot>
P35869

>  <Target>
AhR

>  <Smiles>
O=C1C=C(C2=CC=CC=C2)OC2=CC=C3C=CC=CC3=C12

>  <Kd (nM)>


>  <Assay (Kd)>


>  <Ki (nM)>


>  <Assay (Ki)>


>  <IC50 (nM)>


>  <Assay (IC50)>


>  <EC50 (nM)>
1400

>  <Assay (EC50)>
Agonist activity was tested by a CYP1A1-dependent EROD assay

>  <Article DOI>
10.1021/jm101356p

>  <Molecular Weight>
272.303

>  <Exact Mass>
272.083729624

>  <XLogP3>
4.43

>  <Heavy Atom Count>
21

>  <Ring Count>
4

>  <Hydrogen Bond Acceptor Count>
2

>  <Hydrogen Bond Donor Count>
0

>  <Rotatable Bond Count>
1

>  <Topological Polar Surface Area>
30.21

>  <Molecular Formula>
C19H12O2

>  <InChI>
InChI=1S/C19H12O2/c20-16-12-18(14-7-2-1-3-8-14)21-17-11-10-13-6-4-5-9-15(13)19(16)17/h1-12H

>  <InChI Key>
OUGIDAPQYNCXRA-UHFFFAOYSA-N

>  <BindingDB>
50028963

>  <PubChem>
2361

>  <ChEMBL>
CHEMBL26260

$$$$
Compound 43
Actelion Java MolfileCreator 2.0

  0  0  0  0  0  0              0 V3000
M  V30 BEGIN CTAB
M  V30 COUNTS 21 24 0 0 0
M  V30 BEGIN ATOM
M  V30 1 O 0.0 0.0 0.0 0
M  V30 2 C -0.1406 1.5007 0.0 0
M  V30 3 C 1.0669 2.3684 0.0 0
M  V30 4 C -1.5125 2.1456 0.0 0
M  V30 5 C 0.9262 3.8692 0.0 0
M  V30 6 C 2.4153 1.747 0.0 0
M  V30 7 C -1.6532 3.6464 0.0 0
M  V30 8 O -0.4455 4.5141 0.0 0
M  V30 9 C 2.1339 4.7368 0.0 0
M  V30 10 C 3.623 2.6146 0.0 0
M  V30 11 C -3.025 4.2913 0.0 0
M  V30 12 C 3.4823 4.1154 0.0 0
M  V30 13 C 1.9932 6.2376 0.0 0
M  V30 14 C -3.1657 5.7921 0.0 0
M  V30 15 C -4.2561 3.4471 0.0 0
M  V30 16 C 4.6899 4.9831 0.0 0
M  V30 17 C 3.2009 7.1053 0.0 0
M  V30 18 C -4.5375 6.437 0.0 0
M  V30 19 C -5.6279 4.092 0.0 0
M  V30 20 C 4.5492 6.4839 0.0 0
M  V30 21 C -5.7686 5.5928 0.0 0
M  V30 END ATOM
M  V30 BEGIN BOND
M  V30 1 2 1 2
M  V30 2 1 2 3
M  V30 3 1 2 4
M  V30 4 2 3 5
M  V30 5 1 3 6
M  V30 6 2 4 7
M  V30 7 1 5 8
M  V30 8 1 5 9
M  V30 9 2 6 10
M  V30 10 1 7 11
M  V30 11 1 9 12
M  V30 12 2 9 13
M  V30 13 2 11 14
M  V30 14 1 11 15
M  V30 15 2 12 16
M  V30 16 1 13 17
M  V30 17 1 14 18
M  V30 18 2 15 19
M  V30 19 1 16 20
M  V30 20 2 18 21
M  V30 21 1 7 8
M  V30 22 1 10 12
M  V30 23 2 17 20
M  V30 24 1 19 21
M  V30 END BOND
M  V30 END CTAB
M  END
>  <Compound ID>
43

>  <Name>
alpha-naphthoflavone

>  <Uniprot>
P35869

>  <Target>
AhR

>  <Smiles>
O=C1C=C(C2=CC=CC=C2)OC2=C1C=CC1=CC=CC=C12

>  <Kd (nM)>


>  <Assay (Kd)>


>  <Ki (nM)>


>  <Assay (Ki)>


>  <IC50 (nM)>


>  <Assay (IC50)>


>  <EC50 (nM)>


>  <Assay (EC50)>


>  <Article DOI>


>  <Molecular Weight>
272.303

>  <Exact Mass>
272.083729624

>  <XLogP3>
4.81

>  <Heavy Atom Count>
21

>  <Ring Count>
4

>  <Hydrogen Bond Acceptor Count>
2

>  <Hydrogen Bond Donor Count>
0

>  <Rotatable Bond Count>
1

>  <Topological Polar Surface Area>
30.21

>  <Molecular Formula>
C19H12O2

>  <InChI>
InChI=1S/C19H12O2/c20-17-12-18(14-7-2-1-3-8-14)21-19-15-9-5-4-6-13(15)10-11-16(17)19/h1-12H

>  <InChI Key>
VFMMPHCGEFXGIP-UHFFFAOYSA-N

>  <BindingDB>
50014323

>  <PubChem>
11790

>  <ChEMBL>
CHEMBL283196

$$$$
Compound 44
Actelion Java MolfileCreator 2.0

  0  0  0  0  0  0              0 V3000
M  V30 BEGIN CTAB
M  V30 COUNTS 20 22 0 0 0
M  V30 BEGIN ATOM
M  V30 1 S 0.0 0.0 0.0 0
M  V30 2 C 0.2592 1.4848 0.0 0
M  V30 3 C -1.4966 -0.1885 0.0 0
M  V30 4 N -1.0723 2.2037 0.0 0
M  V30 5 C 1.6027 2.1447 0.0 0
M  V30 6 C -2.1565 1.1784 0.0 0
M  V30 7 O 1.7087 3.6532 0.0 0
M  V30 8 C 2.8282 1.308 0.0 0
M  V30 9 C -3.6414 1.4612 0.0 0
M  V30 10 C 4.2306 1.8266 0.0 0
M  V30 11 C 2.8636 -0.1767 0.0 0
M  V30 12 O -4.6195 0.3299 0.0 0
M  V30 13 O -4.1599 2.8872 0.0 0
M  V30 14 C 5.138 0.6481 0.0 0
M  V30 15 C 4.7845 3.2289 0.0 0
M  V30 16 N 4.2895 -0.5892 0.0 0
M  V30 17 C -5.6448 3.17 0.0 0
M  V30 18 C 6.6111 0.8602 0.0 0
M  V30 19 C 6.2576 3.441 0.0 0
M  V30 20 C 7.165 2.2626 0.0 0
M  V30 END ATOM
M  V30 BEGIN BOND
M  V30 1 1 1 2
M  V30 2 1 1 3
M  V30 3 2 2 4
M  V30 4 1 2 5
M  V30 5 2 3 6
M  V30 6 2 5 7
M  V30 7 1 5 8
M  V30 8 1 6 9
M  V30 9 1 8 10
M  V30 10 2 8 11
M  V30 11 2 9 12
M  V30 12 1 9 13
M  V30 13 2 10 14
M  V30 14 1 10 15
M  V30 15 1 11 16
M  V30 16 1 13 17
M  V30 17 1 14 18
M  V30 18 2 15 19
M  V30 19 2 18 20
M  V30 20 1 4 6
M  V30 21 1 14 16
M  V30 22 1 19 20
M  V30 END BOND
M  V30 END CTAB
M  END
>  <Compound ID>
44

>  <Name>
ITE

>  <Uniprot>
P35869

>  <Target>
AhR

>  <Smiles>
COC(=O)C1=CSC(C(=O)C2=C[NH]C3=CC=CC=C23)=N1

>  <Kd (nM)>


>  <Assay (Kd)>


>  <Ki (nM)>


>  <Assay (Ki)>


>  <IC50 (nM)>


>  <Assay (IC50)>


>  <EC50 (nM)>


>  <Assay (EC50)>


>  <Article DOI>
10.1021/acschembio.9b00704

>  <Molecular Weight>
286.312

>  <Exact Mass>
286.04121318

>  <XLogP3>
2.94

>  <Heavy Atom Count>
20

>  <Ring Count>
3

>  <Hydrogen Bond Acceptor Count>
5

>  <Hydrogen Bond Donor Count>
1

>  <Rotatable Bond Count>
3

>  <Topological Polar Surface Area>
72.05

>  <Molecular Formula>
C14H10N2O3S

>  <InChI>
InChI=1S/C14H10N2O3S/c1-19-14(18)11-7-20-13(16-11)12(17)9-6-15-10-5-3-2-4-8(9)10/h2-7,15H,1H3

>  <InChI Key>
KDDXOGDIPZSCTM-UHFFFAOYSA-N

>  <BindingDB>
50506039

>  <PubChem>
4668801

>  <ChEMBL>
CHEMBL1324296

$$$$
Compound 45
Actelion Java MolfileCreator 2.0

  0  0  0  0  0  0              0 V3000
M  V30 BEGIN CTAB
M  V30 COUNTS 36 39 0 0 0
M  V30 BEGIN ATOM
M  V30 1 S 0.0 0.0 0.0 0
M  V30 2 C 0.4012 1.4516 0.0 0
M  V30 3 C 1.2274 -0.8261 0.0 0
M  V30 4 N 1.8883 1.5224 0.0 0
M  V30 5 C -0.531 2.6436 0.0 0 CFG=1
M  V30 6 C 2.3958 0.1062 0.0 0
M  V30 7 N -2.0417 2.5964 0.0 0
M  V30 8 C -0.1298 4.0952 0.0 0
M  V30 9 C 3.8238 -0.295 0.0 0
M  V30 10 C -2.8914 1.369 0.0 0
M  V30 11 C -2.5728 4.0126 0.0 0
M  V30 12 C -1.3808 4.945 0.0 0
M  V30 13 O 4.1779 -1.7348 0.0 0
M  V30 14 C 4.886 0.7553 0.0 0
M  V30 15 O -2.2423 0.0354 0.0 0
M  V30 16 C -4.4021 1.487 0.0 0 CFG=1
M  V30 17 C 6.314 0.354 0.0 0
M  V30 18 C 4.5083 2.2187 0.0 0
M  V30 19 N -5.0748 2.8442 0.0 0
M  V30 20 C -5.2518 0.2596 0.0 0
M  V30 21 C 7.3762 1.4044 0.0 0
M  V30 22 C 5.5705 3.2691 0.0 0
M  V30 23 C -6.5855 2.9623 0.0 0
M  V30 24 C -6.7625 0.3776 0.0 0
M  V30 25 C -4.6027 -1.0739 0.0 0
M  V30 26 C 6.9985 2.8678 0.0 0
M  V30 27 O -7.4352 1.7348 0.0 0
M  V30 28 C -7.2582 4.3195 0.0 0 CFG=1
M  V30 29 C -7.6122 -0.8497 0.0 0
M  V30 30 C -5.4525 -2.3013 0.0 0
M  V30 31 F 8.0607 3.9182 0.0 0
M  V30 32 N -6.432 5.5705 0.0 0
M  V30 33 C -8.7688 4.4375 0.0 0
M  V30 34 N -6.9631 -2.1833 0.0 0
M  V30 35 C -7.1047 6.9277 0.0 0
M  V30 36 C -7.8129 -3.4107 0.0 0
M  V30 END ATOM
M  V30 BEGIN BOND
M  V30 1 1 1 2
M  V30 2 1 1 3
M  V30 3 2 2 4
M  V30 4 1 5 2 CFG=1
M  V30 5 2 3 6
M  V30 6 1 5 7
M  V30 7 1 5 8
M  V30 8 1 6 9
M  V30 9 1 7 10
M  V30 10 1 7 11
M  V30 11 1 8 12
M  V30 12 2 9 13
M  V30 13 1 9 14
M  V30 14 2 10 15
M  V30 15 1 10 16
M  V30 16 2 14 17
M  V30 17 1 14 18
M  V30 18 1 16 19 CFG=3
M  V30 19 1 16 20
M  V30 20 1 17 21
M  V30 21 2 18 22
M  V30 22 1 19 23
M  V30 23 1 20 24
M  V30 24 1 20 25
M  V30 25 2 21 26
M  V30 26 2 23 27
M  V30 27 1 23 28
M  V30 28 1 24 29
M  V30 29 1 25 30
M  V30 30 1 26 31
M  V30 31 1 28 32 CFG=3
M  V30 32 1 28 33
M  V30 33 1 29 34
M  V30 34 1 32 35
M  V30 35 1 34 36
M  V30 36 1 4 6
M  V30 37 1 11 12
M  V30 38 1 22 26
M  V30 39 1 30 34
M  V30 END BOND
M  V30 BEGIN COLLECTION
M  V30 MDLV30/STEABS ATOMS=(3 5 16 28)
M  V30 END COLLECTION
M  V30 END CTAB
M  END
>  <Compound ID>
45

>  <Name>


>  <Uniprot>


>  <Target>
IAP

>  <Smiles>
CN[C@@H](C)C(=O)N[C@H](C(=O)N1CCC[C@H]1C1=NC(C(=O)C2=CC=C(F)C=C2)=CS1)C1CCN(C)CC1

>  <Kd (nM)>


>  <Assay (Kd)>


>  <Ki (nM)>


>  <Assay (Ki)>


>  <IC50 (nM)>


>  <Assay (IC50)>


>  <EC50 (nM)>


>  <Assay (EC50)>


>  <Article DOI>


>  <Molecular Weight>
515.655

>  <Exact Mass>
515.236639168

>  <XLogP3>
2.75

>  <Heavy Atom Count>
36

>  <Ring Count>
4

>  <Hydrogen Bond Acceptor Count>
7

>  <Hydrogen Bond Donor Count>
2

>  <Rotatable Bond Count>
8

>  <Topological Polar Surface Area>
94.64

>  <Molecular Formula>
C26H34FN5O3S

>  <InChI>
InChI=1S/C26H34FN5O3S/c1-16(28-2)24(34)30-22(17-10-13-31(3)14-11-17)26(35)32-12-4-5-21(32)25-29-20(15-36-25)23(33)18-6-8-19(27)9-7-18/h6-9,15-17,21-22,28H,4-5,10-14H2,1-3H3,(H,30,34)/t16-,21-,22-/m0/s1

>  <InChI Key>
JIOIGDQISXGQSO-SSKFGXFMSA-N

>  <BindingDB>


>  <PubChem>
132224352

>  <ChEMBL>


$$$$
Compound 46
Actelion Java MolfileCreator 2.0

  0  0  0  0  0  0              0 V3000
M  V30 BEGIN CTAB
M  V30 COUNTS 40 44 0 0 0
M  V30 BEGIN ATOM
M  V30 1 Cl 0.0 0.0 0.0 0
M  V30 2 C 1.2972 0.7547 0.0 0
M  V30 3 C 1.2972 2.2642 0.0 0
M  V30 4 C 2.5708 0.0117 0.0 0
M  V30 5 C 2.5944 3.0189 0.0 0
M  V30 6 C 3.868 0.7665 0.0 0
M  V30 7 C 3.868 2.276 0.0 0
M  V30 8 C 5.1652 3.0307 0.0 0 CFG=2
M  V30 9 N 6.5214 2.4175 0.0 0
M  V30 10 C 5.3185 4.5284 0.0 0 CFG=2
M  V30 11 C 7.5238 3.5378 0.0 0
M  V30 12 N 6.769 4.835 0.0 0
M  V30 13 C 4.1982 5.5544 0.0 0
M  V30 14 C 8.9979 3.3845 0.0 0
M  V30 15 C 7.3823 6.2148 0.0 0
M  V30 16 C 4.5166 7.0285 0.0 0
M  V30 17 C 2.7595 5.118 0.0 0
M  V30 18 C 9.8823 4.5991 0.0 0
M  V30 19 C 9.5875 2.0283 0.0 0
M  V30 20 O 8.7856 6.7219 0.0 0
M  V30 21 N 6.4978 7.4412 0.0 0
M  V30 22 C 3.3963 8.0544 0.0 0
M  V30 23 C 1.6392 6.144 0.0 0
M  V30 24 O 9.2691 5.9789 0.0 0
M  V30 25 C 11.3564 4.4458 0.0 0
M  V30 26 C 11.0616 1.875 0.0 0
M  V30 27 C 7.111 8.821 0.0 0
M  V30 28 C 5.0001 7.3115 0.0 0
M  V30 29 C 1.9576 7.6181 0.0 0
M  V30 30 C 10.1536 7.1936 0.0 0
M  V30 31 C 11.9461 3.0897 0.0 0
M  V30 32 C 6.2266 10.0474 0.0 0
M  V30 33 C 4.1156 8.538 0.0 0
M  V30 34 Cl 0.8372 8.6441 0.0 0
M  V30 35 C 9.5403 8.5733 0.0 0
M  V30 36 C 11.6277 7.0403 0.0 0
M  V30 37 O 13.4202 2.9364 0.0 0
M  V30 38 O 6.8398 11.4272 0.0 0
M  V30 39 N 4.7289 9.9177 0.0 0
M  V30 40 C 14.0098 1.5802 0.0 0
M  V30 END ATOM
M  V30 BEGIN BOND
M  V30 1 1 1 2
M  V30 2 2 2 3
M  V30 3 1 2 4
M  V30 4 1 3 5
M  V30 5 2 4 6
M  V30 6 2 5 7
M  V30 7 1 8 7 CFG=1
M  V30 8 1 8 9
M  V30 9 1 8 10
M  V30 10 2 9 11
M  V30 11 1 10 12
M  V30 12 1 10 13 CFG=1
M  V30 13 1 11 14
M  V30 14 1 12 15
M  V30 15 2 13 16
M  V30 16 1 13 17
M  V30 17 2 14 18
M  V30 18 1 14 19
M  V30 19 2 15 20
M  V30 20 1 15 21
M  V30 21 1 16 22
M  V30 22 2 17 23
M  V30 23 1 18 24
M  V30 24 1 18 25
M  V30 25 2 19 26
M  V30 26 1 21 27
M  V30 27 1 21 28
M  V30 28 2 22 29
M  V30 29 1 24 30
M  V30 30 2 25 31
M  V30 31 1 27 32
M  V30 32 1 28 33
M  V30 33 1 29 34
M  V30 34 1 30 35
M  V30 35 1 30 36
M  V30 36 1 31 37
M  V30 37 2 32 38
M  V30 38 1 32 39
M  V30 39 1 37 40
M  V30 40 1 6 7
M  V30 41 1 11 12
M  V30 42 1 23 29
M  V30 43 1 26 31
M  V30 44 1 33 39
M  V30 END BOND
M  V30 BEGIN COLLECTION
M  V30 MDLV30/STEABS ATOMS=(2 8 10)
M  V30 END COLLECTION
M  V30 END CTAB
M  END
>  <Compound ID>
46

>  <Name>
Nutlin-3A

>  <Uniprot>
Q00987

>  <Target>
MDM2

>  <Smiles>
COC1=CC=C(C2=N[C@@H](C3=CC=C(Cl)C=C3)[C@@H](C3=CC=C(Cl)C=C3)N2C(=O)N2CCNC(=O)C2)C(OC(C)C)=C1

>  <Kd (nM)>


>  <Assay (Kd)>


>  <Ki (nM)>


>  <Assay (Ki)>


>  <IC50 (nM)>
90

>  <Assay (IC50)>
Inhibition of interaction between MDM2 and p53 on a Biacore S51

>  <EC50 (nM)>


>  <Assay (EC50)>


>  <Article DOI>
10.1126/science.1092472

>  <Molecular Weight>
581.5

>  <Exact Mass>
580.1644108

>  <XLogP3>
5.2

>  <Heavy Atom Count>
40

>  <Ring Count>
5

>  <Hydrogen Bond Acceptor Count>
5

>  <Hydrogen Bond Donor Count>
1

>  <Rotatable Bond Count>
6

>  <Topological Polar Surface Area>
83.47

>  <Molecular Formula>
C30H30Cl2N4O4

>  <InChI>
InChI=1S/C30H30Cl2N4O4/c1-18(2)40-25-16-23(39-3)12-13-24(25)29-34-27(19-4-8-21(31)9-5-19)28(20-6-10-22(32)11-7-20)36(29)30(38)35-15-14-33-26(37)17-35/h4-13,16,18,27-28H,14-15,17H2,1-3H3,(H,33,37)/t27-,28+/m0/s1

>  <InChI Key>
BDUHCSBCVGXTJM-WUFINQPMSA-N

>  <BindingDB>
50229787

>  <PubChem>
11433190

>  <ChEMBL>
CHEMBL191334

$$$$
Compound 47
Actelion Java MolfileCreator 2.0

  0  0  0  0  0  0              0 V3000
M  V30 BEGIN CTAB
M  V30 COUNTS 42 45 0 0 0
M  V30 BEGIN ATOM
M  V30 1 O 0.0 0.0 0.0 0
M  V30 2 C 1.0232 1.0938 0.0 0
M  V30 3 N 0.588 2.5405 0.0 0
M  V30 4 C 2.4699 0.7527 0.0 0 CFG=1
M  V30 5 C -0.8821 2.9051 0.0 0 CFG=2
M  V30 6 N 3.5991 1.7289 0.0 0
M  V30 7 C 3.0228 -0.6233 0.0 0
M  V30 8 C -1.9289 1.8348 0.0 0
M  V30 9 C -1.3173 4.3518 0.0 0
M  V30 10 C 3.4697 3.2345 0.0 0
M  V30 11 C 4.8576 0.9527 0.0 0
M  V30 12 C 4.5048 -0.4939 0.0 0
M  V30 13 O -3.3991 2.1994 0.0 0
M  V30 14 O -1.5172 0.4116 0.0 0
M  V30 15 C -0.294 5.4457 0.0 0
M  V30 16 C -2.7875 4.7165 0.0 0
M  V30 17 O 2.1053 3.8931 0.0 0
M  V30 18 C 4.6929 4.0931 0.0 0 CFG=1
M  V30 19 C -2.564 -0.6586 0.0 0
M  V30 20 C 1.1526 5.1046 0.0 0
M  V30 21 C -0.7292 6.8924 0.0 0
M  V30 22 C -3.2227 6.1632 0.0 0
M  V30 23 C -3.8343 3.6461 0.0 0
M  V30 24 N 6.0338 3.4579 0.0 0
M  V30 25 C 4.5636 5.5986 0.0 0
M  V30 26 C 2.1759 6.1985 0.0 0
M  V30 27 C 0.294 7.9863 0.0 0
M  V30 28 C -4.6929 6.5278 0.0 0
M  V30 29 C -5.3046 4.0108 0.0 0
M  V30 30 C 7.257 4.3166 0.0 0
M  V30 31 C 5.7868 6.4572 0.0 0
M  V30 32 C 3.1992 6.2573 0.0 0
M  V30 33 C 1.7407 7.6452 0.0 0
M  V30 34 C -5.7398 5.4575 0.0 0
M  V30 35 O 7.1277 5.8221 0.0 0
M  V30 36 C 8.5979 3.6814 0.0 0 CFG=1
M  V30 37 C 5.6574 7.9627 0.0 0
M  V30 38 C 3.0698 7.7628 0.0 0
M  V30 39 N 8.7037 2.1994 0.0 0
M  V30 40 C 9.8211 4.54 0.0 0
M  V30 41 C 4.293 8.6214 0.0 0
M  V30 42 C 10.0446 1.5643 0.0 0
M  V30 END ATOM
M  V30 BEGIN BOND
M  V30 1 2 1 2
M  V30 2 1 2 3
M  V30 3 1 4 2 CFG=1
M  V30 4 1 5 3 CFG=3
M  V30 5 1 4 6
M  V30 6 1 4 7
M  V30 7 1 5 8
M  V30 8 1 5 9
M  V30 9 1 6 10
M  V30 10 1 6 11
M  V30 11 1 7 12
M  V30 12 2 8 13
M  V30 13 1 8 14
M  V30 14 1 9 15
M  V30 15 1 9 16
M  V30 16 2 10 17
M  V30 17 1 10 18
M  V30 18 1 14 19
M  V30 19 2 15 20
M  V30 20 1 15 21
M  V30 21 2 16 22
M  V30 22 1 16 23
M  V30 23 1 18 24 CFG=3
M  V30 24 1 18 25
M  V30 25 1 20 26
M  V30 26 2 21 27
M  V30 27 1 22 28
M  V30 28 2 23 29
M  V30 29 1 24 30
M  V30 30 1 25 31
M  V30 31 1 25 32
M  V30 32 2 26 33
M  V30 33 2 28 34
M  V30 34 2 30 35
M  V30 35 1 30 36
M  V30 36 1 31 37
M  V30 37 1 32 38
M  V30 38 1 36 39 CFG=3
M  V30 39 1 36 40
M  V30 40 1 37 41
M  V30 41 1 39 42
M  V30 42 1 11 12
M  V30 43 1 27 33
M  V30 44 1 29 34
M  V30 45 1 38 41
M  V30 END BOND
M  V30 BEGIN COLLECTION
M  V30 MDLV30/STEABS ATOMS=(4 4 5 18 36)
M  V30 END COLLECTION
M  V30 END CTAB
M  END
>  <Compound ID>
47

>  <Name>
MV1

>  <Uniprot>
Q13490

>  <Target>
cIAP1

>  <Smiles>
CN[C@@H](C)C(=O)N[C@H](C(=O)N1CCC[C@H]1C(=O)N[C@H](C(=O)OC)C(C1=CC=CC=C1)C1=CC=CC=C1)C1CCCCC1

>  <Kd (nM)>
5.8/1

>  <Assay (Kd)>
Kd of cIAP1 BIR3/BIR2-BIR3 was tested by SPR

>  <Ki (nM)>


>  <Assay (Ki)>


>  <IC50 (nM)>


>  <Assay (IC50)>


>  <EC50 (nM)>


>  <Assay (EC50)>


>  <Article DOI>
10.1016/j.cell.2007.10.030

>  <Molecular Weight>
576.738

>  <Exact Mass>
576.331170508

>  <XLogP3>
4.71

>  <Heavy Atom Count>
42

>  <Ring Count>
4

>  <Hydrogen Bond Acceptor Count>
6

>  <Hydrogen Bond Donor Count>
3

>  <Rotatable Bond Count>
11

>  <Topological Polar Surface Area>
116.84

>  <Molecular Formula>
C33H44N4O5

>  <InChI>
InChI=1S/C33H44N4O5/c1-22(34-2)30(38)35-28(25-18-11-6-12-19-25)32(40)37-21-13-20-26(37)31(39)36-29(33(41)42-3)27(23-14-7-4-8-15-23)24-16-9-5-10-17-24/h4-5,7-10,14-17,22,25-29,34H,6,11-13,18-21H2,1-3H3,(H,35,38)(H,36,39)/t22-,26-,28-,29-/m0/s1

>  <InChI Key>
UUPZYAHONNHULX-CJBSCAABSA-N

>  <BindingDB>


>  <PubChem>
23657865

>  <ChEMBL>
CHEMBL2048500

$$$$
Compound 48
Actelion Java MolfileCreator 2.0

  0  0  0  0  0  0              0 V3000
M  V30 BEGIN CTAB
M  V30 COUNTS 42 45 0 0 0
M  V30 BEGIN ATOM
M  V30 1 O 0.0 0.0 0.0 0
M  V30 2 C 1.0232 1.0938 0.0 0
M  V30 3 N 0.588 2.5405 0.0 0
M  V30 4 C 2.4699 0.7527 0.0 0 CFG=1
M  V30 5 C -0.8821 2.9051 0.0 0 CFG=2
M  V30 6 N 3.5991 1.7289 0.0 0
M  V30 7 C 3.0228 -0.6233 0.0 0
M  V30 8 C -1.9289 1.8348 0.0 0
M  V30 9 C -1.3173 4.3518 0.0 0
M  V30 10 C 3.4697 3.2345 0.0 0
M  V30 11 C 4.8576 0.9527 0.0 0
M  V30 12 C 4.5048 -0.4939 0.0 0
M  V30 13 O -3.3991 2.1994 0.0 0
M  V30 14 O -1.5172 0.4116 0.0 0
M  V30 15 C -0.294 5.4457 0.0 0
M  V30 16 C -2.7875 4.7165 0.0 0
M  V30 17 O 2.1053 3.8931 0.0 0
M  V30 18 C 4.6929 4.0931 0.0 0 CFG=1
M  V30 19 C -2.564 -0.6586 0.0 0
M  V30 20 C 1.1526 5.1046 0.0 0
M  V30 21 C -0.7292 6.8924 0.0 0
M  V30 22 C -3.2227 6.1632 0.0 0
M  V30 23 C -3.8343 3.6461 0.0 0
M  V30 24 N 6.0338 3.4579 0.0 0
M  V30 25 C 4.5636 5.5986 0.0 0
M  V30 26 C 2.1759 6.1985 0.0 0
M  V30 27 C 0.294 7.9863 0.0 0
M  V30 28 C -4.6929 6.5278 0.0 0
M  V30 29 C -5.3046 4.0108 0.0 0
M  V30 30 C 7.257 4.3166 0.0 0
M  V30 31 C 5.7868 6.4572 0.0 0
M  V30 32 C 3.1992 6.2573 0.0 0
M  V30 33 C 1.7407 7.6452 0.0 0
M  V30 34 C -5.7398 5.4575 0.0 0
M  V30 35 O 7.1277 5.8221 0.0 0
M  V30 36 C 8.5979 3.6814 0.0 0 CFG=1
M  V30 37 C 5.6574 7.9627 0.0 0
M  V30 38 C 3.0698 7.7628 0.0 0
M  V30 39 N 8.7037 2.1994 0.0 0
M  V30 40 C 9.8211 4.54 0.0 0
M  V30 41 C 4.293 8.6214 0.0 0
M  V30 42 C 10.0446 1.5643 0.0 0
M  V30 END ATOM
M  V30 BEGIN BOND
M  V30 1 2 1 2
M  V30 2 1 2 3
M  V30 3 1 4 2 CFG=1
M  V30 4 1 5 3 CFG=3
M  V30 5 1 4 6
M  V30 6 1 4 7
M  V30 7 1 5 8
M  V30 8 1 5 9
M  V30 9 1 6 10
M  V30 10 1 6 11
M  V30 11 1 7 12
M  V30 12 2 8 13
M  V30 13 1 8 14
M  V30 14 1 9 15
M  V30 15 1 9 16
M  V30 16 2 10 17
M  V30 17 1 10 18
M  V30 18 1 14 19
M  V30 19 2 15 20
M  V30 20 1 15 21
M  V30 21 2 16 22
M  V30 22 1 16 23
M  V30 23 1 18 24 CFG=3
M  V30 24 1 18 25
M  V30 25 1 20 26
M  V30 26 2 21 27
M  V30 27 1 22 28
M  V30 28 2 23 29
M  V30 29 1 24 30
M  V30 30 1 25 31
M  V30 31 1 25 32
M  V30 32 2 26 33
M  V30 33 2 28 34
M  V30 34 2 30 35
M  V30 35 1 30 36
M  V30 36 1 31 37
M  V30 37 1 32 38
M  V30 38 1 36 39 CFG=3
M  V30 39 1 36 40
M  V30 40 1 37 41
M  V30 41 1 39 42
M  V30 42 1 11 12
M  V30 43 1 27 33
M  V30 44 1 29 34
M  V30 45 1 38 41
M  V30 END BOND
M  V30 BEGIN COLLECTION
M  V30 MDLV30/STEABS ATOMS=(4 4 5 18 36)
M  V30 END COLLECTION
M  V30 END CTAB
M  END
>  <Compound ID>
47

>  <Name>
MV1

>  <Uniprot>
P98170

>  <Target>
XIAP

>  <Smiles>
CN[C@@H](C)C(=O)N[C@H](C(=O)N1CCC[C@H]1C(=O)N[C@H](C(=O)OC)C(C1=CC=CC=C1)C1=CC=CC=C1)C1CCCCC1

>  <Kd (nM)>
16/1

>  <Assay (Kd)>
Kd of XIAP BIR3/BIR2-BIR3 was tested by SPR

>  <Ki (nM)>


>  <Assay (Ki)>


>  <IC50 (nM)>


>  <Assay (IC50)>


>  <EC50 (nM)>


>  <Assay (EC50)>


>  <Article DOI>
10.1016/j.cell.2007.10.030

>  <Molecular Weight>
576.738

>  <Exact Mass>
576.331170508

>  <XLogP3>
4.71

>  <Heavy Atom Count>
42

>  <Ring Count>
4

>  <Hydrogen Bond Acceptor Count>
6

>  <Hydrogen Bond Donor Count>
3

>  <Rotatable Bond Count>
11

>  <Topological Polar Surface Area>
116.84

>  <Molecular Formula>
C33H44N4O5

>  <InChI>
InChI=1S/C33H44N4O5/c1-22(34-2)30(38)35-28(25-18-11-6-12-19-25)32(40)37-21-13-20-26(37)31(39)36-29(33(41)42-3)27(23-14-7-4-8-15-23)24-16-9-5-10-17-24/h4-5,7-10,14-17,22,25-29,34H,6,11-13,18-21H2,1-3H3,(H,35,38)(H,36,39)/t22-,26-,28-,29-/m0/s1

>  <InChI Key>
UUPZYAHONNHULX-CJBSCAABSA-N

>  <BindingDB>


>  <PubChem>
23657865

>  <ChEMBL>
CHEMBL2048500

$$$$
Compound 49
Actelion Java MolfileCreator 2.0

  0  0  0  0  0  0              0 V3000
M  V30 BEGIN CTAB
M  V30 COUNTS 36 39 0 0 0
M  V30 BEGIN ATOM
M  V30 1 S 0.0 0.0 0.0 0
M  V30 2 C 0.3891 1.4505 0.0 0
M  V30 3 C 1.2382 -0.8137 0.0 0
M  V30 4 N 1.8751 1.5213 0.0 0
M  V30 5 C -0.5542 2.6416 0.0 0 CFG=1
M  V30 6 C 2.4058 0.1297 0.0 0
M  V30 7 N -2.0638 2.5944 0.0 0
M  V30 8 C -0.1651 4.0922 0.0 0
M  V30 9 C 3.8327 -0.2594 0.0 0
M  V30 10 C -2.9011 1.3562 0.0 0
M  V30 11 C -2.5944 4.0096 0.0 0
M  V30 12 C -1.4269 4.9295 0.0 0
M  V30 13 O 4.1983 -1.6982 0.0 0
M  V30 14 C 4.8941 0.8019 0.0 0
M  V30 15 O -2.2524 0.0235 0.0 0
M  V30 16 C -4.4106 1.4623 0.0 0 CFG=1
M  V30 17 C 4.5049 2.2642 0.0 0
M  V30 18 C 6.3211 0.4127 0.0 0
M  V30 19 N -5.0828 2.8185 0.0 0
M  V30 20 C -5.2479 0.224 0.0 0
M  V30 21 C 5.5663 3.3256 0.0 0
M  V30 22 C 7.3825 1.4741 0.0 0
M  V30 23 C -6.5923 2.9247 0.0 0
M  V30 24 C -6.7574 0.3302 0.0 0
M  V30 25 C -4.5993 -1.1085 0.0 0
M  V30 26 O 5.1771 4.788 0.0 0
M  V30 27 C 6.9933 2.9364 0.0 0
M  V30 28 O -7.4296 1.6864 0.0 0
M  V30 29 C -7.2645 4.2809 0.0 0 CFG=1
M  V30 30 C -7.5947 -0.908 0.0 0
M  V30 31 C -5.4366 -2.3468 0.0 0
M  V30 32 C 6.2385 5.8494 0.0 0
M  V30 33 N -6.4508 5.5427 0.0 0
M  V30 34 C -8.7741 4.387 0.0 0
M  V30 35 C -6.9461 -2.2406 0.0 0
M  V30 36 C -7.123 6.8989 0.0 0
M  V30 END ATOM
M  V30 BEGIN BOND
M  V30 1 1 1 2
M  V30 2 1 1 3
M  V30 3 2 2 4
M  V30 4 1 5 2 CFG=1
M  V30 5 2 3 6
M  V30 6 1 5 7
M  V30 7 1 5 8
M  V30 8 1 6 9
M  V30 9 1 7 10
M  V30 10 1 7 11
M  V30 11 1 8 12
M  V30 12 2 9 13
M  V30 13 1 9 14
M  V30 14 2 10 15
M  V30 15 1 10 16
M  V30 16 2 14 17
M  V30 17 1 14 18
M  V30 18 1 16 19 CFG=3
M  V30 19 1 16 20
M  V30 20 1 17 21
M  V30 21 2 18 22
M  V30 22 1 19 23
M  V30 23 1 20 24
M  V30 24 1 20 25
M  V30 25 1 21 26
M  V30 26 2 21 27
M  V30 27 2 23 28
M  V30 28 1 23 29
M  V30 29 1 24 30
M  V30 30 1 25 31
M  V30 31 1 26 32
M  V30 32 1 29 33 CFG=3
M  V30 33 1 29 34
M  V30 34 1 30 35
M  V30 35 1 33 36
M  V30 36 1 4 6
M  V30 37 1 11 12
M  V30 38 1 22 27
M  V30 39 1 31 35
M  V30 END BOND
M  V30 BEGIN COLLECTION
M  V30 MDLV30/STEABS ATOMS=(3 5 16 29)
M  V30 END COLLECTION
M  V30 END CTAB
M  END
>  <Compound ID>
48

>  <Name>
LCL161 derivative

>  <Uniprot>
Q13490

>  <Target>
cIAP1

>  <Smiles>
CN[C@@H](C)C(=O)N[C@H](C(=O)N1CCC[C@H]1C1=NC(C(=O)C2=CC=CC(OC)=C2)=CS1)C1CCCCC1

>  <Kd (nM)>


>  <Assay (Kd)>


>  <Ki (nM)>


>  <Assay (Ki)>


>  <IC50 (nM)>
4.8

>  <Assay (IC50)>
IC50 was tested by the TR-FRET assay

>  <EC50 (nM)>


>  <Assay (EC50)>


>  <Article DOI>
10.1021/acsmedchemlett.7b00247

>  <Molecular Weight>
512.676

>  <Exact Mass>
512.245726632

>  <XLogP3>
4.21

>  <Heavy Atom Count>
36

>  <Ring Count>
4

>  <Hydrogen Bond Acceptor Count>
7

>  <Hydrogen Bond Donor Count>
2

>  <Rotatable Bond Count>
9

>  <Topological Polar Surface Area>
100.63

>  <Molecular Formula>
C27H36N4O4S

>  <InChI>
InChI=1S/C27H36N4O4S/c1-17(28-2)25(33)30-23(18-9-5-4-6-10-18)27(34)31-14-8-13-22(31)26-29-21(16-36-26)24(32)19-11-7-12-20(15-19)35-3/h7,11-12,15-18,22-23,28H,4-6,8-10,13-14H2,1-3H3,(H,30,33)/t17-,22-,23-/m0/s1

>  <InChI Key>
LCQFGFLQFLFDST-RTFZILSDSA-N

>  <BindingDB>
50279272

>  <PubChem>
138377561

>  <ChEMBL>
CHEMBL4164385

$$$$
Compound 50
Actelion Java MolfileCreator 2.0

  0  0  0  0  0  0              0 V3000
M  V30 BEGIN CTAB
M  V30 COUNTS 36 39 0 0 0
M  V30 BEGIN ATOM
M  V30 1 S 0.0 0.0 0.0 0
M  V30 2 C 0.3891 1.4505 0.0 0
M  V30 3 C 1.2382 -0.8137 0.0 0
M  V30 4 N 1.8751 1.5213 0.0 0
M  V30 5 C -0.5542 2.6416 0.0 0 CFG=1
M  V30 6 C 2.4058 0.1297 0.0 0
M  V30 7 N -2.0638 2.5944 0.0 0
M  V30 8 C -0.1651 4.0922 0.0 0
M  V30 9 C 3.8327 -0.2594 0.0 0
M  V30 10 C -2.9011 1.3562 0.0 0
M  V30 11 C -2.5944 4.0096 0.0 0
M  V30 12 C -1.4269 4.9295 0.0 0
M  V30 13 O 4.1983 -1.6982 0.0 0
M  V30 14 C 4.8941 0.8019 0.0 0
M  V30 15 O -2.2524 0.0235 0.0 0
M  V30 16 C -4.4106 1.4623 0.0 0 CFG=1
M  V30 17 C 4.5049 2.2642 0.0 0
M  V30 18 C 6.3211 0.4127 0.0 0
M  V30 19 N -5.0828 2.8185 0.0 0
M  V30 20 C -5.2479 0.224 0.0 0
M  V30 21 C 5.5663 3.3256 0.0 0
M  V30 22 C 7.3825 1.4741 0.0 0
M  V30 23 C -6.5923 2.9247 0.0 0
M  V30 24 C -6.7574 0.3302 0.0 0
M  V30 25 C -4.5993 -1.1085 0.0 0
M  V30 26 O 5.1771 4.788 0.0 0
M  V30 27 C 6.9933 2.9364 0.0 0
M  V30 28 O -7.4296 1.6864 0.0 0
M  V30 29 C -7.2645 4.2809 0.0 0 CFG=1
M  V30 30 C -7.5947 -0.908 0.0 0
M  V30 31 C -5.4366 -2.3468 0.0 0
M  V30 32 C 6.2385 5.8494 0.0 0
M  V30 33 N -6.4508 5.5427 0.0 0
M  V30 34 C -8.7741 4.387 0.0 0
M  V30 35 C -6.9461 -2.2406 0.0 0
M  V30 36 C -7.123 6.8989 0.0 0
M  V30 END ATOM
M  V30 BEGIN BOND
M  V30 1 1 1 2
M  V30 2 1 1 3
M  V30 3 2 2 4
M  V30 4 1 5 2 CFG=1
M  V30 5 2 3 6
M  V30 6 1 5 7
M  V30 7 1 5 8
M  V30 8 1 6 9
M  V30 9 1 7 10
M  V30 10 1 7 11
M  V30 11 1 8 12
M  V30 12 2 9 13
M  V30 13 1 9 14
M  V30 14 2 10 15
M  V30 15 1 10 16
M  V30 16 2 14 17
M  V30 17 1 14 18
M  V30 18 1 16 19 CFG=3
M  V30 19 1 16 20
M  V30 20 1 17 21
M  V30 21 2 18 22
M  V30 22 1 19 23
M  V30 23 1 20 24
M  V30 24 1 20 25
M  V30 25 1 21 26
M  V30 26 2 21 27
M  V30 27 2 23 28
M  V30 28 1 23 29
M  V30 29 1 24 30
M  V30 30 1 25 31
M  V30 31 1 26 32
M  V30 32 1 29 33 CFG=3
M  V30 33 1 29 34
M  V30 34 1 30 35
M  V30 35 1 33 36
M  V30 36 1 4 6
M  V30 37 1 11 12
M  V30 38 1 22 27
M  V30 39 1 31 35
M  V30 END BOND
M  V30 BEGIN COLLECTION
M  V30 MDLV30/STEABS ATOMS=(3 5 16 29)
M  V30 END COLLECTION
M  V30 END CTAB
M  END
>  <Compound ID>
48

>  <Name>
LCL161 derivative

>  <Uniprot>
Q13489

>  <Target>
cIAP2

>  <Smiles>
CN[C@@H](C)C(=O)N[C@H](C(=O)N1CCC[C@H]1C1=NC(C(=O)C2=CC=CC(OC)=C2)=CS1)C1CCCCC1

>  <Kd (nM)>


>  <Assay (Kd)>


>  <Ki (nM)>


>  <Assay (Ki)>


>  <IC50 (nM)>
5.7

>  <Assay (IC50)>
IC50 was tested by the TR-FRET assay

>  <EC50 (nM)>


>  <Assay (EC50)>


>  <Article DOI>
10.1021/acsmedchemlett.7b00247

>  <Molecular Weight>
512.676

>  <Exact Mass>
512.245726632

>  <XLogP3>
4.21

>  <Heavy Atom Count>
36

>  <Ring Count>
4

>  <Hydrogen Bond Acceptor Count>
7

>  <Hydrogen Bond Donor Count>
2

>  <Rotatable Bond Count>
9

>  <Topological Polar Surface Area>
100.63

>  <Molecular Formula>
C27H36N4O4S

>  <InChI>
InChI=1S/C27H36N4O4S/c1-17(28-2)25(33)30-23(18-9-5-4-6-10-18)27(34)31-14-8-13-22(31)26-29-21(16-36-26)24(32)19-11-7-12-20(15-19)35-3/h7,11-12,15-18,22-23,28H,4-6,8-10,13-14H2,1-3H3,(H,30,33)/t17-,22-,23-/m0/s1

>  <InChI Key>
LCQFGFLQFLFDST-RTFZILSDSA-N

>  <BindingDB>
50279272

>  <PubChem>
138377561

>  <ChEMBL>
CHEMBL4164385

$$$$
Compound 51
Actelion Java MolfileCreator 2.0

  0  0  0  0  0  0              0 V3000
M  V30 BEGIN CTAB
M  V30 COUNTS 36 39 0 0 0
M  V30 BEGIN ATOM
M  V30 1 S 0.0 0.0 0.0 0
M  V30 2 C 0.3891 1.4505 0.0 0
M  V30 3 C 1.2382 -0.8137 0.0 0
M  V30 4 N 1.8751 1.5213 0.0 0
M  V30 5 C -0.5542 2.6416 0.0 0 CFG=1
M  V30 6 C 2.4058 0.1297 0.0 0
M  V30 7 N -2.0638 2.5944 0.0 0
M  V30 8 C -0.1651 4.0922 0.0 0
M  V30 9 C 3.8327 -0.2594 0.0 0
M  V30 10 C -2.9011 1.3562 0.0 0
M  V30 11 C -2.5944 4.0096 0.0 0
M  V30 12 C -1.4269 4.9295 0.0 0
M  V30 13 O 4.1983 -1.6982 0.0 0
M  V30 14 C 4.8941 0.8019 0.0 0
M  V30 15 O -2.2524 0.0235 0.0 0
M  V30 16 C -4.4106 1.4623 0.0 0 CFG=1
M  V30 17 C 4.5049 2.2642 0.0 0
M  V30 18 C 6.3211 0.4127 0.0 0
M  V30 19 N -5.0828 2.8185 0.0 0
M  V30 20 C -5.2479 0.224 0.0 0
M  V30 21 C 5.5663 3.3256 0.0 0
M  V30 22 C 7.3825 1.4741 0.0 0
M  V30 23 C -6.5923 2.9247 0.0 0
M  V30 24 C -6.7574 0.3302 0.0 0
M  V30 25 C -4.5993 -1.1085 0.0 0
M  V30 26 O 5.1771 4.788 0.0 0
M  V30 27 C 6.9933 2.9364 0.0 0
M  V30 28 O -7.4296 1.6864 0.0 0
M  V30 29 C -7.2645 4.2809 0.0 0 CFG=1
M  V30 30 C -7.5947 -0.908 0.0 0
M  V30 31 C -5.4366 -2.3468 0.0 0
M  V30 32 C 6.2385 5.8494 0.0 0
M  V30 33 N -6.4508 5.5427 0.0 0
M  V30 34 C -8.7741 4.387 0.0 0
M  V30 35 C -6.9461 -2.2406 0.0 0
M  V30 36 C -7.123 6.8989 0.0 0
M  V30 END ATOM
M  V30 BEGIN BOND
M  V30 1 1 1 2
M  V30 2 1 1 3
M  V30 3 2 2 4
M  V30 4 1 5 2 CFG=1
M  V30 5 2 3 6
M  V30 6 1 5 7
M  V30 7 1 5 8
M  V30 8 1 6 9
M  V30 9 1 7 10
M  V30 10 1 7 11
M  V30 11 1 8 12
M  V30 12 2 9 13
M  V30 13 1 9 14
M  V30 14 2 10 15
M  V30 15 1 10 16
M  V30 16 2 14 17
M  V30 17 1 14 18
M  V30 18 1 16 19 CFG=3
M  V30 19 1 16 20
M  V30 20 1 17 21
M  V30 21 2 18 22
M  V30 22 1 19 23
M  V30 23 1 20 24
M  V30 24 1 20 25
M  V30 25 1 21 26
M  V30 26 2 21 27
M  V30 27 2 23 28
M  V30 28 1 23 29
M  V30 29 1 24 30
M  V30 30 1 25 31
M  V30 31 1 26 32
M  V30 32 1 29 33 CFG=3
M  V30 33 1 29 34
M  V30 34 1 30 35
M  V30 35 1 33 36
M  V30 36 1 4 6
M  V30 37 1 11 12
M  V30 38 1 22 27
M  V30 39 1 31 35
M  V30 END BOND
M  V30 BEGIN COLLECTION
M  V30 MDLV30/STEABS ATOMS=(3 5 16 29)
M  V30 END COLLECTION
M  V30 END CTAB
M  END
>  <Compound ID>
48

>  <Name>
LCL161 derivative

>  <Uniprot>
P98170

>  <Target>
XIAP

>  <Smiles>
CN[C@@H](C)C(=O)N[C@H](C(=O)N1CCC[C@H]1C1=NC(C(=O)C2=CC=CC(OC)=C2)=CS1)C1CCCCC1

>  <Kd (nM)>


>  <Assay (Kd)>


>  <Ki (nM)>


>  <Assay (Ki)>


>  <IC50 (nM)>
64

>  <Assay (IC50)>
IC50 was tested by the TR-FRET assay

>  <EC50 (nM)>


>  <Assay (EC50)>


>  <Article DOI>
10.1021/acsmedchemlett.7b00247

>  <Molecular Weight>
512.676

>  <Exact Mass>
512.245726632

>  <XLogP3>
4.21

>  <Heavy Atom Count>
36

>  <Ring Count>
4

>  <Hydrogen Bond Acceptor Count>
7

>  <Hydrogen Bond Donor Count>
2

>  <Rotatable Bond Count>
9

>  <Topological Polar Surface Area>
100.63

>  <Molecular Formula>
C27H36N4O4S

>  <InChI>
InChI=1S/C27H36N4O4S/c1-17(28-2)25(33)30-23(18-9-5-4-6-10-18)27(34)31-14-8-13-22(31)26-29-21(16-36-26)24(32)19-11-7-12-20(15-19)35-3/h7,11-12,15-18,22-23,28H,4-6,8-10,13-14H2,1-3H3,(H,30,33)/t17-,22-,23-/m0/s1

>  <InChI Key>
LCQFGFLQFLFDST-RTFZILSDSA-N

>  <BindingDB>
50279272

>  <PubChem>
138377561

>  <ChEMBL>
CHEMBL4164385

$$$$
Compound 52
Actelion Java MolfileCreator 2.0

  0  0  0  0  0  0              0 V3000
M  V30 BEGIN CTAB
M  V30 COUNTS 41 45 0 0 0
M  V30 BEGIN ATOM
M  V30 1 O 0.0 0.0 0.0 0
M  V30 2 C 0.4957 1.4281 0.0 0
M  V30 3 N 1.9593 1.7114 0.0 0
M  V30 4 C -0.4839 2.5849 0.0 0 CFG=1
M  V30 5 C 2.9153 0.5783 0.0 0 CFG=1
M  V30 6 N -1.9947 2.4904 0.0 0
M  V30 7 C -0.1416 4.0485 0.0 0
M  V30 8 C 4.3789 0.8616 0.0 0
M  V30 9 C 2.396 -0.8262 0.0 0
M  V30 10 C -2.7973 1.2275 0.0 0
M  V30 11 C -2.5731 3.895 0.0 0
M  V30 12 C -1.4281 4.8511 0.0 0 CFG=1
M  V30 13 C 5.335 -0.2714 0.0 0
M  V30 14 C 4.8747 2.2898 0.0 0
M  V30 15 C 3.3521 -1.9593 0.0 0
M  V30 16 O -2.1009 -0.0826 0.0 0
M  V30 17 C -4.3081 1.2865 0.0 0 CFG=1
M  V30 18 O -1.5462 6.3619 0.0 0
M  V30 19 C 6.7986 0.0118 0.0 0
M  V30 20 C 4.8157 -1.676 0.0 0
M  V30 21 C 6.3383 2.5731 0.0 0
M  V30 22 N -5.0281 2.6203 0.0 0
M  V30 23 C -5.1107 0.0236 0.0 0
M  V30 24 C -0.3186 7.2117 0.0 0
M  V30 25 C 7.2943 1.4399 0.0 0
M  V30 26 C -6.5389 2.6793 0.0 0
M  V30 27 C -6.6216 0.0826 0.0 0
M  V30 28 C -4.4144 -1.2865 0.0 0
M  V30 29 C 1.015 6.5743 0.0 0
M  V30 30 C -0.4367 8.7225 0.0 0
M  V30 31 O -7.3416 1.4163 0.0 0
M  V30 32 C -7.2589 4.013 0.0 0 CFG=1
M  V30 33 C -7.4242 -1.1803 0.0 0
M  V30 34 C -5.217 -2.5494 0.0 0
M  V30 35 C 2.2426 7.4242 0.0 0
M  V30 36 C 0.7908 9.5724 0.0 0
M  V30 37 N -6.4799 5.2996 0.0 0
M  V30 38 C -8.7697 4.0721 0.0 0
M  V30 39 C -6.7278 -2.4904 0.0 0
M  V30 40 C 2.1245 8.935 0.0 0
M  V30 41 C -7.1999 6.6334 0.0 0
M  V30 END ATOM
M  V30 BEGIN BOND
M  V30 1 2 1 2
M  V30 2 1 2 3
M  V30 3 1 4 2 CFG=1
M  V30 4 1 5 3 CFG=1
M  V30 5 1 4 6
M  V30 6 1 4 7
M  V30 7 1 5 8
M  V30 8 1 5 9
M  V30 9 1 6 10
M  V30 10 1 6 11
M  V30 11 1 7 12
M  V30 12 2 8 13
M  V30 13 1 8 14
M  V30 14 1 9 15
M  V30 15 2 10 16
M  V30 16 1 10 17
M  V30 17 1 12 18 CFG=1
M  V30 18 1 13 19
M  V30 19 1 13 20
M  V30 20 2 14 21
M  V30 21 1 17 22 CFG=3
M  V30 22 1 17 23
M  V30 23 1 18 24
M  V30 24 2 19 25
M  V30 25 1 22 26
M  V30 26 1 23 27
M  V30 27 1 23 28
M  V30 28 2 24 29
M  V30 29 1 24 30
M  V30 30 2 26 31
M  V30 31 1 26 32
M  V30 32 1 27 33
M  V30 33 1 28 34
M  V30 34 1 29 35
M  V30 35 2 30 36
M  V30 36 1 32 37 CFG=3
M  V30 37 1 32 38
M  V30 38 1 33 39
M  V30 39 2 35 40
M  V30 40 1 37 41
M  V30 41 1 11 12
M  V30 42 1 15 20
M  V30 43 1 21 25
M  V30 44 1 34 39
M  V30 45 1 36 40
M  V30 END BOND
M  V30 BEGIN COLLECTION
M  V30 MDLV30/STEABS ATOMS=(5 4 5 12 17 32)
M  V30 END COLLECTION
M  V30 END CTAB
M  END
>  <Compound ID>
49

>  <Name>


>  <Uniprot>
P98170

>  <Target>
XIAP

>  <Smiles>
CN[C@@H](C)C(=O)N[C@H](C(=O)N1C[C@@H](OC2=CC=CC=C2)C[C@H]1C(=O)N[C@@H]1CCCC2=CC=CC=C21)C1CCCCC1

>  <Kd (nM)>
6

>  <Assay (Kd)>
Kd of XIAP BIR3 was tested by a fluorescence polarization anisotropy competition assay

>  <Ki (nM)>


>  <Assay (Ki)>


>  <IC50 (nM)>


>  <Assay (IC50)>


>  <EC50 (nM)>


>  <Assay (EC50)>


>  <Article DOI>
10.1021/jm040037k

>  <Molecular Weight>
560.739

>  <Exact Mass>
560.336255888

>  <XLogP3>
5.0

>  <Heavy Atom Count>
41

>  <Ring Count>
5

>  <Hydrogen Bond Acceptor Count>
5

>  <Hydrogen Bond Donor Count>
3

>  <Rotatable Bond Count>
9

>  <Topological Polar Surface Area>
99.77

>  <Molecular Formula>
C33H44N4O4

>  <InChI>
InChI=1S/C33H44N4O4/c1-22(34-2)31(38)36-30(24-13-5-3-6-14-24)33(40)37-21-26(41-25-16-7-4-8-17-25)20-29(37)32(39)35-28-19-11-15-23-12-9-10-18-27(23)28/h4,7-10,12,16-18,22,24,26,28-30,34H,3,5-6,11,13-15,19-21H2,1-2H3,(H,35,39)(H,36,38)/t22-,26-,28+,29-,30-/m0/s1

>  <InChI Key>
GUOVHJVNYPRNQS-SHUILBLCSA-N

>  <BindingDB>
13176

>  <PubChem>
11307508

>  <ChEMBL>
CHEMBL188510

$$$$
Compound 53
Actelion Java MolfileCreator 2.0

  0  0  0  0  0  0              0 V3000
M  V30 BEGIN CTAB
M  V30 COUNTS 41 45 0 0 0
M  V30 BEGIN ATOM
M  V30 1 O 0.0 0.0 0.0 0
M  V30 2 C 0.4957 1.4281 0.0 0
M  V30 3 N 1.9593 1.7114 0.0 0
M  V30 4 C -0.4839 2.5849 0.0 0 CFG=1
M  V30 5 C 2.9153 0.5783 0.0 0 CFG=1
M  V30 6 N -1.9947 2.4904 0.0 0
M  V30 7 C -0.1416 4.0485 0.0 0
M  V30 8 C 4.3789 0.8616 0.0 0
M  V30 9 C 2.396 -0.8262 0.0 0
M  V30 10 C -2.7973 1.2275 0.0 0
M  V30 11 C -2.5731 3.895 0.0 0
M  V30 12 C -1.4281 4.8511 0.0 0 CFG=2
M  V30 13 C 5.335 -0.2714 0.0 0
M  V30 14 C 4.8747 2.2898 0.0 0
M  V30 15 C 3.3521 -1.9593 0.0 0
M  V30 16 O -2.1009 -0.0826 0.0 0
M  V30 17 C -4.3081 1.2865 0.0 0 CFG=1
M  V30 18 O -1.5462 6.3619 0.0 0
M  V30 19 C 6.7986 0.0118 0.0 0
M  V30 20 C 4.8157 -1.676 0.0 0
M  V30 21 C 6.3383 2.5731 0.0 0
M  V30 22 N -5.0281 2.6203 0.0 0
M  V30 23 C -5.1107 0.0236 0.0 0
M  V30 24 C -0.3186 7.2117 0.0 0
M  V30 25 C 7.2943 1.4399 0.0 0
M  V30 26 C -6.5389 2.6793 0.0 0
M  V30 27 C -6.6216 0.0826 0.0 0
M  V30 28 C -4.4144 -1.2865 0.0 0
M  V30 29 C 1.015 6.5743 0.0 0
M  V30 30 C -0.4367 8.7225 0.0 0
M  V30 31 O -7.3416 1.4163 0.0 0
M  V30 32 C -7.2589 4.013 0.0 0 CFG=1
M  V30 33 C -7.4242 -1.1803 0.0 0
M  V30 34 C -5.217 -2.5494 0.0 0
M  V30 35 C 2.2426 7.4242 0.0 0
M  V30 36 C 0.7908 9.5724 0.0 0
M  V30 37 N -6.4799 5.2996 0.0 0
M  V30 38 C -8.7697 4.0721 0.0 0
M  V30 39 C -6.7278 -2.4904 0.0 0
M  V30 40 C 2.1245 8.935 0.0 0
M  V30 41 C -7.1999 6.6334 0.0 0
M  V30 END ATOM
M  V30 BEGIN BOND
M  V30 1 2 1 2
M  V30 2 1 2 3
M  V30 3 1 4 2 CFG=1
M  V30 4 1 5 3 CFG=1
M  V30 5 1 4 6
M  V30 6 1 4 7
M  V30 7 1 5 8
M  V30 8 1 5 9
M  V30 9 1 6 10
M  V30 10 1 6 11
M  V30 11 1 7 12
M  V30 12 2 8 13
M  V30 13 1 8 14
M  V30 14 1 9 15
M  V30 15 2 10 16
M  V30 16 1 10 17
M  V30 17 1 12 18 CFG=3
M  V30 18 1 13 19
M  V30 19 1 13 20
M  V30 20 2 14 21
M  V30 21 1 17 22 CFG=3
M  V30 22 1 17 23
M  V30 23 1 18 24
M  V30 24 2 19 25
M  V30 25 1 22 26
M  V30 26 1 23 27
M  V30 27 1 23 28
M  V30 28 2 24 29
M  V30 29 1 24 30
M  V30 30 2 26 31
M  V30 31 1 26 32
M  V30 32 1 27 33
M  V30 33 1 28 34
M  V30 34 1 29 35
M  V30 35 2 30 36
M  V30 36 1 32 37 CFG=3
M  V30 37 1 32 38
M  V30 38 1 33 39
M  V30 39 2 35 40
M  V30 40 1 37 41
M  V30 41 1 11 12
M  V30 42 1 15 20
M  V30 43 1 21 25
M  V30 44 1 34 39
M  V30 45 1 36 40
M  V30 END BOND
M  V30 BEGIN COLLECTION
M  V30 MDLV30/STEABS ATOMS=(5 4 5 12 17 32)
M  V30 END COLLECTION
M  V30 END CTAB
M  END
>  <Compound ID>
50

>  <Name>


>  <Uniprot>
P98170

>  <Target>
XIAP

>  <Smiles>
CN[C@@H](C)C(=O)N[C@H](C(=O)N1C[C@H](OC2=CC=CC=C2)C[C@H]1C(=O)N[C@@H]1CCCC2=CC=CC=C21)C1CCCCC1

>  <Kd (nM)>


>  <Assay (Kd)>


>  <Ki (nM)>


>  <Assay (Ki)>


>  <IC50 (nM)>


>  <Assay (IC50)>


>  <EC50 (nM)>


>  <Assay (EC50)>


>  <Article DOI>
10.1074/jbc.RA117.001091

>  <Molecular Weight>
560.739

>  <Exact Mass>
560.336255888

>  <XLogP3>
5.0

>  <Heavy Atom Count>
41

>  <Ring Count>
5

>  <Hydrogen Bond Acceptor Count>
5

>  <Hydrogen Bond Donor Count>
3

>  <Rotatable Bond Count>
9

>  <Topological Polar Surface Area>
99.77

>  <Molecular Formula>
C33H44N4O4

>  <InChI>
InChI=1S/C33H44N4O4/c1-22(34-2)31(38)36-30(24-13-5-3-6-14-24)33(40)37-21-26(41-25-16-7-4-8-17-25)20-29(37)32(39)35-28-19-11-15-23-12-9-10-18-27(23)28/h4,7-10,12,16-18,22,24,26,28-30,34H,3,5-6,11,13-15,19-21H2,1-2H3,(H,35,39)(H,36,38)/t22-,26+,28+,29-,30-/m0/s1

>  <InChI Key>
GUOVHJVNYPRNQS-XIKYZZKVSA-N

>  <BindingDB>


>  <PubChem>


>  <ChEMBL>


$$$$
Compound 54
Actelion Java MolfileCreator 2.0

  0  0  0  0  0  0              0 V3000
M  V30 BEGIN CTAB
M  V30 COUNTS 33 36 0 0 0
M  V30 BEGIN ATOM
M  V30 1 O 0.0 0.0 0.0 0
M  V30 2 C -1.278 -0.8258 0.0 0
M  V30 3 N -1.1993 -2.3004 0.0 0
M  V30 4 C -2.6543 -0.1376 0.0 0 CFG=1
M  V30 5 C 0.1376 -2.9493 0.0 0 CFG=2
M  V30 6 N -3.9324 -0.9634 0.0 0
M  V30 7 C -2.7723 1.3763 0.0 0
M  V30 8 C 1.3763 -2.0841 0.0 0 CFG=1
M  V30 9 C 0.2162 -4.4239 0.0 0
M  V30 10 C -5.3087 -0.2752 0.0 0
M  V30 11 C -1.5336 2.2414 0.0 0
M  V30 12 C -4.1487 2.0645 0.0 0
M  V30 13 N 1.455 -2.8903 0.0 0
M  V30 14 C 2.7133 -2.733 0.0 0
M  V30 15 C 1.5533 -5.0728 0.0 0 CFG=2
M  V30 16 O -5.4267 1.2387 0.0 0
M  V30 17 C -6.5868 -1.101 0.0 0 CFG=1
M  V30 18 C -1.6516 3.7554 0.0 0
M  V30 19 C -4.2666 3.5785 0.0 0
M  V30 20 C 1.5336 -4.2273 0.0 0
M  V30 21 C 3.9324 -1.8679 0.0 0
M  V30 22 C 2.792 -4.2077 0.0 0
M  V30 23 N -6.5081 -2.5757 0.0 0
M  V30 24 C -7.9631 -0.4129 0.0 0
M  V30 25 C -3.0279 4.4436 0.0 0
M  V30 26 C 3.8144 -0.3539 0.0 0
M  V30 27 C -7.7862 -3.4015 0.0 0
M  V30 28 C 5.0531 0.5112 0.0 0
M  V30 29 C 6.3902 -0.1376 0.0 0
M  V30 30 C 4.9352 2.0252 0.0 0
M  V30 31 C 7.6289 0.7275 0.0 0
M  V30 32 C 6.1739 2.8903 0.0 0
M  V30 33 C 7.5109 2.2414 0.0 0
M  V30 END ATOM
M  V30 BEGIN BOND
M  V30 1 2 1 2
M  V30 2 1 2 3
M  V30 3 1 2 4
M  V30 4 1 5 3 CFG=3
M  V30 5 1 4 6 CFG=1
M  V30 6 1 4 7
M  V30 7 1 5 8
M  V30 8 1 5 9
M  V30 9 1 6 10
M  V30 10 1 7 11
M  V30 11 1 7 12
M  V30 12 1 8 13 CFG=1
M  V30 13 1 8 14
M  V30 14 1 15 9 CFG=3
M  V30 15 2 10 16
M  V30 16 1 10 17
M  V30 17 1 11 18
M  V30 18 1 12 19
M  V30 19 1 13 20
M  V30 20 1 13 21
M  V30 21 1 14 22
M  V30 22 1 17 23 CFG=1
M  V30 23 1 17 24
M  V30 24 1 18 25
M  V30 25 1 21 26
M  V30 26 1 23 27
M  V30 27 1 26 28
M  V30 28 2 28 29
M  V30 29 1 28 30
M  V30 30 1 29 31
M  V30 31 2 30 32
M  V30 32 2 31 33
M  V30 33 1 15 20
M  V30 34 1 15 22
M  V30 35 1 19 25
M  V30 36 1 32 33
M  V30 END BOND
M  V30 BEGIN COLLECTION
M  V30 MDLV30/STEABS ATOMS=(5 4 5 8 15 17)
M  V30 END COLLECTION
M  V30 END CTAB
M  END
>  <Compound ID>
51

>  <Name>


>  <Uniprot>
Q13490

>  <Target>
cIAP1

>  <Smiles>
CN[C@@H](C)C(=O)N[C@H](C(=O)N[C@H]1C[C@H]2CC[C@@H]1N(CCC1=CC=CC=C1)C2)C1CCCCC1

>  <Kd (nM)>


>  <Assay (Kd)>


>  <Ki (nM)>


>  <Assay (Ki)>


>  <IC50 (nM)>
4

>  <Assay (IC50)>
IC50 of cIAP1 BIR3 was tested by FP

>  <EC50 (nM)>


>  <Assay (EC50)>


>  <Article DOI>
10.1016/j.bmcl.2011.12.109

>  <Molecular Weight>
454.659

>  <Exact Mass>
454.330776584

>  <XLogP3>
4.3

>  <Heavy Atom Count>
33

>  <Ring Count>
5

>  <Hydrogen Bond Acceptor Count>
4

>  <Hydrogen Bond Donor Count>
3

>  <Rotatable Bond Count>
9

>  <Topological Polar Surface Area>
73.47

>  <Molecular Formula>
C27H42N4O2

>  <InChI>
InChI=1S/C27H42N4O2/c1-19(28-2)26(32)30-25(22-11-7-4-8-12-22)27(33)29-23-17-21-13-14-24(23)31(18-21)16-15-20-9-5-3-6-10-20/h3,5-6,9-10,19,21-25,28H,4,7-8,11-18H2,1-2H3,(H,29,33)(H,30,32)/t19-,21+,23-,24-,25-/m0/s1

>  <InChI Key>
GBQXNBCXOOCMBG-CFYMNZCRSA-N

>  <BindingDB>


>  <PubChem>


>  <ChEMBL>
CHEMBL1950864

$$$$
Compound 55
Actelion Java MolfileCreator 2.0

  0  0  0  0  0  0              0 V3000
M  V30 BEGIN CTAB
M  V30 COUNTS 33 36 0 0 0
M  V30 BEGIN ATOM
M  V30 1 O 0.0 0.0 0.0 0
M  V30 2 C -1.278 -0.8258 0.0 0
M  V30 3 N -1.1993 -2.3004 0.0 0
M  V30 4 C -2.6543 -0.1376 0.0 0 CFG=1
M  V30 5 C 0.1376 -2.9493 0.0 0 CFG=2
M  V30 6 N -3.9324 -0.9634 0.0 0
M  V30 7 C -2.7723 1.3763 0.0 0
M  V30 8 C 1.3763 -2.0841 0.0 0 CFG=1
M  V30 9 C 0.2162 -4.4239 0.0 0
M  V30 10 C -5.3087 -0.2752 0.0 0
M  V30 11 C -1.5336 2.2414 0.0 0
M  V30 12 C -4.1487 2.0645 0.0 0
M  V30 13 N 1.455 -2.8903 0.0 0
M  V30 14 C 2.7133 -2.733 0.0 0
M  V30 15 C 1.5533 -5.0728 0.0 0 CFG=2
M  V30 16 O -5.4267 1.2387 0.0 0
M  V30 17 C -6.5868 -1.101 0.0 0 CFG=1
M  V30 18 C -1.6516 3.7554 0.0 0
M  V30 19 C -4.2666 3.5785 0.0 0
M  V30 20 C 1.5336 -4.2273 0.0 0
M  V30 21 C 3.9324 -1.8679 0.0 0
M  V30 22 C 2.792 -4.2077 0.0 0
M  V30 23 N -6.5081 -2.5757 0.0 0
M  V30 24 C -7.9631 -0.4129 0.0 0
M  V30 25 C -3.0279 4.4436 0.0 0
M  V30 26 C 3.8144 -0.3539 0.0 0
M  V30 27 C -7.7862 -3.4015 0.0 0
M  V30 28 C 5.0531 0.5112 0.0 0
M  V30 29 C 6.3902 -0.1376 0.0 0
M  V30 30 C 4.9352 2.0252 0.0 0
M  V30 31 C 7.6289 0.7275 0.0 0
M  V30 32 C 6.1739 2.8903 0.0 0
M  V30 33 C 7.5109 2.2414 0.0 0
M  V30 END ATOM
M  V30 BEGIN BOND
M  V30 1 2 1 2
M  V30 2 1 2 3
M  V30 3 1 2 4
M  V30 4 1 5 3 CFG=3
M  V30 5 1 4 6 CFG=1
M  V30 6 1 4 7
M  V30 7 1 5 8
M  V30 8 1 5 9
M  V30 9 1 6 10
M  V30 10 1 7 11
M  V30 11 1 7 12
M  V30 12 1 8 13 CFG=1
M  V30 13 1 8 14
M  V30 14 1 15 9 CFG=3
M  V30 15 2 10 16
M  V30 16 1 10 17
M  V30 17 1 11 18
M  V30 18 1 12 19
M  V30 19 1 13 20
M  V30 20 1 13 21
M  V30 21 1 14 22
M  V30 22 1 17 23 CFG=1
M  V30 23 1 17 24
M  V30 24 1 18 25
M  V30 25 1 21 26
M  V30 26 1 23 27
M  V30 27 1 26 28
M  V30 28 2 28 29
M  V30 29 1 28 30
M  V30 30 1 29 31
M  V30 31 2 30 32
M  V30 32 2 31 33
M  V30 33 1 15 20
M  V30 34 1 15 22
M  V30 35 1 19 25
M  V30 36 1 32 33
M  V30 END BOND
M  V30 BEGIN COLLECTION
M  V30 MDLV30/STEABS ATOMS=(5 4 5 8 15 17)
M  V30 END COLLECTION
M  V30 END CTAB
M  END
>  <Compound ID>
51

>  <Name>


>  <Uniprot>
P98170

>  <Target>
XIAP

>  <Smiles>
CN[C@@H](C)C(=O)N[C@H](C(=O)N[C@H]1C[C@H]2CC[C@@H]1N(CCC1=CC=CC=C1)C2)C1CCCCC1

>  <Kd (nM)>
900

>  <Assay (Kd)>
Kd of XIAP BIR3 was tested by ITC

>  <Ki (nM)>


>  <Assay (Ki)>


>  <IC50 (nM)>
280

>  <Assay (IC50)>
IC50 of XIAP BIR3 was tested by FP

>  <EC50 (nM)>


>  <Assay (EC50)>


>  <Article DOI>
10.1016/j.bmcl.2011.12.109

>  <Molecular Weight>
454.659

>  <Exact Mass>
454.330776584

>  <XLogP3>
4.3

>  <Heavy Atom Count>
33

>  <Ring Count>
5

>  <Hydrogen Bond Acceptor Count>
4

>  <Hydrogen Bond Donor Count>
3

>  <Rotatable Bond Count>
9

>  <Topological Polar Surface Area>
73.47

>  <Molecular Formula>
C27H42N4O2

>  <InChI>
InChI=1S/C27H42N4O2/c1-19(28-2)26(32)30-25(22-11-7-4-8-12-22)27(33)29-23-17-21-13-14-24(23)31(18-21)16-15-20-9-5-3-6-10-20/h3,5-6,9-10,19,21-25,28H,4,7-8,11-18H2,1-2H3,(H,29,33)(H,30,32)/t19-,21+,23-,24-,25-/m0/s1

>  <InChI Key>
GBQXNBCXOOCMBG-CFYMNZCRSA-N

>  <BindingDB>


>  <PubChem>


>  <ChEMBL>
CHEMBL1950864

$$$$
Compound 56
Actelion Java MolfileCreator 2.0

  0  0  0  0  0  0              0 V3000
M  V30 BEGIN CTAB
M  V30 COUNTS 37 41 0 0 0
M  V30 BEGIN ATOM
M  V30 1 S 0.0 0.0 0.0 0
M  V30 2 C 0.1765 1.4951 0.0 0
M  V30 3 C 1.342 -0.6239 0.0 0
M  V30 4 N 1.6363 1.7894 0.0 0
M  V30 5 C -0.93 2.531 0.0 0 CFG=1
M  V30 6 C 2.3544 0.4826 0.0 0
M  V30 7 N -2.4133 2.2603 0.0 0
M  V30 8 C -0.7534 4.0261 0.0 0
M  V30 9 C 3.826 0.306 0.0 0
M  V30 10 C -3.0608 0.9182 0.0 0
M  V30 11 C -3.155 3.5906 0.0 0
M  V30 12 C -2.119 4.6736 0.0 0
M  V30 13 C 4.7207 1.5186 0.0 0
M  V30 14 C 4.4029 -1.0595 0.0 0
M  V30 15 O -2.2132 -0.306 0.0 0
M  V30 16 C -4.5677 0.8005 0.0 0 CFG=1
M  V30 17 C 6.1923 1.342 0.0 0
M  V30 18 C 4.1203 2.9078 0.0 0
M  V30 19 C 5.8744 -1.2361 0.0 0
M  V30 20 N -5.4388 2.0484 0.0 0
M  V30 21 C -5.2152 -0.5415 0.0 0
M  V30 22 C 6.7691 -0.0235 0.0 0
M  V30 23 C 7.087 2.5546 0.0 0
M  V30 24 C 5.015 4.1203 0.0 0
M  V30 25 C -6.9457 1.9306 0.0 0
M  V30 26 C -6.722 -0.6592 0.0 0
M  V30 27 C -4.3675 -1.7658 0.0 0
M  V30 28 F 8.2407 -0.2001 0.0 0
M  V30 29 C 6.4866 3.9437 0.0 0
M  V30 30 O -7.5932 0.5886 0.0 0
M  V30 31 C -7.8169 3.1785 0.0 0 CFG=1
M  V30 32 C -7.3695 -2.0013 0.0 0
M  V30 33 C -5.015 -3.1079 0.0 0
M  V30 34 N -7.1929 4.5441 0.0 0
M  V30 35 C -9.3237 3.0608 0.0 0
M  V30 36 C -6.5219 -3.2256 0.0 0
M  V30 37 C -8.0641 5.792 0.0 0
M  V30 END ATOM
M  V30 BEGIN BOND
M  V30 1 1 1 2
M  V30 2 1 1 3
M  V30 3 2 2 4
M  V30 4 1 5 2 CFG=1
M  V30 5 2 3 6
M  V30 6 1 5 7
M  V30 7 1 5 8
M  V30 8 1 6 9
M  V30 9 1 7 10
M  V30 10 1 7 11
M  V30 11 1 8 12
M  V30 12 1 9 13
M  V30 13 2 9 14
M  V30 14 2 10 15
M  V30 15 1 10 16
M  V30 16 1 13 17
M  V30 17 2 13 18
M  V30 18 1 14 19
M  V30 19 1 16 20 CFG=3
M  V30 20 1 16 21
M  V30 21 1 17 22
M  V30 22 2 17 23
M  V30 23 1 18 24
M  V30 24 1 20 25
M  V30 25 1 21 26
M  V30 26 1 21 27
M  V30 27 1 22 28
M  V30 28 1 23 29
M  V30 29 2 25 30
M  V30 30 1 25 31
M  V30 31 1 26 32
M  V30 32 1 27 33
M  V30 33 1 31 34 CFG=3
M  V30 34 1 31 35
M  V30 35 1 32 36
M  V30 36 1 34 37
M  V30 37 1 4 6
M  V30 38 1 11 12
M  V30 39 2 19 22
M  V30 40 2 24 29
M  V30 41 1 33 36
M  V30 END BOND
M  V30 BEGIN COLLECTION
M  V30 MDLV30/STEABS ATOMS=(3 5 16 31)
M  V30 END COLLECTION
M  V30 END CTAB
M  END
>  <Compound ID>
52

>  <Name>


>  <Uniprot>
P98170

>  <Target>
XIAP

>  <Smiles>
CN[C@@H](C)C(=O)N[C@H](C(=O)N1CCC[C@H]1C1=NC(C2=CC=C(F)C3=CC=CC=C23)=CS1)C1CCCCC1

>  <Kd (nM)>


>  <Assay (Kd)>


>  <Ki (nM)>
19

>  <Assay (Ki)>
Ki of XIAP BIR3 was tested by FP

>  <IC50 (nM)>


>  <Assay (IC50)>


>  <EC50 (nM)>


>  <Assay (EC50)>


>  <Article DOI>
10.1016/j.bmcl.2010.02.021

>  <Molecular Weight>
522.69

>  <Exact Mass>
522.24647558

>  <XLogP3>
5.57

>  <Heavy Atom Count>
37

>  <Ring Count>
5

>  <Hydrogen Bond Acceptor Count>
5

>  <Hydrogen Bond Donor Count>
2

>  <Rotatable Bond Count>
7

>  <Topological Polar Surface Area>
74.33

>  <Molecular Formula>
C29H35FN4O2S

>  <InChI>
InChI=1S/C29H35FN4O2S/c1-18(31-2)27(35)33-26(19-9-4-3-5-10-19)29(36)34-16-8-13-25(34)28-32-24(17-37-28)22-14-15-23(30)21-12-7-6-11-20(21)22/h6-7,11-12,14-15,17-19,25-26,31H,3-5,8-10,13,16H2,1-2H3,(H,33,35)/t18-,25-,26-/m0/s1

>  <InChI Key>
OXVDUVSHCWCOFU-ATANMQQVSA-N

>  <BindingDB>
50314450

>  <PubChem>
46884436

>  <ChEMBL>
CHEMBL1089023

$$$$
Compound 57
Actelion Java MolfileCreator 2.0

  0  0  0  0  0  0              0 V3000
M  V30 BEGIN CTAB
M  V30 COUNTS 36 40 0 0 0
M  V30 BEGIN ATOM
M  V30 1 S 0.0 0.0 0.0 0
M  V30 2 C 1.229 -0.839 0.0 0
M  V30 3 C -1.2054 -0.8981 0.0 0
M  V30 4 C 0.7918 -2.269 0.0 0
M  V30 5 C 2.6826 -0.4727 0.0 0
M  V30 6 N -0.7208 -2.3045 0.0 0
M  V30 7 C -2.659 -0.4609 0.0 0 CFG=1
M  V30 8 C 1.8081 -3.3444 0.0 0
M  V30 9 C 3.699 -1.5481 0.0 0
M  V30 10 N -3.8644 -1.359 0.0 0
M  V30 11 C -3.1672 0.969 0.0 0
M  V30 12 N 3.2617 -2.9781 0.0 0
M  V30 13 C 1.3708 -4.7744 0.0 0
M  V30 14 C -3.8408 -2.8481 0.0 0
M  V30 15 C -5.1171 -0.4963 0.0 0
M  V30 16 C -4.6799 0.9454 0.0 0
M  V30 17 C -0.1063 -5.1171 0.0 0
M  V30 18 C 2.3872 -5.8499 0.0 0
M  V30 19 O -2.529 -3.5572 0.0 0
M  V30 20 C -5.129 -3.6163 0.0 0 CFG=1
M  V30 21 C -0.5436 -6.5471 0.0 0
M  V30 22 C 1.9499 -7.2798 0.0 0
M  V30 23 N -6.4644 -2.8835 0.0 0
M  V30 24 C -5.1053 -5.1053 0.0 0
M  V30 25 C 0.4727 -7.6226 0.0 0
M  V30 26 C -7.7525 -3.6517 0.0 0
M  V30 27 C -6.3935 -5.8735 0.0 0
M  V30 28 C -3.7935 -5.8144 0.0 0
M  V30 29 O -7.7289 -5.1408 0.0 0
M  V30 30 C -9.088 -2.919 0.0 0 CFG=1
M  V30 31 C -6.3698 -7.3626 0.0 0
M  V30 32 C -3.7699 -7.3035 0.0 0
M  V30 33 N -9.1353 -1.4063 0.0 0
M  V30 34 C -10.3761 -3.6872 0.0 0
M  V30 35 C -5.058 -8.0716 0.0 0
M  V30 36 C -10.4707 -0.6736 0.0 0
M  V30 END ATOM
M  V30 BEGIN BOND
M  V30 1 1 1 2
M  V30 2 1 1 3
M  V30 3 2 2 4
M  V30 4 1 2 5
M  V30 5 2 3 6
M  V30 6 1 7 3 CFG=1
M  V30 7 1 4 8
M  V30 8 2 5 9
M  V30 9 1 7 10
M  V30 10 1 7 11
M  V30 11 2 8 12
M  V30 12 1 8 13
M  V30 13 1 10 14
M  V30 14 1 10 15
M  V30 15 1 11 16
M  V30 16 2 13 17
M  V30 17 1 13 18
M  V30 18 2 14 19
M  V30 19 1 14 20
M  V30 20 1 17 21
M  V30 21 2 18 22
M  V30 22 1 20 23 CFG=3
M  V30 23 1 20 24
M  V30 24 2 21 25
M  V30 25 1 23 26
M  V30 26 1 24 27
M  V30 27 1 24 28
M  V30 28 2 26 29
M  V30 29 1 26 30
M  V30 30 1 27 31
M  V30 31 1 28 32
M  V30 32 1 30 33 CFG=3
M  V30 33 1 30 34
M  V30 34 1 31 35
M  V30 35 1 33 36
M  V30 36 1 4 6
M  V30 37 1 9 12
M  V30 38 1 15 16
M  V30 39 1 22 25
M  V30 40 1 32 35
M  V30 END BOND
M  V30 BEGIN COLLECTION
M  V30 MDLV30/STEABS ATOMS=(3 7 20 30)
M  V30 END COLLECTION
M  V30 END CTAB
M  END
>  <Compound ID>
53

>  <Name>


>  <Uniprot>
P98170

>  <Target>
XIAP

>  <Smiles>
CN[C@@H](C)C(=O)N[C@H](C(=O)N1CCC[C@H]1C1=NC2=C(C3=CC=CC=C3)N=CC=C2S1)C1CCCCC1

>  <Kd (nM)>


>  <Assay (Kd)>


>  <Ki (nM)>
37

>  <Assay (Ki)>
Ki of XIAP BIR3 was tested by FP

>  <IC50 (nM)>


>  <Assay (IC50)>


>  <EC50 (nM)>


>  <Assay (EC50)>


>  <Article DOI>
10.1016/j.bmcl.2010.02.021

>  <Molecular Weight>
505.688

>  <Exact Mass>
505.25114636

>  <XLogP3>
4.58

>  <Heavy Atom Count>
36

>  <Ring Count>
5

>  <Hydrogen Bond Acceptor Count>
6

>  <Hydrogen Bond Donor Count>
2

>  <Rotatable Bond Count>
7

>  <Topological Polar Surface Area>
87.22

>  <Molecular Formula>
C28H35N5O2S

>  <InChI>
InChI=1S/C28H35N5O2S/c1-18(29-2)26(34)31-24(20-12-7-4-8-13-20)28(35)33-17-9-14-21(33)27-32-25-22(36-27)15-16-30-23(25)19-10-5-3-6-11-19/h3,5-6,10-11,15-16,18,20-21,24,29H,4,7-9,12-14,17H2,1-2H3,(H,31,34)/t18-,21-,24-/m0/s1

>  <InChI Key>
DAXYGNXUBMFNHC-XZOYJPPVSA-N

>  <BindingDB>
50314480

>  <PubChem>
46884085

>  <ChEMBL>
CHEMBL1091453

$$$$
Compound 58
Actelion Java MolfileCreator 2.0

  0  0  0  0  0  0              0 V3000
M  V30 BEGIN CTAB
M  V30 COUNTS 37 40 0 0 0
M  V30 BEGIN ATOM
M  V30 1 F 0.0 0.0 0.0 0
M  V30 2 C -1.4918 -0.2231 0.0 0
M  V30 3 C -2.4433 0.9515 0.0 0
M  V30 4 C -2.0439 -1.6093 0.0 0
M  V30 5 C -1.9147 2.3611 0.0 0
M  V30 6 C -3.9352 0.7283 0.0 0
M  V30 7 C -3.5358 -1.8325 0.0 0
M  V30 8 O -0.4463 2.6078 0.0 0
M  V30 9 O -2.8662 3.5358 0.0 0
M  V30 10 C -4.4873 -0.6578 0.0 0
M  V30 11 C -5.9792 -0.881 0.0 0
M  V30 12 C -6.5313 -2.2671 0.0 0
M  V30 13 C -6.9307 0.2936 0.0 0
M  V30 14 N -8.0232 -2.4903 0.0 0
M  V30 15 C -8.4226 0.0704 0.0 0
M  V30 16 C -8.9747 -1.3156 0.0 0
M  V30 17 C -9.3741 1.2451 0.0 0 CFG=1
M  V30 18 N -10.8777 1.1864 0.0 0
M  V30 19 C -8.9982 2.7018 0.0 0
M  V30 20 C -11.7118 -0.0469 0.0 0
M  V30 21 C -11.4181 2.596 0.0 0
M  V30 22 C -10.2551 3.5358 0.0 0
M  V30 23 O -11.0539 -1.3626 0.0 0
M  V30 24 C -13.2154 0.0469 0.0 0 CFG=1
M  V30 25 N -13.8967 1.3861 0.0 0
M  V30 26 C -14.0494 -1.1864 0.0 0
M  V30 27 C -15.4003 1.4801 0.0 0
M  V30 28 C -15.553 -1.0924 0.0 0
M  V30 29 C -13.3916 -2.5021 0.0 0
M  V30 30 O -16.2344 0.2466 0.0 0
M  V30 31 C -16.0817 2.8192 0.0 0 CFG=1
M  V30 32 C -16.3871 -2.3259 0.0 0
M  V30 33 C -14.2256 -3.7355 0.0 0
M  V30 34 N -15.2711 4.0762 0.0 0
M  V30 35 C -17.5853 2.9132 0.0 0
M  V30 36 C -15.7292 -3.6415 0.0 0
M  V30 37 C -15.9524 5.4153 0.0 0
M  V30 END ATOM
M  V30 BEGIN BOND
M  V30 1 1 1 2
M  V30 2 2 2 3
M  V30 3 1 2 4
M  V30 4 1 3 5
M  V30 5 1 3 6
M  V30 6 2 4 7
M  V30 7 2 5 8
M  V30 8 1 5 9
M  V30 9 2 6 10
M  V30 10 1 10 11
M  V30 11 2 11 12
M  V30 12 1 11 13
M  V30 13 1 12 14
M  V30 14 2 13 15
M  V30 15 2 14 16
M  V30 16 1 17 15 CFG=1
M  V30 17 1 17 18
M  V30 18 1 17 19
M  V30 19 1 18 20
M  V30 20 1 18 21
M  V30 21 1 19 22
M  V30 22 2 20 23
M  V30 23 1 20 24
M  V30 24 1 24 25 CFG=3
M  V30 25 1 24 26
M  V30 26 1 25 27
M  V30 27 1 26 28
M  V30 28 1 26 29
M  V30 29 2 27 30
M  V30 30 1 27 31
M  V30 31 1 28 32
M  V30 32 1 29 33
M  V30 33 1 31 34 CFG=3
M  V30 34 1 31 35
M  V30 35 1 32 36
M  V30 36 1 34 37
M  V30 37 1 7 10
M  V30 38 1 15 16
M  V30 39 1 21 22
M  V30 40 1 33 36
M  V30 END BOND
M  V30 BEGIN COLLECTION
M  V30 MDLV30/STEABS ATOMS=(3 17 24 31)
M  V30 END COLLECTION
M  V30 END CTAB
M  END
>  <Compound ID>
54

>  <Name>


>  <Uniprot>


>  <Target>
IAP

>  <Smiles>
CN[C@@H](C)C(=O)N[C@H](C(=O)N1CCC[C@H]1C1=CN=CC(C2=CC=C(F)C(C(=O)O)=C2)=C1)C1CCCCC1

>  <Kd (nM)>


>  <Assay (Kd)>


>  <Ki (nM)>


>  <Assay (Ki)>


>  <IC50 (nM)>


>  <Assay (IC50)>


>  <EC50 (nM)>


>  <Assay (EC50)>


>  <Article DOI>


>  <Molecular Weight>
510.61

>  <Exact Mass>
510.26423382

>  <XLogP3>
1.4

>  <Heavy Atom Count>
37

>  <Ring Count>
4

>  <Hydrogen Bond Acceptor Count>
5

>  <Hydrogen Bond Donor Count>
3

>  <Rotatable Bond Count>
8

>  <Topological Polar Surface Area>
111.63

>  <Molecular Formula>
C28H35FN4O4

>  <InChI>
InChI=1S/C28H35FN4O4/c1-17(30-2)26(34)32-25(18-7-4-3-5-8-18)27(35)33-12-6-9-24(33)21-13-20(15-31-16-21)19-10-11-23(29)22(14-19)28(36)37/h10-11,13-18,24-25,30H,3-9,12H2,1-2H3,(H,32,34)(H,36,37)/t17-,24-,25-/m0/s1

>  <InChI Key>
ORPIGORNDCHEIA-HDBFHEOPSA-N

>  <BindingDB>


>  <PubChem>


>  <ChEMBL>


$$$$
Compound 59
Actelion Java MolfileCreator 2.0

  0  0  0  0  0  0              0 V3000
M  V30 BEGIN CTAB
M  V30 COUNTS 36 39 0 0 0
M  V30 BEGIN ATOM
M  V30 1 O 0.0 0.0 0.0 0
M  V30 2 C 1.302 -0.7101 0.0 0
M  V30 3 O 1.3256 -2.2015 0.0 0
M  V30 4 C 2.5803 0.0828 0.0 0
M  V30 5 C 2.533 1.5979 0.0 0
M  V30 6 C 3.8823 -0.6273 0.0 0
M  V30 7 C 3.8113 2.3909 0.0 0
M  V30 8 C 1.3848 2.5921 0.0 0
M  V30 9 C 5.1607 0.1657 0.0 0
M  V30 10 N 3.4562 3.8705 0.0 0
M  V30 11 C 5.1133 1.6807 0.0 0
M  V30 12 C 1.953 3.9888 0.0 0
M  V30 13 C 4.4268 5.0186 0.0 0
M  V30 14 C 3.9178 6.4508 0.0 0
M  V30 15 C 5.8945 4.7464 0.0 0
M  V30 16 N 4.8884 7.599 0.0 0
M  V30 17 C 6.8651 5.8945 0.0 0
M  V30 18 C 6.3561 7.3267 0.0 0
M  V30 19 C 8.3328 5.6223 0.0 0 CFG=1
M  V30 20 N 8.9602 4.2729 0.0 0
M  V30 21 C 9.41 6.6639 0.0 0
M  V30 22 C 8.2263 2.9709 0.0 0
M  V30 23 C 10.4397 4.4741 0.0 0
M  V30 24 C 10.712 5.9537 0.0 0
M  V30 25 O 6.7112 2.9472 0.0 0
M  V30 26 C 8.9957 1.6926 0.0 0 CFG=1
M  V30 27 N 10.4871 1.7399 0.0 0
M  V30 28 C 8.2618 0.3906 0.0 0
M  V30 29 C 11.2565 0.4616 0.0 0
M  V30 30 C 9.0312 -0.8877 0.0 0
M  V30 31 C 6.7468 0.3669 0.0 0
M  V30 32 O 10.5226 -0.8403 0.0 0
M  V30 33 C 12.7479 0.5089 0.0 0 CFG=1
M  V30 34 N 13.458 1.8346 0.0 0
M  V30 35 C 13.5172 -0.7693 0.0 0
M  V30 36 C 14.9494 1.882 0.0 0
M  V30 END ATOM
M  V30 BEGIN BOND
M  V30 1 2 1 2
M  V30 2 1 2 3
M  V30 3 1 2 4
M  V30 4 2 4 5
M  V30 5 1 4 6
M  V30 6 1 5 7
M  V30 7 1 5 8
M  V30 8 2 6 9
M  V30 9 1 7 10
M  V30 10 2 7 11
M  V30 11 2 8 12
M  V30 12 1 10 13
M  V30 13 2 13 14
M  V30 14 1 13 15
M  V30 15 1 14 16
M  V30 16 2 15 17
M  V30 17 2 16 18
M  V30 18 1 19 17 CFG=3
M  V30 19 1 19 20
M  V30 20 1 19 21
M  V30 21 1 20 22
M  V30 22 1 20 23
M  V30 23 1 21 24
M  V30 24 2 22 25
M  V30 25 1 22 26
M  V30 26 1 26 27 CFG=1
M  V30 27 1 26 28
M  V30 28 1 27 29
M  V30 29 1 28 30
M  V30 30 1 28 31
M  V30 31 2 29 32
M  V30 32 1 29 33
M  V30 33 1 33 34 CFG=1
M  V30 34 1 33 35
M  V30 35 1 34 36
M  V30 36 1 9 11
M  V30 37 1 10 12
M  V30 38 1 17 18
M  V30 39 1 23 24
M  V30 END BOND
M  V30 BEGIN COLLECTION
M  V30 MDLV30/STEABS ATOMS=(3 19 26 33)
M  V30 END COLLECTION
M  V30 END CTAB
M  END
>  <Compound ID>
55

>  <Name>


>  <Uniprot>


>  <Target>
IAP

>  <Smiles>
CN[C@@H](C)C(=O)N[C@H](C(=O)N1CCC[C@H]1C1=CN=CC(N2C=CC3=C(C(=O)O)C=CC=C32)=C1)C(C)C

>  <Kd (nM)>


>  <Assay (Kd)>


>  <Ki (nM)>


>  <Assay (Ki)>


>  <IC50 (nM)>


>  <Assay (IC50)>


>  <EC50 (nM)>


>  <Assay (EC50)>


>  <Article DOI>


>  <Molecular Weight>
491.592

>  <Exact Mass>
491.253254536

>  <XLogP3>
0.37

>  <Heavy Atom Count>
36

>  <Ring Count>
4

>  <Hydrogen Bond Acceptor Count>
6

>  <Hydrogen Bond Donor Count>
3

>  <Rotatable Bond Count>
8

>  <Topological Polar Surface Area>
116.56

>  <Molecular Formula>
C27H33N5O4

>  <InChI>
InChI=1S/C27H33N5O4/c1-16(2)24(30-25(33)17(3)28-4)26(34)32-11-6-9-22(32)18-13-19(15-29-14-18)31-12-10-20-21(27(35)36)7-5-8-23(20)31/h5,7-8,10,12-17,22,24,28H,6,9,11H2,1-4H3,(H,30,33)(H,35,36)/t17-,22-,24-/m0/s1

>  <InChI Key>
FFGHOKFUXXWKFH-OWSXEPHWSA-N

>  <BindingDB>


>  <PubChem>


>  <ChEMBL>


$$$$
Compound 60
Actelion Java MolfileCreator 2.0

  0  0  0  0  0  0              0 V3000
M  V30 BEGIN CTAB
M  V30 COUNTS 35 38 0 0 0
M  V30 BEGIN ATOM
M  V30 1 S 0.0 0.0 0.0 0
M  V30 2 N 1.2465 -0.7996 0.0 0
M  V30 3 C 0.3763 1.4582 0.0 0
M  V30 4 N 2.399 0.1528 0.0 0
M  V30 5 N -0.5762 2.6342 0.0 0
M  V30 6 C 1.8581 1.5523 0.0 0
M  V30 7 C -2.0698 2.4108 0.0 0
M  V30 8 C 2.6578 2.8224 0.0 0
M  V30 9 O -2.6225 1.0231 0.0 0
M  V30 10 C -3.0223 3.5868 0.0 0 CFG=1
M  V30 11 C 4.1396 2.7518 0.0 0
M  V30 12 C 1.9639 4.1631 0.0 0
M  V30 13 N -4.5276 3.5163 0.0 0
M  V30 14 C -2.646 5.0451 0.0 0
M  V30 15 C 4.9392 4.022 0.0 0
M  V30 16 C 2.7636 5.4332 0.0 0
M  V30 17 C -5.3509 2.2697 0.0 0
M  V30 18 C -5.0804 4.9275 0.0 0
M  V30 19 C -3.9161 5.8683 0.0 0
M  V30 20 C 4.2454 5.3626 0.0 0
M  V30 21 O -4.6805 0.9525 0.0 0
M  V30 22 C -6.8562 2.3638 0.0 0 CFG=1
M  V30 23 N -7.55 3.7044 0.0 0
M  V30 24 C -7.6794 1.1172 0.0 0
M  V30 25 C -9.0553 3.7985 0.0 0
M  V30 26 C -9.1847 1.2113 0.0 0
M  V30 27 C -7.0091 -0.1999 0.0 0
M  V30 28 O -9.8785 2.5519 0.0 0
M  V30 29 C -9.7492 5.1392 0.0 0 CFG=1
M  V30 30 C -10.0079 -0.0352 0.0 0
M  V30 31 C -7.8323 -1.4465 0.0 0
M  V30 32 N -8.9495 6.4093 0.0 0
M  V30 33 C -11.2545 5.2333 0.0 0
M  V30 34 C -9.3376 -1.3524 0.0 0
M  V30 35 C -9.6433 7.7499 0.0 0
M  V30 END ATOM
M  V30 BEGIN BOND
M  V30 1 1 1 2
M  V30 2 1 1 3
M  V30 3 2 2 4
M  V30 4 1 3 5
M  V30 5 2 3 6
M  V30 6 1 5 7
M  V30 7 1 6 8
M  V30 8 2 7 9
M  V30 9 1 10 7 CFG=1
M  V30 10 2 8 11
M  V30 11 1 8 12
M  V30 12 1 10 13
M  V30 13 1 10 14
M  V30 14 1 11 15
M  V30 15 2 12 16
M  V30 16 1 13 17
M  V30 17 1 13 18
M  V30 18 1 14 19
M  V30 19 2 15 20
M  V30 20 2 17 21
M  V30 21 1 17 22
M  V30 22 1 22 23 CFG=3
M  V30 23 1 22 24
M  V30 24 1 23 25
M  V30 25 1 24 26
M  V30 26 1 24 27
M  V30 27 2 25 28
M  V30 28 1 25 29
M  V30 29 1 26 30
M  V30 30 1 27 31
M  V30 31 1 29 32 CFG=3
M  V30 32 1 29 33
M  V30 33 1 30 34
M  V30 34 1 32 35
M  V30 35 1 4 6
M  V30 36 1 16 20
M  V30 37 1 18 19
M  V30 38 1 31 34
M  V30 END BOND
M  V30 BEGIN COLLECTION
M  V30 MDLV30/STEABS ATOMS=(3 10 22 29)
M  V30 END COLLECTION
M  V30 END CTAB
M  END
>  <Compound ID>
56

>  <Name>
GDC-0152

>  <Uniprot>
Q13490

>  <Target>
cIAP1

>  <Smiles>
CN[C@@H](C)C(=O)N[C@H](C(=O)N1CCC[C@H]1C(=O)NC1=C(C2=CC=CC=C2)N=NS1)C1CCCCC1

>  <Kd (nM)>


>  <Assay (Kd)>


>  <Ki (nM)>
14500/17

>  <Assay (Ki)>
Ki of cIAP1 BIR2/BIR3 was tested by FP

>  <IC50 (nM)>


>  <Assay (IC50)>


>  <EC50 (nM)>


>  <Assay (EC50)>


>  <Article DOI>
10.1021/jm300060k

>  <Molecular Weight>
498.653

>  <Exact Mass>
498.241309948

>  <XLogP3>
3.42

>  <Heavy Atom Count>
35

>  <Ring Count>
4

>  <Hydrogen Bond Acceptor Count>
7

>  <Hydrogen Bond Donor Count>
3

>  <Rotatable Bond Count>
8

>  <Topological Polar Surface Area>
116.32

>  <Molecular Formula>
C25H34N6O3S

>  <InChI>
InChI=1S/C25H34N6O3S/c1-16(26-2)22(32)27-21(18-12-7-4-8-13-18)25(34)31-15-9-14-19(31)23(33)28-24-20(29-30-35-24)17-10-5-3-6-11-17/h3,5-6,10-11,16,18-19,21,26H,4,7-9,12-15H2,1-2H3,(H,27,32)(H,28,33)/t16-,19-,21-/m0/s1

>  <InChI Key>
WZRFLSDVFPIXOV-LRQRDZAKSA-N

>  <BindingDB>
50388975

>  <PubChem>
46940575

>  <ChEMBL>
CHEMBL2063869

$$$$
Compound 61
Actelion Java MolfileCreator 2.0

  0  0  0  0  0  0              0 V3000
M  V30 BEGIN CTAB
M  V30 COUNTS 35 38 0 0 0
M  V30 BEGIN ATOM
M  V30 1 S 0.0 0.0 0.0 0
M  V30 2 N 1.2465 -0.7996 0.0 0
M  V30 3 C 0.3763 1.4582 0.0 0
M  V30 4 N 2.399 0.1528 0.0 0
M  V30 5 N -0.5762 2.6342 0.0 0
M  V30 6 C 1.8581 1.5523 0.0 0
M  V30 7 C -2.0698 2.4108 0.0 0
M  V30 8 C 2.6578 2.8224 0.0 0
M  V30 9 O -2.6225 1.0231 0.0 0
M  V30 10 C -3.0223 3.5868 0.0 0 CFG=1
M  V30 11 C 4.1396 2.7518 0.0 0
M  V30 12 C 1.9639 4.1631 0.0 0
M  V30 13 N -4.5276 3.5163 0.0 0
M  V30 14 C -2.646 5.0451 0.0 0
M  V30 15 C 4.9392 4.022 0.0 0
M  V30 16 C 2.7636 5.4332 0.0 0
M  V30 17 C -5.3509 2.2697 0.0 0
M  V30 18 C -5.0804 4.9275 0.0 0
M  V30 19 C -3.9161 5.8683 0.0 0
M  V30 20 C 4.2454 5.3626 0.0 0
M  V30 21 O -4.6805 0.9525 0.0 0
M  V30 22 C -6.8562 2.3638 0.0 0 CFG=1
M  V30 23 N -7.55 3.7044 0.0 0
M  V30 24 C -7.6794 1.1172 0.0 0
M  V30 25 C -9.0553 3.7985 0.0 0
M  V30 26 C -9.1847 1.2113 0.0 0
M  V30 27 C -7.0091 -0.1999 0.0 0
M  V30 28 O -9.8785 2.5519 0.0 0
M  V30 29 C -9.7492 5.1392 0.0 0 CFG=1
M  V30 30 C -10.0079 -0.0352 0.0 0
M  V30 31 C -7.8323 -1.4465 0.0 0
M  V30 32 N -8.9495 6.4093 0.0 0
M  V30 33 C -11.2545 5.2333 0.0 0
M  V30 34 C -9.3376 -1.3524 0.0 0
M  V30 35 C -9.6433 7.7499 0.0 0
M  V30 END ATOM
M  V30 BEGIN BOND
M  V30 1 1 1 2
M  V30 2 1 1 3
M  V30 3 2 2 4
M  V30 4 1 3 5
M  V30 5 2 3 6
M  V30 6 1 5 7
M  V30 7 1 6 8
M  V30 8 2 7 9
M  V30 9 1 10 7 CFG=1
M  V30 10 2 8 11
M  V30 11 1 8 12
M  V30 12 1 10 13
M  V30 13 1 10 14
M  V30 14 1 11 15
M  V30 15 2 12 16
M  V30 16 1 13 17
M  V30 17 1 13 18
M  V30 18 1 14 19
M  V30 19 2 15 20
M  V30 20 2 17 21
M  V30 21 1 17 22
M  V30 22 1 22 23 CFG=3
M  V30 23 1 22 24
M  V30 24 1 23 25
M  V30 25 1 24 26
M  V30 26 1 24 27
M  V30 27 2 25 28
M  V30 28 1 25 29
M  V30 29 1 26 30
M  V30 30 1 27 31
M  V30 31 1 29 32 CFG=3
M  V30 32 1 29 33
M  V30 33 1 30 34
M  V30 34 1 32 35
M  V30 35 1 4 6
M  V30 36 1 16 20
M  V30 37 1 18 19
M  V30 38 1 31 34
M  V30 END BOND
M  V30 BEGIN COLLECTION
M  V30 MDLV30/STEABS ATOMS=(3 10 22 29)
M  V30 END COLLECTION
M  V30 END CTAB
M  END
>  <Compound ID>
56

>  <Name>
GDC-0152

>  <Uniprot>
Q13489

>  <Target>
cIAP2

>  <Smiles>
CN[C@@H](C)C(=O)N[C@H](C(=O)N1CCC[C@H]1C(=O)NC1=C(C2=CC=CC=C2)N=NS1)C1CCCCC1

>  <Kd (nM)>


>  <Assay (Kd)>


>  <Ki (nM)>
9600/43

>  <Assay (Ki)>
Ki of cIAP2 BIR2/BIR3 was tested by FP

>  <IC50 (nM)>


>  <Assay (IC50)>


>  <EC50 (nM)>


>  <Assay (EC50)>


>  <Article DOI>
10.1021/jm300060k

>  <Molecular Weight>
498.653

>  <Exact Mass>
498.241309948

>  <XLogP3>
3.42

>  <Heavy Atom Count>
35

>  <Ring Count>
4

>  <Hydrogen Bond Acceptor Count>
7

>  <Hydrogen Bond Donor Count>
3

>  <Rotatable Bond Count>
8

>  <Topological Polar Surface Area>
116.32

>  <Molecular Formula>
C25H34N6O3S

>  <InChI>
InChI=1S/C25H34N6O3S/c1-16(26-2)22(32)27-21(18-12-7-4-8-13-18)25(34)31-15-9-14-19(31)23(33)28-24-20(29-30-35-24)17-10-5-3-6-11-17/h3,5-6,10-11,16,18-19,21,26H,4,7-9,12-15H2,1-2H3,(H,27,32)(H,28,33)/t16-,19-,21-/m0/s1

>  <InChI Key>
WZRFLSDVFPIXOV-LRQRDZAKSA-N

>  <BindingDB>
50388975

>  <PubChem>
46940575

>  <ChEMBL>
CHEMBL2063869

$$$$
Compound 62
Actelion Java MolfileCreator 2.0

  0  0  0  0  0  0              0 V3000
M  V30 BEGIN CTAB
M  V30 COUNTS 35 38 0 0 0
M  V30 BEGIN ATOM
M  V30 1 S 0.0 0.0 0.0 0
M  V30 2 N 1.2465 -0.7996 0.0 0
M  V30 3 C 0.3763 1.4582 0.0 0
M  V30 4 N 2.399 0.1528 0.0 0
M  V30 5 N -0.5762 2.6342 0.0 0
M  V30 6 C 1.8581 1.5523 0.0 0
M  V30 7 C -2.0698 2.4108 0.0 0
M  V30 8 C 2.6578 2.8224 0.0 0
M  V30 9 O -2.6225 1.0231 0.0 0
M  V30 10 C -3.0223 3.5868 0.0 0 CFG=1
M  V30 11 C 4.1396 2.7518 0.0 0
M  V30 12 C 1.9639 4.1631 0.0 0
M  V30 13 N -4.5276 3.5163 0.0 0
M  V30 14 C -2.646 5.0451 0.0 0
M  V30 15 C 4.9392 4.022 0.0 0
M  V30 16 C 2.7636 5.4332 0.0 0
M  V30 17 C -5.3509 2.2697 0.0 0
M  V30 18 C -5.0804 4.9275 0.0 0
M  V30 19 C -3.9161 5.8683 0.0 0
M  V30 20 C 4.2454 5.3626 0.0 0
M  V30 21 O -4.6805 0.9525 0.0 0
M  V30 22 C -6.8562 2.3638 0.0 0 CFG=1
M  V30 23 N -7.55 3.7044 0.0 0
M  V30 24 C -7.6794 1.1172 0.0 0
M  V30 25 C -9.0553 3.7985 0.0 0
M  V30 26 C -9.1847 1.2113 0.0 0
M  V30 27 C -7.0091 -0.1999 0.0 0
M  V30 28 O -9.8785 2.5519 0.0 0
M  V30 29 C -9.7492 5.1392 0.0 0 CFG=1
M  V30 30 C -10.0079 -0.0352 0.0 0
M  V30 31 C -7.8323 -1.4465 0.0 0
M  V30 32 N -8.9495 6.4093 0.0 0
M  V30 33 C -11.2545 5.2333 0.0 0
M  V30 34 C -9.3376 -1.3524 0.0 0
M  V30 35 C -9.6433 7.7499 0.0 0
M  V30 END ATOM
M  V30 BEGIN BOND
M  V30 1 1 1 2
M  V30 2 1 1 3
M  V30 3 2 2 4
M  V30 4 1 3 5
M  V30 5 2 3 6
M  V30 6 1 5 7
M  V30 7 1 6 8
M  V30 8 2 7 9
M  V30 9 1 10 7 CFG=1
M  V30 10 2 8 11
M  V30 11 1 8 12
M  V30 12 1 10 13
M  V30 13 1 10 14
M  V30 14 1 11 15
M  V30 15 2 12 16
M  V30 16 1 13 17
M  V30 17 1 13 18
M  V30 18 1 14 19
M  V30 19 2 15 20
M  V30 20 2 17 21
M  V30 21 1 17 22
M  V30 22 1 22 23 CFG=3
M  V30 23 1 22 24
M  V30 24 1 23 25
M  V30 25 1 24 26
M  V30 26 1 24 27
M  V30 27 2 25 28
M  V30 28 1 25 29
M  V30 29 1 26 30
M  V30 30 1 27 31
M  V30 31 1 29 32 CFG=3
M  V30 32 1 29 33
M  V30 33 1 30 34
M  V30 34 1 32 35
M  V30 35 1 4 6
M  V30 36 1 16 20
M  V30 37 1 18 19
M  V30 38 1 31 34
M  V30 END BOND
M  V30 BEGIN COLLECTION
M  V30 MDLV30/STEABS ATOMS=(3 10 22 29)
M  V30 END COLLECTION
M  V30 END CTAB
M  END
>  <Compound ID>
56

>  <Name>
GDC-0152

>  <Uniprot>
P98170

>  <Target>
XIAP

>  <Smiles>
CN[C@@H](C)C(=O)N[C@H](C(=O)N1CCC[C@H]1C(=O)NC1=C(C2=CC=CC=C2)N=NS1)C1CCCCC1

>  <Kd (nM)>


>  <Assay (Kd)>


>  <Ki (nM)>
112/28

>  <Assay (Ki)>
Ki of XIAP BIR2/BIR3 was tested by FP

>  <IC50 (nM)>


>  <Assay (IC50)>


>  <EC50 (nM)>


>  <Assay (EC50)>


>  <Article DOI>
10.1021/jm300060k

>  <Molecular Weight>
498.653

>  <Exact Mass>
498.241309948

>  <XLogP3>
3.42

>  <Heavy Atom Count>
35

>  <Ring Count>
4

>  <Hydrogen Bond Acceptor Count>
7

>  <Hydrogen Bond Donor Count>
3

>  <Rotatable Bond Count>
8

>  <Topological Polar Surface Area>
116.32

>  <Molecular Formula>
C25H34N6O3S

>  <InChI>
InChI=1S/C25H34N6O3S/c1-16(26-2)22(32)27-21(18-12-7-4-8-13-18)25(34)31-15-9-14-19(31)23(33)28-24-20(29-30-35-24)17-10-5-3-6-11-17/h3,5-6,10-11,16,18-19,21,26H,4,7-9,12-15H2,1-2H3,(H,27,32)(H,28,33)/t16-,19-,21-/m0/s1

>  <InChI Key>
WZRFLSDVFPIXOV-LRQRDZAKSA-N

>  <BindingDB>
50388975

>  <PubChem>
46940575

>  <ChEMBL>
CHEMBL2063869

$$$$
Compound 63
Actelion Java MolfileCreator 2.0

  0  0  0  0  0  0              0 V3000
M  V30 BEGIN CTAB
M  V30 COUNTS 36 39 0 0 0
M  V30 BEGIN ATOM
M  V30 1 F 0.0 0.0 0.0 0
M  V30 2 C -1.2357 0.8591 0.0 0
M  V30 3 C -2.6009 0.2353 0.0 0
M  V30 4 C -1.1298 2.3655 0.0 0
M  V30 5 C -3.8367 1.0945 0.0 0
M  V30 6 C -2.3655 3.2247 0.0 0
M  V30 7 C -3.7307 2.6009 0.0 0
M  V30 8 C -4.9665 3.46 0.0 0
M  V30 9 O -4.8606 4.9665 0.0 0
M  V30 10 C -6.3317 2.8363 0.0 0
M  V30 11 C -6.4611 1.3534 0.0 0
M  V30 12 C -7.5674 3.6954 0.0 0
M  V30 13 N -7.8264 0.7296 0.0 0
M  V30 14 C -8.9326 3.0717 0.0 0
M  V30 15 C -9.0621 1.5888 0.0 0
M  V30 16 C -10.1684 3.9308 0.0 0 CFG=1
M  V30 17 N -11.5924 3.4483 0.0 0
M  V30 18 C -10.2155 5.4372 0.0 0
M  V30 19 C -12.0279 2.0242 0.0 0
M  V30 20 C -12.5104 4.6487 0.0 0
M  V30 21 C -11.6631 5.8727 0.0 0
M  V30 22 O -11.0158 0.9532 0.0 0
M  V30 23 C -13.499 1.6947 0.0 0 CFG=1
M  V30 24 N -14.5347 2.7892 0.0 0
M  V30 25 C -13.9345 0.2706 0.0 0
M  V30 26 C -16.0058 2.4597 0.0 0
M  V30 27 C -15.4056 -0.0588 0.0 0
M  V30 28 C -12.9223 -0.8002 0.0 0
M  V30 29 O -16.4413 1.0356 0.0 0
M  V30 30 C -17.0415 3.5542 0.0 0 CFG=1
M  V30 31 C -15.8411 -1.4828 0.0 0
M  V30 32 C -13.3578 -2.2243 0.0 0
M  V30 33 N -16.6296 5.0018 0.0 0
M  V30 34 C -18.5126 3.2247 0.0 0
M  V30 35 C -14.8289 -2.5538 0.0 0
M  V30 36 C -17.6653 6.0963 0.0 0
M  V30 END ATOM
M  V30 BEGIN BOND
M  V30 1 1 1 2
M  V30 2 2 2 3
M  V30 3 1 2 4
M  V30 4 1 3 5
M  V30 5 2 4 6
M  V30 6 2 5 7
M  V30 7 1 7 8
M  V30 8 2 8 9
M  V30 9 1 8 10
M  V30 10 2 10 11
M  V30 11 1 10 12
M  V30 12 1 11 13
M  V30 13 2 12 14
M  V30 14 2 13 15
M  V30 15 1 16 14 CFG=1
M  V30 16 1 16 17
M  V30 17 1 16 18
M  V30 18 1 17 19
M  V30 19 1 17 20
M  V30 20 1 18 21
M  V30 21 2 19 22
M  V30 22 1 19 23
M  V30 23 1 23 24 CFG=3
M  V30 24 1 23 25
M  V30 25 1 24 26
M  V30 26 1 25 27
M  V30 27 1 25 28
M  V30 28 2 26 29
M  V30 29 1 26 30
M  V30 30 1 27 31
M  V30 31 1 28 32
M  V30 32 1 30 33 CFG=3
M  V30 33 1 30 34
M  V30 34 1 31 35
M  V30 35 1 33 36
M  V30 36 1 6 7
M  V30 37 1 14 15
M  V30 38 1 20 21
M  V30 39 1 32 35
M  V30 END BOND
M  V30 BEGIN COLLECTION
M  V30 MDLV30/STEABS ATOMS=(3 16 23 30)
M  V30 END COLLECTION
M  V30 END CTAB
M  END
>  <Compound ID>
57

>  <Name>


>  <Uniprot>


>  <Target>
IAP

>  <Smiles>
CN[C@@H](C)C(=O)N[C@H](C(=O)N1CCC[C@H]1C1=CN=CC(C(=O)C2=CC=C(F)C=C2)=C1)C1CCCCC1

>  <Kd (nM)>


>  <Assay (Kd)>


>  <Ki (nM)>


>  <Assay (Ki)>


>  <IC50 (nM)>


>  <Assay (IC50)>


>  <EC50 (nM)>


>  <Assay (EC50)>


>  <Article DOI>


>  <Molecular Weight>
494.611

>  <Exact Mass>
494.2693192

>  <XLogP3>
3.87

>  <Heavy Atom Count>
36

>  <Ring Count>
4

>  <Hydrogen Bond Acceptor Count>
5

>  <Hydrogen Bond Donor Count>
2

>  <Rotatable Bond Count>
8

>  <Topological Polar Surface Area>
91.4

>  <Molecular Formula>
C28H35FN4O3

>  <InChI>
InChI=1S/C28H35FN4O3/c1-18(30-2)27(35)32-25(19-7-4-3-5-8-19)28(36)33-14-6-9-24(33)21-15-22(17-31-16-21)26(34)20-10-12-23(29)13-11-20/h10-13,15-19,24-25,30H,3-9,14H2,1-2H3,(H,32,35)/t18-,24-,25-/m0/s1

>  <InChI Key>
PLYJYKAWZXEBFC-WDNCENIBSA-N

>  <BindingDB>


>  <PubChem>
58191770

>  <ChEMBL>


$$$$
Compound 64
Actelion Java MolfileCreator 2.0

  0  0  0  0  0  0              0 V3000
M  V30 BEGIN CTAB
M  V30 COUNTS 20 22 0 0 0
M  V30 BEGIN ATOM
M  V30 1 O 0.0 0.0 0.0 0
M  V30 2 C 0.6359 -1.3424 0.0 0
M  V30 3 N 2.1196 -1.4366 0.0 0
M  V30 4 C -0.2237 -2.5671 0.0 0 CFG=1
M  V30 5 C 2.7555 -2.7791 0.0 0
M  V30 6 N -1.731 -2.4493 0.0 0
M  V30 7 C 0.4121 -3.9096 0.0 0
M  V30 8 O 4.2393 -2.8733 0.0 0
M  V30 9 C 1.8959 -4.0038 0.0 0
M  V30 10 C -2.7084 -3.5798 0.0 0
M  V30 11 C -2.5318 -1.1658 0.0 0
M  V30 12 O -2.3669 -5.0283 0.0 0
M  V30 13 C -4.1098 -3.0028 0.0 0
M  V30 14 O -1.9783 0.2355 0.0 0
M  V30 15 C -4.0038 -1.5073 0.0 0
M  V30 16 C -5.4758 -3.6387 0.0 0
M  V30 17 C -5.252 -0.6476 0.0 0
M  V30 18 C -6.724 -2.7791 0.0 0
M  V30 19 C -6.618 -1.2835 0.0 0
M  V30 20 N -8.09 -3.415 0.0 0
M  V30 END ATOM
M  V30 BEGIN BOND
M  V30 1 2 1 2
M  V30 2 1 2 3
M  V30 3 1 2 4
M  V30 4 1 3 5
M  V30 5 1 4 6 CFG=3
M  V30 6 1 4 7
M  V30 7 2 5 8
M  V30 8 1 5 9
M  V30 9 1 6 10
M  V30 10 1 6 11
M  V30 11 2 10 12
M  V30 12 1 10 13
M  V30 13 2 11 14
M  V30 14 1 11 15
M  V30 15 1 13 16
M  V30 16 1 15 17
M  V30 17 2 16 18
M  V30 18 2 17 19
M  V30 19 1 18 20
M  V30 20 1 7 9
M  V30 21 2 13 15
M  V30 22 1 18 19
M  V30 END BOND
M  V30 BEGIN COLLECTION
M  V30 MDLV30/STERAC1 ATOMS=(1 4)
M  V30 END COLLECTION
M  V30 END CTAB
M  END
>  <Compound ID>
58

>  <Name>


>  <Uniprot>
Q96SW2

>  <Target>
CRBN

>  <Smiles>
NC1=CC=C2C(=O)N(C3CCC(=O)NC3=O)C(=O)C2=C1

>  <Kd (nM)>
549

>  <Assay (Kd)>
SPR

>  <Ki (nM)>


>  <Assay (Ki)>


>  <IC50 (nM)>


>  <Assay (IC50)>


>  <EC50 (nM)>


>  <Assay (EC50)>


>  <Article DOI>
10.1002/cmdc.201800271

>  <Molecular Weight>
273.248

>  <Exact Mass>
273.074955832

>  <XLogP3>
-0.35

>  <Heavy Atom Count>
20

>  <Ring Count>
3

>  <Hydrogen Bond Acceptor Count>
5

>  <Hydrogen Bond Donor Count>
2

>  <Rotatable Bond Count>
1

>  <Topological Polar Surface Area>
109.57

>  <Molecular Formula>
C13H11N3O4

>  <InChI>
InChI=1S/C13H11N3O4/c14-6-1-2-7-8(5-6)13(20)16(12(7)19)9-3-4-10(17)15-11(9)18/h1-2,5,9H,3-4,14H2,(H,15,17,18)

>  <InChI Key>
IICWMVJMJVXCLY-UHFFFAOYSA-N

>  <BindingDB>


>  <PubChem>
9816958

>  <ChEMBL>
CHEMBL43855

$$$$
Compound 65
Actelion Java MolfileCreator 2.0

  0  0  0  0  0  0              0 V3000
M  V30 BEGIN CTAB
M  V30 COUNTS 33 36 0 0 0
M  V30 BEGIN ATOM
M  V30 1 O 0.0 0.0 0.0 0
M  V30 2 C 0.6602 1.3559 0.0 0
M  V30 3 N -0.2711 2.5468 0.0 0
M  V30 4 C 2.1459 1.3441 0.0 0 CFG=1
M  V30 5 C -1.7804 2.4407 0.0 0 CFG=2
M  V30 6 C 0.0707 4.0089 0.0 0 CFG=1
M  V30 7 N 2.7708 0.0 0.0 0
M  V30 8 C 3.0774 2.5114 0.0 0
M  V30 9 C -2.5822 1.179 0.0 0
M  V30 10 C -2.3581 3.832 0.0 0
M  V30 11 O 1.4149 4.6574 0.0 0
M  V30 12 C -1.2144 4.8107 0.0 0
M  V30 13 C 1.8983 -1.2144 0.0 0
M  V30 14 C 2.7473 3.9853 0.0 0
M  V30 15 O -1.8865 -0.1297 0.0 0
M  V30 16 N -4.0914 1.2262 0.0 0
M  V30 17 C -3.2189 5.0819 0.0 0
M  V30 18 C -3.6905 3.1364 0.0 0
M  V30 19 O 0.3891 -1.0729 0.0 0
M  V30 20 C 2.5232 -2.5586 0.0 0 CFG=1
M  V30 21 C -4.8932 -0.0353 0.0 0 CFG=1
M  V30 22 N 4.0089 -2.6765 0.0 0
M  V30 23 C 1.6507 -3.7731 0.0 0
M  V30 24 C -6.4025 0.0235 0.0 0
M  V30 25 C -4.1975 -1.3441 0.0 0
M  V30 26 C 4.6338 -4.0207 0.0 0
M  V30 27 C -7.2042 -1.238 0.0 0
M  V30 28 C -7.1217 1.3559 0.0 0
M  V30 29 C -4.9993 -2.6058 0.0 0
M  V30 30 C -8.7135 -1.1908 0.0 0
M  V30 31 C -6.5086 -2.5468 0.0 0
M  V30 32 C -8.631 1.4031 0.0 0
M  V30 33 C -9.4327 0.1414 0.0 0
M  V30 END ATOM
M  V30 BEGIN BOND
M  V30 1 2 1 2
M  V30 2 1 2 3
M  V30 3 1 2 4
M  V30 4 1 3 5
M  V30 5 1 3 6
M  V30 6 1 4 7 CFG=3
M  V30 7 1 4 8
M  V30 8 1 5 9 CFG=3
M  V30 9 1 5 10
M  V30 10 1 6 11 CFG=3
M  V30 11 1 6 12
M  V30 12 1 7 13
M  V30 13 1 8 14
M  V30 14 2 9 15
M  V30 15 1 9 16
M  V30 16 1 10 17
M  V30 17 1 10 18
M  V30 18 2 13 19
M  V30 19 1 13 20
M  V30 20 1 21 16 CFG=3
M  V30 21 1 20 22 CFG=1
M  V30 22 1 20 23
M  V30 23 1 21 24
M  V30 24 1 21 25
M  V30 25 1 22 26
M  V30 26 2 24 27
M  V30 27 1 24 28
M  V30 28 1 25 29
M  V30 29 1 27 30
M  V30 30 1 27 31
M  V30 31 2 28 32
M  V30 32 2 30 33
M  V30 33 1 10 12
M  V30 34 1 11 14
M  V30 35 1 29 31
M  V30 36 1 32 33
M  V30 END BOND
M  V30 BEGIN COLLECTION
M  V30 MDLV30/STEABS ATOMS=(5 4 5 6 20 21)
M  V30 END COLLECTION
M  V30 END CTAB
M  END
>  <Compound ID>
59

>  <Name>


>  <Uniprot>
P98170

>  <Target>
XIAP

>  <Smiles>
CN[C@@H](C)C(=O)N[C@H]1CCO[C@H]2CC(C)(C)[C@@H](C(=O)N[C@@H]3CCCC4=CC=CC=C43)N2C1=O

>  <Kd (nM)>


>  <Assay (Kd)>


>  <Ki (nM)>
9640/100

>  <Assay (Ki)>
Ki of XIAP BIR2/BIR3 was tested by FP

>  <IC50 (nM)>


>  <Assay (IC50)>


>  <EC50 (nM)>


>  <Assay (EC50)>


>  <Article DOI>
10.1021/cb3005512

>  <Molecular Weight>
456.587

>  <Exact Mass>
456.273655632

>  <XLogP3>
2.23

>  <Heavy Atom Count>
33

>  <Ring Count>
4

>  <Hydrogen Bond Acceptor Count>
5

>  <Hydrogen Bond Donor Count>
3

>  <Rotatable Bond Count>
5

>  <Topological Polar Surface Area>
99.77

>  <Molecular Formula>
C25H36N4O4

>  <InChI>
InChI=1S/C25H36N4O4/c1-15(26-4)22(30)28-19-12-13-33-20-14-25(2,3)21(29(20)24(19)32)23(31)27-18-11-7-9-16-8-5-6-10-17(16)18/h5-6,8,10,15,18-21,26H,7,9,11-14H2,1-4H3,(H,27,31)(H,28,30)/t15-,18+,19-,20-,21+/m0/s1

>  <InChI Key>
PBGOFGSVVXGJCA-KDJJVYBXSA-N

>  <BindingDB>
391831

>  <PubChem>
76071591

>  <ChEMBL>


$$$$
Compound 66
Actelion Java MolfileCreator 2.0

  0  0  0  0  0  0              0 V3000
M  V30 BEGIN CTAB
M  V30 COUNTS 23 26 0 0 0
M  V30 BEGIN ATOM
M  V30 1 O 0.0 0.0 0.0 0
M  V30 2 C 0.778 1.2849 0.0 0
M  V30 3 N 0.0589 2.617 0.0 0
M  V30 4 C 2.2634 1.2495 0.0 0
M  V30 5 C 0.8369 3.902 0.0 0
M  V30 6 C -1.45 2.676 0.0 0 CFG=2
M  V30 7 C 3.0414 2.5345 0.0 0
M  V30 8 C 2.9589 -0.0589 0.0 0
M  V30 9 O 0.1178 5.2341 0.0 0
M  V30 10 C 2.3223 3.8666 0.0 0
M  V30 11 C -2.2516 1.4146 0.0 0
M  V30 12 C -2.1691 4.0081 0.0 0
M  V30 13 C 4.5268 2.4991 0.0 0
M  V30 14 C 4.4443 -0.0943 0.0 0
M  V30 15 C 3.1004 5.1516 0.0 0
M  V30 16 O -1.556 0.106 0.0 0
M  V30 17 N -3.7605 1.4735 0.0 0
M  V30 18 C -3.678 4.067 0.0 0
M  V30 19 C 5.2223 1.1906 0.0 0
M  V30 20 C 5.3048 3.7841 0.0 0
M  V30 21 C 4.5857 5.1162 0.0 0
M  V30 22 C -4.4796 2.8056 0.0 0
M  V30 23 O -5.9886 2.8646 0.0 0
M  V30 END ATOM
M  V30 BEGIN BOND
M  V30 1 2 1 2
M  V30 2 1 2 3
M  V30 3 1 2 4
M  V30 4 1 3 5
M  V30 5 1 6 3 CFG=3
M  V30 6 1 4 7
M  V30 7 2 4 8
M  V30 8 2 5 9
M  V30 9 1 5 10
M  V30 10 1 6 11
M  V30 11 1 6 12
M  V30 12 1 7 13
M  V30 13 1 8 14
M  V30 14 1 10 15
M  V30 15 2 11 16
M  V30 16 1 11 17
M  V30 17 1 12 18
M  V30 18 1 13 19
M  V30 19 2 13 20
M  V30 20 2 15 21
M  V30 21 1 17 22
M  V30 22 2 22 23
M  V30 23 2 7 10
M  V30 24 2 14 19
M  V30 25 1 18 22
M  V30 26 1 20 21
M  V30 END BOND
M  V30 BEGIN COLLECTION
M  V30 MDLV30/STERAC1 ATOMS=(1 6)
M  V30 END COLLECTION
M  V30 END CTAB
M  END
>  <Compound ID>
60

>  <Name>


>  <Uniprot>
Q96SW2

>  <Target>
CRBN

>  <Smiles>
O=C1CCC(N2C(=O)C3=CC=CC4=CC=CC(=C34)C2=O)C(=O)N1

>  <Kd (nM)>
111

>  <Assay (Kd)>
SPR

>  <Ki (nM)>


>  <Assay (Ki)>


>  <IC50 (nM)>


>  <Assay (IC50)>


>  <EC50 (nM)>


>  <Assay (EC50)>


>  <Article DOI>
10.1002/cmdc.201800271

>  <Molecular Weight>
308.293

>  <Exact Mass>
308.079706864

>  <XLogP3>
1.58

>  <Heavy Atom Count>
23

>  <Ring Count>
4

>  <Hydrogen Bond Acceptor Count>
4

>  <Hydrogen Bond Donor Count>
1

>  <Rotatable Bond Count>
1

>  <Topological Polar Surface Area>
83.55

>  <Molecular Formula>
C17H12N2O4

>  <InChI>
InChI=1S/C17H12N2O4/c20-13-8-7-12(15(21)18-13)19-16(22)10-5-1-3-9-4-2-6-11(14(9)10)17(19)23/h1-6,12H,7-8H2,(H,18,20,21)

>  <InChI Key>
BERVIROBWDIAQO-UHFFFAOYSA-N

>  <BindingDB>


>  <PubChem>
44225920

>  <ChEMBL>
CHEMBL1088333

$$$$
Compound 67
Actelion Java MolfileCreator 2.0

  0  0  0  0  0  0              0 V3000
M  V30 BEGIN CTAB
M  V30 COUNTS 27 29 0 0 0
M  V30 BEGIN ATOM
M  V30 1 Cl 0.0 0.0 0.0 0
M  V30 2 C -1.0712 -1.0484 0.0 0
M  V30 3 C -2.53 -0.6495 0.0 0
M  V30 4 O -2.9288 0.8091 0.0 0
M  V30 5 N -3.6012 -1.698 0.0 0
M  V30 6 C -5.06 -1.2991 0.0 0
M  V30 7 C -3.2251 -3.134 0.0 0
M  V30 8 C -6.1312 -2.3476 0.0 0
M  V30 9 C -5.4588 0.1595 0.0 0
M  V30 10 C -1.7892 -3.5101 0.0 0
M  V30 11 C -7.59 -1.9487 0.0 0
M  V30 12 C -6.9176 0.5584 0.0 0
M  V30 13 C -1.4131 -4.946 0.0 0
M  V30 14 C -0.7407 -2.4388 0.0 0
M  V30 15 C -7.9889 -0.49 0.0 0
M  V30 16 C 0.0227 -5.3221 0.0 0
M  V30 17 C 0.6951 -2.8149 0.0 0
M  V30 18 O -9.4476 -0.0911 0.0 0
M  V30 19 C 1.0712 -4.2508 0.0 0
M  V30 20 C -10.5189 -1.1396 0.0 0
M  V30 21 C -11.9776 -0.7407 0.0 0
M  V30 22 C -10.1428 -2.5755 0.0 0
M  V30 23 C -13.0489 -1.7892 0.0 0
M  V30 24 C -11.214 -3.624 0.0 0
M  V30 25 C -12.6728 -3.2251 0.0 0
M  V30 26 O -13.7441 -4.2736 0.0 0
M  V30 27 C -15.2028 -3.8747 0.0 0
M  V30 END ATOM
M  V30 BEGIN BOND
M  V30 1 1 1 2
M  V30 2 1 2 3
M  V30 3 2 3 4
M  V30 4 1 3 5
M  V30 5 1 5 6
M  V30 6 1 5 7
M  V30 7 2 6 8
M  V30 8 1 6 9
M  V30 9 1 7 10
M  V30 10 1 8 11
M  V30 11 2 9 12
M  V30 12 2 10 13
M  V30 13 1 10 14
M  V30 14 2 11 15
M  V30 15 1 13 16
M  V30 16 2 14 17
M  V30 17 1 15 18
M  V30 18 2 16 19
M  V30 19 1 18 20
M  V30 20 2 20 21
M  V30 21 1 20 22
M  V30 22 1 21 23
M  V30 23 2 22 24
M  V30 24 2 23 25
M  V30 25 1 25 26
M  V30 26 1 26 27
M  V30 27 1 12 15
M  V30 28 1 17 19
M  V30 29 1 24 25
M  V30 END BOND
M  V30 END CTAB
M  END
>  <Compound ID>
61

>  <Name>
CCW 16

>  <Uniprot>
P78317

>  <Target>
RNF4

>  <Smiles>
COC1=CC=C(OC2=CC=C(N(CC3=CC=CC=C3)C(=O)CCl)C=C2)C=C1

>  <Kd (nM)>


>  <Assay (Kd)>


>  <Ki (nM)>


>  <Assay (Ki)>


>  <IC50 (nM)>
1800

>  <Assay (IC50)>
IC50 was tested by the competitive ABPP assay

>  <EC50 (nM)>


>  <Assay (EC50)>


>  <Article DOI>
10.1021/acschembio.8b01083

>  <Molecular Weight>
381.859

>  <Exact Mass>
381.11317118

>  <XLogP3>
4.9

>  <Heavy Atom Count>
27

>  <Ring Count>
3

>  <Hydrogen Bond Acceptor Count>
3

>  <Hydrogen Bond Donor Count>
0

>  <Rotatable Bond Count>
7

>  <Topological Polar Surface Area>
38.77

>  <Molecular Formula>
C22H20ClNO3

>  <InChI>
InChI=1S/C22H20ClNO3/c1-26-19-11-13-21(14-12-19)27-20-9-7-18(8-10-20)24(22(25)15-23)16-17-5-3-2-4-6-17/h2-14H,15-16H2,1H3

>  <InChI Key>
DPADEQNOMBTITM-UHFFFAOYSA-N

>  <BindingDB>


>  <PubChem>
150069746

>  <ChEMBL>


$$$$
Compound 68
Actelion Java MolfileCreator 2.0

  0  0  0  0  0  0              0 V3000
M  V30 BEGIN CTAB
M  V30 COUNTS 22 24 0 0 0
M  V30 BEGIN ATOM
M  V30 1 O 0.0 0.0 0.0 0
M  V30 2 C -0.3987 -1.4354 0.0 0
M  V30 3 N 0.6493 -2.4834 0.0 0
M  V30 4 C -1.8569 -1.8113 0.0 0 CFG=1
M  V30 5 C 0.2506 -3.9189 0.0 0
M  V30 6 N -2.9277 -0.7404 0.0 0
M  V30 7 C -2.2556 -3.2467 0.0 0
M  V30 8 O 1.2987 -4.9669 0.0 0
M  V30 9 C -1.2075 -4.2948 0.0 0
M  V30 10 C -4.3859 -1.1164 0.0 0
M  V30 11 C -4.7847 -2.5518 0.0 0
M  V30 12 C -5.4568 -0.0455 0.0 0
M  V30 13 C -6.2429 -2.9277 0.0 0
M  V30 14 C -6.915 -0.4215 0.0 0
M  V30 15 C -7.3137 -1.8569 0.0 0
M  V30 16 N -8.7719 -2.2328 0.0 0
M  V30 17 C -9.8428 -1.162 0.0 0
M  V30 18 C -9.1706 -3.6682 0.0 0
M  V30 19 C -11.301 -1.5379 0.0 0
M  V30 20 C -10.6288 -4.0442 0.0 0
M  V30 21 N -11.6997 -2.9733 0.0 0
M  V30 22 C -13.1579 -3.3492 0.0 0
M  V30 END ATOM
M  V30 BEGIN BOND
M  V30 1 2 1 2
M  V30 2 1 2 3
M  V30 3 1 2 4
M  V30 4 1 3 5
M  V30 5 1 4 6 CFG=3
M  V30 6 1 4 7
M  V30 7 2 5 8
M  V30 8 1 5 9
M  V30 9 1 6 10
M  V30 10 2 10 11
M  V30 11 1 10 12
M  V30 12 1 11 13
M  V30 13 2 12 14
M  V30 14 2 13 15
M  V30 15 1 15 16
M  V30 16 1 16 17
M  V30 17 1 16 18
M  V30 18 1 17 19
M  V30 19 1 18 20
M  V30 20 1 19 21
M  V30 21 1 21 22
M  V30 22 1 7 9
M  V30 23 1 14 15
M  V30 24 1 20 21
M  V30 END BOND
M  V30 BEGIN COLLECTION
M  V30 MDLV30/STERAC1 ATOMS=(1 4)
M  V30 END COLLECTION
M  V30 END CTAB
M  END
>  <Compound ID>
62

>  <Name>


>  <Uniprot>
Q96SW2

>  <Target>
CRBN

>  <Smiles>
CN1CCN(C2=CC=C(NC3CCC(=O)NC3=O)C=C2)CC1

>  <Kd (nM)>
<10000

>  <Assay (Kd)>
FP

>  <Ki (nM)>


>  <Assay (Ki)>


>  <IC50 (nM)>


>  <Assay (IC50)>


>  <EC50 (nM)>


>  <Assay (EC50)>


>  <Article DOI>
10.1021/acsmedchemlett.9b00042

>  <Molecular Weight>
302.378

>  <Exact Mass>
302.174275944

>  <XLogP3>
1.07

>  <Heavy Atom Count>
22

>  <Ring Count>
3

>  <Hydrogen Bond Acceptor Count>
5

>  <Hydrogen Bond Donor Count>
2

>  <Rotatable Bond Count>
3

>  <Topological Polar Surface Area>
64.68

>  <Molecular Formula>
C16H22N4O2

>  <InChI>
InChI=1S/C16H22N4O2/c1-19-8-10-20(11-9-19)13-4-2-12(3-5-13)17-14-6-7-15(21)18-16(14)22/h2-5,14,17H,6-11H2,1H3,(H,18,21,22)

>  <InChI Key>
GRQMMULSBXXEST-UHFFFAOYSA-N

>  <BindingDB>


>  <PubChem>
146573351

>  <ChEMBL>
CHEMBL4459677

$$$$
Compound 69
Actelion Java MolfileCreator 2.0

  0  0  0  0  0  0              0 V3000
M  V30 BEGIN CTAB
M  V30 COUNTS 18 20 0 0 0
M  V30 BEGIN ATOM
M  V30 1 O 0.0 0.0 0.0 0
M  V30 2 C -0.2831 1.4864 0.0 0
M  V30 3 N -1.7106 1.9937 0.0 0
M  V30 4 C 0.8494 2.4656 0.0 0 CFG=1
M  V30 5 C -1.9937 3.4802 0.0 0
M  V30 6 N 2.2533 1.9819 0.0 0
M  V30 7 C 0.5662 3.9521 0.0 0
M  V30 8 O -3.4213 3.9875 0.0 0
M  V30 9 C -0.8612 4.4594 0.0 0
M  V30 10 C 2.6662 0.5544 0.0 0
M  V30 11 C 3.4802 2.8432 0.0 0
M  V30 12 O 1.746 -0.6252 0.0 0
M  V30 13 O 4.1527 0.5308 0.0 0
M  V30 14 C 4.66 1.9466 0.0 0
M  V30 15 C 3.669 4.3415 0.0 0
M  V30 16 C 6.0285 2.5364 0.0 0
M  V30 17 C 5.0375 4.9313 0.0 0
M  V30 18 C 6.2173 4.0347 0.0 0
M  V30 END ATOM
M  V30 BEGIN BOND
M  V30 1 2 1 2
M  V30 2 1 2 3
M  V30 3 1 2 4
M  V30 4 1 3 5
M  V30 5 1 4 6 CFG=3
M  V30 6 1 4 7
M  V30 7 2 5 8
M  V30 8 1 5 9
M  V30 9 1 6 10
M  V30 10 1 6 11
M  V30 11 2 10 12
M  V30 12 1 10 13
M  V30 13 2 11 14
M  V30 14 1 11 15
M  V30 15 1 14 16
M  V30 16 2 15 17
M  V30 17 2 16 18
M  V30 18 1 7 9
M  V30 19 1 13 14
M  V30 20 1 17 18
M  V30 END BOND
M  V30 BEGIN COLLECTION
M  V30 MDLV30/STERAC1 ATOMS=(1 4)
M  V30 END COLLECTION
M  V30 END CTAB
M  END
>  <Compound ID>
63

>  <Name>


>  <Uniprot>
Q96SW2

>  <Target>
CRBN

>  <Smiles>
O=C1CCC(N2C(=O)OC3=CC=CC=C32)C(=O)N1

>  <Kd (nM)>


>  <Assay (Kd)>


>  <Ki (nM)>


>  <Assay (Ki)>


>  <IC50 (nM)>


>  <Assay (IC50)>


>  <EC50 (nM)>


>  <Assay (EC50)>


>  <Article DOI>


>  <Molecular Weight>
246.222

>  <Exact Mass>
246.0640568

>  <XLogP3>
0.55

>  <Heavy Atom Count>
18

>  <Ring Count>
3

>  <Hydrogen Bond Acceptor Count>
5

>  <Hydrogen Bond Donor Count>
1

>  <Rotatable Bond Count>
1

>  <Topological Polar Surface Area>
81.31

>  <Molecular Formula>
C12H10N2O4

>  <InChI>
InChI=1S/C12H10N2O4/c15-10-6-5-8(11(16)13-10)14-7-3-1-2-4-9(7)18-12(14)17/h1-4,8H,5-6H2,(H,13,15,16)

>  <InChI Key>
WCKFQKVNTHAOGC-UHFFFAOYSA-N

>  <BindingDB>


>  <PubChem>
138466946

>  <ChEMBL>


$$$$
Compound 70
Actelion Java MolfileCreator 2.0

  0  0  0  0  0  0              0 V3000
M  V30 BEGIN CTAB
M  V30 COUNTS 19 21 0 0 0
M  V30 BEGIN ATOM
M  V30 1 O 0.0 0.0 0.0 0
M  V30 2 C 0.6245 -1.3433 0.0 0
M  V30 3 N 2.1092 -1.4611 0.0 0
M  V30 4 C -0.2474 -2.5688 0.0 0 CFG=1
M  V30 5 C 2.7338 -2.8045 0.0 0
M  V30 6 N -1.7557 -2.4274 0.0 0
M  V30 7 C 0.377 -3.9121 0.0 0
M  V30 8 O 4.2185 -2.9223 0.0 0
M  V30 9 C 1.8618 -4.03 0.0 0
M  V30 10 C -2.5452 -1.1312 0.0 0
M  V30 11 C -2.7455 -3.5468 0.0 0
M  V30 12 O -1.9678 0.2592 0.0 0
M  V30 13 C -4.0182 -1.4611 0.0 0
M  V30 14 C -4.136 -2.9459 0.0 0
M  V30 15 C -5.2673 -0.5891 0.0 0
M  V30 16 C -5.5029 -3.5704 0.0 0
M  V30 17 C -6.6342 -1.2137 0.0 0
M  V30 18 N -5.6443 -5.0551 0.0 0
M  V30 19 C -6.752 -2.6984 0.0 0
M  V30 END ATOM
M  V30 BEGIN BOND
M  V30 1 2 1 2
M  V30 2 1 2 3
M  V30 3 1 2 4
M  V30 4 1 3 5
M  V30 5 1 4 6 CFG=3
M  V30 6 1 4 7
M  V30 7 2 5 8
M  V30 8 1 5 9
M  V30 9 1 6 10
M  V30 10 1 6 11
M  V30 11 2 10 12
M  V30 12 1 10 13
M  V30 13 1 11 14
M  V30 14 1 13 15
M  V30 15 1 14 16
M  V30 16 2 15 17
M  V30 17 1 16 18
M  V30 18 2 16 19
M  V30 19 1 7 9
M  V30 20 2 13 14
M  V30 21 1 17 19
M  V30 END BOND
M  V30 BEGIN COLLECTION
M  V30 MDLV30/STEABS ATOMS=(1 4)
M  V30 END COLLECTION
M  V30 END CTAB
M  END
>  <Compound ID>
64

>  <Name>
S-Lenalidomide

>  <Uniprot>
Q96SW2

>  <Target>
CRBN

>  <Smiles>
NC1=CC=CC2=C1CN([C@H]1CCC(=O)NC1=O)C2=O

>  <Kd (nM)>
178

>  <Assay (Kd)>
FP

>  <Ki (nM)>


>  <Assay (Ki)>


>  <IC50 (nM)>


>  <Assay (IC50)>


>  <EC50 (nM)>


>  <Assay (EC50)>


>  <Article DOI>
10.1038/nature13527

>  <Molecular Weight>
259.265

>  <Exact Mass>
259.095691276

>  <XLogP3>
-0.5

>  <Heavy Atom Count>
19

>  <Ring Count>
3

>  <Hydrogen Bond Acceptor Count>
4

>  <Hydrogen Bond Donor Count>
2

>  <Rotatable Bond Count>
1

>  <Topological Polar Surface Area>
92.5

>  <Molecular Formula>
C13H13N3O3

>  <InChI>
InChI=1S/C13H13N3O3/c14-9-3-1-2-7-8(9)6-16(13(7)19)10-4-5-11(17)15-12(10)18/h1-3,10H,4-6,14H2,(H,15,17,18)/t10-/m0/s1

>  <InChI Key>
GOTYRUGSSMKFNF-JTQLQIEISA-N

>  <BindingDB>


>  <PubChem>
12044976

>  <ChEMBL>


$$$$
Compound 71
Actelion Java MolfileCreator 2.0

  0  0  0  0  0  0              0 V3000
M  V30 BEGIN CTAB
M  V30 COUNTS 34 39 0 0 0
M  V30 BEGIN ATOM
M  V30 1 O 0.0 0.0 0.0 0
M  V30 2 C 0.2495 -0.9484 0.0 0
M  V30 3 C 1.747 -1.1355 0.0 0
M  V30 4 C -0.6988 -2.1464 0.0 0 CFG=2
M  V30 5 C 2.3086 -2.5332 0.0 0
M  V30 6 C -2.2212 -1.9342 0.0 0 CFG=2
M  V30 7 C -0.1372 -3.544 0.0 0 CFG=2
M  V30 8 C -1.2853 -0.7237 0.0 0
M  V30 9 C 1.3727 -3.7312 0.0 0 CFG=2
M  V30 10 C -3.1696 -3.1322 0.0 0 CFG=2
M  V30 11 C -2.8077 -0.5116 0.0 0
M  V30 12 C -1.0732 -4.742 0.0 0 CFG=2
M  V30 13 C 1.3103 -5.3036 0.0 0
M  V30 14 C 2.2587 -4.9417 0.0 0
M  V30 15 C -4.7046 -3.232 0.0 0
M  V30 16 C -2.6081 -4.5299 0.0 0 CFG=1
M  V30 17 C -3.9059 -1.7845 0.0 0
M  V30 18 C -1.8968 0.7113 0.0 0
M  V30 19 O -0.0998 -5.8901 0.0 0
M  V30 20 O 2.5956 -6.0898 0.0 0
M  V30 21 C -6.0149 -2.4209 0.0 0
M  V30 22 C -5.0789 -4.7046 0.0 0 CFG=2
M  V30 23 O -3.7811 -5.5032 0.0 0
M  V30 24 O -0.9109 0.7113 0.0 0
M  V30 25 O -2.4833 2.1339 0.0 0
M  V30 26 C -7.1879 -3.3943 0.0 0 CFG=1
M  V30 27 C -6.1397 -0.886 0.0 0
M  V30 28 C -6.6139 -4.8044 0.0 0
M  V30 29 C -1.5723 3.3568 0.0 0
M  V30 30 C -8.6854 -3.0199 0.0 0
M  V30 31 C -9.8584 -3.9933 0.0 0
M  V30 32 C -9.2719 -1.5973 0.0 0
M  V30 33 O -11.1687 -3.1821 0.0 0
M  V30 34 C -10.8069 -1.6971 0.0 0
M  V30 END ATOM
M  V30 BEGIN BOND
M  V30 1 2 1 2
M  V30 2 1 2 3
M  V30 3 1 2 4
M  V30 4 2 3 5
M  V30 5 1 4 6
M  V30 6 1 4 7
M  V30 7 1 4 8 CFG=3
M  V30 8 1 5 9
M  V30 9 1 6 10
M  V30 10 1 6 11 CFG=3
M  V30 11 1 7 12 CFG=3
M  V30 12 1 9 13
M  V30 13 1 9 14 CFG=3
M  V30 14 1 10 15
M  V30 15 1 10 16
M  V30 16 1 10 17 CFG=3
M  V30 17 1 11 18
M  V30 18 1 12 19 CFG=1
M  V30 19 2 13 20
M  V30 20 2 15 21
M  V30 21 1 15 22
M  V30 22 1 16 23 CFG=1
M  V30 23 2 18 24
M  V30 24 1 18 25
M  V30 25 1 21 26
M  V30 26 1 21 27
M  V30 27 1 22 28
M  V30 28 1 25 29
M  V30 29 1 26 30 CFG=1
M  V30 30 2 30 31
M  V30 31 1 30 32
M  V30 32 1 31 33
M  V30 33 2 32 34
M  V30 34 1 7 9
M  V30 35 1 12 16
M  V30 36 1 13 19
M  V30 37 1 22 23 CFG=3
M  V30 38 1 26 28
M  V30 39 1 33 34
M  V30 END BOND
M  V30 BEGIN COLLECTION
M  V30 MDLV30/STEABS ATOMS=(9 4 6 7 9 10 12 16 22 26)
M  V30 END COLLECTION
M  V30 END CTAB
M  END
>  <Compound ID>
65

>  <Name>
Nimbolide

>  <Uniprot>
Q9Y508

>  <Target>
RNF114

>  <Smiles>
COC(=O)C[C@H]1[C@]2(C)C3=C(C)[C@H](C4=COC=C4)C[C@H]3O[C@@H]2[C@@H]2OC(=O)[C@]3(C)C=CC(=O)[C@@]1(C)[C@@H]23

>  <Kd (nM)>


>  <Assay (Kd)>


>  <Ki (nM)>


>  <Assay (Ki)>


>  <IC50 (nM)>
550

>  <Assay (IC50)>
Gel-based ABPP analysis of nimbolide competition against Iarhodamine labeling of recombinant human RNF114 protein

>  <EC50 (nM)>


>  <Assay (EC50)>


>  <Article DOI>
10.1038/s41589-019-0304-8

>  <Molecular Weight>
466.53

>  <Exact Mass>
466.1991533

>  <XLogP3>
2.17

>  <Heavy Atom Count>
34

>  <Ring Count>
6

>  <Hydrogen Bond Acceptor Count>
7

>  <Hydrogen Bond Donor Count>
0

>  <Rotatable Bond Count>
3

>  <Topological Polar Surface Area>
92.04

>  <Molecular Formula>
C27H30O7

>  <InChI>
InChI=1S/C27H30O7/c1-13-15(14-7-9-32-12-14)10-16-20(13)27(4)17(11-19(29)31-5)26(3)18(28)6-8-25(2)22(26)21(23(27)33-16)34-24(25)30/h6-9,12,15-17,21-23H,10-11H2,1-5H3/t15-,16-,17-,21-,22+,23-,25-,26+,27-/m1/s1

>  <InChI Key>
JZIQWNPPBKFOPT-LSYMHUITSA-N

>  <BindingDB>


>  <PubChem>
12313376

>  <ChEMBL>
CHEMBL426690

$$$$
Compound 72
Actelion Java MolfileCreator 2.0

  0  0  0  0  0  0              0 V3000
M  V30 BEGIN CTAB
M  V30 COUNTS 20 22 0 0 0
M  V30 BEGIN ATOM
M  V30 1 O 0.0 0.0 0.0 0
M  V30 2 C 0.4911 -1.4032 0.0 0
M  V30 3 N 1.9528 -1.6604 0.0 0
M  V30 4 C -0.4911 -2.5375 0.0 0 CFG=1
M  V30 5 C 2.4439 -3.0637 0.0 0
M  V30 6 N -1.9762 -2.2568 0.0 0
M  V30 7 C 0.0 -3.9407 0.0 0
M  V30 8 O 3.9056 -3.3209 0.0 0
M  V30 9 C 1.4617 -4.198 0.0 0
M  V30 10 C -3.0754 -3.2859 0.0 0
M  V30 11 C -2.6427 -0.9004 0.0 0
M  V30 12 O -2.8883 -4.7593 0.0 0
M  V30 13 C -4.4085 -2.5609 0.0 0
M  V30 14 C -4.1395 -1.0875 0.0 0
M  V30 15 C -5.8351 -3.052 0.0 0
M  V30 16 C -5.2972 -0.1052 0.0 0
M  V30 17 O -6.1157 -4.5137 0.0 0
M  V30 18 C -6.9928 -2.0697 0.0 0
M  V30 19 C -6.7238 -0.5963 0.0 0
M  V30 20 C -7.5424 -5.0048 0.0 0
M  V30 END ATOM
M  V30 BEGIN BOND
M  V30 1 2 1 2
M  V30 2 1 2 3
M  V30 3 1 2 4
M  V30 4 1 3 5
M  V30 5 1 4 6 CFG=3
M  V30 6 1 4 7
M  V30 7 2 5 8
M  V30 8 1 5 9
M  V30 9 1 6 10
M  V30 10 1 6 11
M  V30 11 2 10 12
M  V30 12 1 10 13
M  V30 13 1 11 14
M  V30 14 1 13 15
M  V30 15 1 14 16
M  V30 16 1 15 17
M  V30 17 2 15 18
M  V30 18 2 16 19
M  V30 19 1 17 20
M  V30 20 1 7 9
M  V30 21 2 13 14
M  V30 22 1 18 19
M  V30 END BOND
M  V30 BEGIN COLLECTION
M  V30 MDLV30/STERAC1 ATOMS=(1 4)
M  V30 END COLLECTION
M  V30 END CTAB
M  END
>  <Compound ID>
66

>  <Name>


>  <Uniprot>
Q96SW2

>  <Target>
CRBN

>  <Smiles>
COC1=CC=CC2=C1C(=O)N(C1CCC(=O)NC1=O)C2

>  <Kd (nM)>


>  <Assay (Kd)>


>  <Ki (nM)>


>  <Assay (Ki)>


>  <IC50 (nM)>
>1000

>  <Assay (IC50)>
Inhibit proliferation of Namalwa cells

>  <EC50 (nM)>


>  <Assay (EC50)>


>  <Article DOI>
10.1016/j.bmcl.2012.10.071

>  <Molecular Weight>
274.276

>  <Exact Mass>
274.095356928

>  <XLogP3>
0.15

>  <Heavy Atom Count>
20

>  <Ring Count>
3

>  <Hydrogen Bond Acceptor Count>
4

>  <Hydrogen Bond Donor Count>
1

>  <Rotatable Bond Count>
2

>  <Topological Polar Surface Area>
75.71

>  <Molecular Formula>
C14H14N2O4

>  <InChI>
InChI=1S/C14H14N2O4/c1-20-10-4-2-3-8-7-16(14(19)12(8)10)9-5-6-11(17)15-13(9)18/h2-4,9H,5-7H2,1H3,(H,15,17,18)

>  <InChI Key>
WQBYRVHGTFSBTA-UHFFFAOYSA-N

>  <BindingDB>


>  <PubChem>


>  <ChEMBL>


$$$$
Compound 73
Actelion Java MolfileCreator 2.0

  0  0  0  0  0  0              0 V3000
M  V30 BEGIN CTAB
M  V30 COUNTS 24 25 0 0 0
M  V30 BEGIN ATOM
M  V30 1 Cl 0.0 0.0 0.0 0
M  V30 2 C 0.5135 1.424 0.0 0
M  V30 3 C -0.4552 2.5912 0.0 0
M  V30 4 C 1.9843 1.6808 0.0 0
M  V30 5 Cl -1.9493 2.3578 0.0 0
M  V30 6 C 0.0583 4.0153 0.0 0
M  V30 7 C 2.4979 3.1048 0.0 0
M  V30 8 C 1.529 4.2721 0.0 0
M  V30 9 C 3.9686 3.3616 0.0 0 CFG=1
M  V30 10 N 4.4822 4.7857 0.0 0
M  V30 11 C 4.9141 2.2177 0.0 0
M  V30 12 C 5.9529 5.0425 0.0 0
M  V30 13 O 4.3771 0.817 0.0 0
M  V30 14 N 6.3848 2.4745 0.0 0
M  V30 15 O 6.8984 3.8986 0.0 0
M  V30 16 C 6.4665 6.4665 0.0 0
M  V30 17 C 7.3303 1.3306 0.0 0
M  V30 18 Cl 7.9372 6.7233 0.0 0
M  V30 19 C 8.801 1.5874 0.0 0
M  V30 20 C 9.7465 0.4435 0.0 0
M  V30 21 C 9.3146 3.0114 0.0 0
M  V30 22 C 11.2172 0.7003 0.0 0
M  V30 23 C 10.7853 3.2682 0.0 0
M  V30 24 C 11.7308 2.1243 0.0 0
M  V30 END ATOM
M  V30 BEGIN BOND
M  V30 1 1 1 2
M  V30 2 2 2 3
M  V30 3 1 2 4
M  V30 4 1 3 5
M  V30 5 1 3 6
M  V30 6 2 4 7
M  V30 7 2 6 8
M  V30 8 1 7 9
M  V30 9 1 9 10 CFG=1
M  V30 10 1 9 11
M  V30 11 1 10 12
M  V30 12 2 11 13
M  V30 13 1 11 14
M  V30 14 2 12 15
M  V30 15 1 12 16
M  V30 16 1 14 17
M  V30 17 1 16 18
M  V30 18 1 17 19
M  V30 19 2 19 20
M  V30 20 1 19 21
M  V30 21 1 20 22
M  V30 22 2 21 23
M  V30 23 2 22 24
M  V30 24 1 7 8
M  V30 25 1 23 24
M  V30 END BOND
M  V30 BEGIN COLLECTION
M  V30 MDLV30/STERAC1 ATOMS=(1 9)
M  V30 END COLLECTION
M  V30 END CTAB
M  END
>  <Compound ID>
67

>  <Name>


>  <Uniprot>
Q8TEB1

>  <Target>
DCAF11

>  <Smiles>
O=C(CCl)NC(C(=O)NCC1=CC=CC=C1)C1=CC=C(Cl)C(Cl)=C1

>  <Kd (nM)>


>  <Assay (Kd)>


>  <Ki (nM)>


>  <Assay (Ki)>


>  <IC50 (nM)>


>  <Assay (IC50)>


>  <EC50 (nM)>


>  <Assay (EC50)>


>  <Article DOI>
10.1021/jacs.1c00990

>  <Molecular Weight>
385.678

>  <Exact Mass>
384.01991076

>  <XLogP3>
3.95

>  <Heavy Atom Count>
24

>  <Ring Count>
2

>  <Hydrogen Bond Acceptor Count>
2

>  <Hydrogen Bond Donor Count>
2

>  <Rotatable Bond Count>
6

>  <Topological Polar Surface Area>
58.2

>  <Molecular Formula>
C17H15Cl3N2O2

>  <InChI>
InChI=1S/C17H15Cl3N2O2/c18-9-15(23)22-16(12-6-7-13(19)14(20)8-12)17(24)21-10-11-4-2-1-3-5-11/h1-8,16H,9-10H2,(H,21,24)(H,22,23)

>  <InChI Key>
IARWWDNCNPMRCK-UHFFFAOYSA-N

>  <BindingDB>


>  <PubChem>


>  <ChEMBL>


$$$$
Compound 74
Actelion Java MolfileCreator 2.0

  0  0  0  0  0  0              0 V3000
M  V30 BEGIN CTAB
M  V30 COUNTS 23 24 0 0 0
M  V30 BEGIN ATOM
M  V30 1 Cl 0.0 0.0 0.0 0
M  V30 2 C 1.4595 0.3359 0.0 0
M  V30 3 C 1.8996 1.7838 0.0 0
M  V30 4 C 2.4672 -0.7645 0.0 0
M  V30 5 C 3.3591 2.1197 0.0 0
M  V30 6 C 3.9267 -0.4285 0.0 0
M  V30 7 C 4.3669 1.0193 0.0 0
M  V30 8 C 5.8264 1.3552 0.0 0 CFG=1
M  V30 9 N 6.2666 2.8031 0.0 0
M  V30 10 C 6.8342 0.2548 0.0 0
M  V30 11 C 7.7261 3.139 0.0 0
M  V30 12 O 6.3708 -1.1699 0.0 0
M  V30 13 N 8.2937 0.5907 0.0 0
M  V30 14 O 8.7338 2.0386 0.0 0
M  V30 15 C 8.1662 4.587 0.0 0
M  V30 16 C 9.3014 -0.5096 0.0 0
M  V30 17 Cl 9.6258 4.9229 0.0 0
M  V30 18 C 10.7609 -0.1737 0.0 0
M  V30 19 C 11.7687 -1.2741 0.0 0
M  V30 20 C 11.2011 1.2741 0.0 0
M  V30 21 C 13.2282 -0.9382 0.0 0
M  V30 22 C 12.6606 1.61 0.0 0
M  V30 23 C 13.6684 0.5096 0.0 0
M  V30 END ATOM
M  V30 BEGIN BOND
M  V30 1 1 1 2
M  V30 2 2 2 3
M  V30 3 1 2 4
M  V30 4 1 3 5
M  V30 5 2 4 6
M  V30 6 2 5 7
M  V30 7 1 7 8
M  V30 8 1 8 9 CFG=1
M  V30 9 1 8 10
M  V30 10 1 9 11
M  V30 11 2 10 12
M  V30 12 1 10 13
M  V30 13 2 11 14
M  V30 14 1 11 15
M  V30 15 1 13 16
M  V30 16 1 15 17
M  V30 17 1 16 18
M  V30 18 2 18 19
M  V30 19 1 18 20
M  V30 20 1 19 21
M  V30 21 2 20 22
M  V30 22 2 21 23
M  V30 23 1 6 7
M  V30 24 1 22 23
M  V30 END BOND
M  V30 BEGIN COLLECTION
M  V30 MDLV30/STERAC1 ATOMS=(1 8)
M  V30 END COLLECTION
M  V30 END CTAB
M  END
>  <Compound ID>
68

>  <Name>


>  <Uniprot>
Q8TEB1

>  <Target>
DCAF11

>  <Smiles>
O=C(CCl)NC(C(=O)NCC1=CC=CC=C1)C1=CC=C(Cl)C=C1

>  <Kd (nM)>


>  <Assay (Kd)>


>  <Ki (nM)>


>  <Assay (Ki)>


>  <IC50 (nM)>


>  <Assay (IC50)>


>  <EC50 (nM)>


>  <Assay (EC50)>


>  <Article DOI>
10.1021/jacs.1c00990

>  <Molecular Weight>
351.233

>  <Exact Mass>
350.058883112

>  <XLogP3>
3.33

>  <Heavy Atom Count>
23

>  <Ring Count>
2

>  <Hydrogen Bond Acceptor Count>
2

>  <Hydrogen Bond Donor Count>
2

>  <Rotatable Bond Count>
6

>  <Topological Polar Surface Area>
58.2

>  <Molecular Formula>
C17H16Cl2N2O2

>  <InChI>
InChI=1S/C17H16Cl2N2O2/c18-10-15(22)21-16(13-6-8-14(19)9-7-13)17(23)20-11-12-4-2-1-3-5-12/h1-9,16H,10-11H2,(H,20,23)(H,21,22)

>  <InChI Key>
OOWBZXBMBGHPDI-UHFFFAOYSA-N

>  <BindingDB>


>  <PubChem>


>  <ChEMBL>


$$$$
Compound 75
Actelion Java MolfileCreator 2.0

  0  0  0  0  0  0              0 V3000
M  V30 BEGIN CTAB
M  V30 COUNTS 31 32 0 0 0
M  V30 BEGIN ATOM
M  V30 1 O 0.0 0.0 0.0 0
M  V30 2 C 0.2591 -1.4606 0.0 0
M  V30 3 N 1.6609 -1.9554 0.0 0
M  V30 4 C -0.8952 -2.4148 0.0 0 CFG=1
M  V30 5 C 2.7917 -0.9777 0.0 0 CFG=1
M  V30 6 N -2.3677 -2.0496 0.0 0
M  V30 7 C -0.801 -3.899 0.0 0
M  V30 8 C 4.1935 -1.4724 0.0 0
M  V30 9 C 2.509 0.5065 0.0 0
M  V30 10 C -2.9449 -0.6478 0.0 0
M  V30 11 C -3.1687 -3.31 0.0 0
M  V30 12 C -2.2027 -4.4527 0.0 0
M  V30 13 C 4.4527 -2.9331 0.0 0
M  V30 14 C 5.3244 -0.4947 0.0 0
M  V30 15 C 1.0837 1.0248 0.0 0
M  V30 16 O -2.0378 0.5536 0.0 0
M  V30 17 C -4.4409 -0.4358 0.0 0 CFG=1
M  V30 18 C 5.8544 -3.4278 0.0 0
M  V30 19 C 6.7261 -0.9894 0.0 0
M  V30 20 N -5.3715 -1.6138 0.0 0
M  V30 21 C -5.0181 0.9659 0.0 0
M  V30 22 C 6.9853 -2.4501 0.0 0
M  V30 23 C -6.8675 -1.4017 0.0 0
M  V30 24 C -6.4199 0.4122 0.0 0
M  V30 25 C -3.6399 1.5431 0.0 0
M  V30 26 C -5.5953 2.3677 0.0 0
M  V30 27 O -7.4447 0.0 0.0 0
M  V30 28 C -7.7981 -2.5797 0.0 0 CFG=1
M  V30 29 N -7.2444 -3.9579 0.0 0
M  V30 30 C -9.2941 -2.3677 0.0 0
M  V30 31 C -8.175 -5.1359 0.0 0
M  V30 END ATOM
M  V30 BEGIN BOND
M  V30 1 2 1 2
M  V30 2 1 2 3
M  V30 3 1 4 2 CFG=3
M  V30 4 1 5 3 CFG=3
M  V30 5 1 4 6
M  V30 6 1 4 7
M  V30 7 1 5 8
M  V30 8 1 5 9
M  V30 9 1 6 10
M  V30 10 1 6 11
M  V30 11 1 7 12
M  V30 12 2 8 13
M  V30 13 1 8 14
M  V30 14 1 9 15
M  V30 15 2 10 16
M  V30 16 1 10 17
M  V30 17 1 13 18
M  V30 18 2 14 19
M  V30 19 1 17 20 CFG=1
M  V30 20 1 17 21
M  V30 21 2 18 22
M  V30 22 1 20 23
M  V30 23 1 21 24
M  V30 24 1 21 25
M  V30 25 1 21 26
M  V30 26 2 23 27
M  V30 27 1 23 28
M  V30 28 1 28 29 CFG=1
M  V30 29 1 28 30
M  V30 30 1 29 31
M  V30 31 1 11 12
M  V30 32 1 19 22
M  V30 END BOND
M  V30 BEGIN COLLECTION
M  V30 MDLV30/STEABS ATOMS=(4 4 5 17 28)
M  V30 END COLLECTION
M  V30 END CTAB
M  END
>  <Compound ID>
69

>  <Name>


>  <Uniprot>


>  <Target>
IAP

>  <Smiles>
CC[C@@H](NC(=O)[C@@H]1CCCN1C(=O)[C@@H](NC(=O)[C@H](C)NC)C(C)(C)C)C1=CC=CC=C1

>  <Kd (nM)>


>  <Assay (Kd)>


>  <Ki (nM)>


>  <Assay (Ki)>


>  <IC50 (nM)>


>  <Assay (IC50)>


>  <EC50 (nM)>


>  <Assay (EC50)>


>  <Article DOI>


>  <Molecular Weight>
430.593

>  <Exact Mass>
430.294391076

>  <XLogP3>
3.12

>  <Heavy Atom Count>
31

>  <Ring Count>
2

>  <Hydrogen Bond Acceptor Count>
4

>  <Hydrogen Bond Donor Count>
3

>  <Rotatable Bond Count>
8

>  <Topological Polar Surface Area>
90.54

>  <Molecular Formula>
C24H38N4O3

>  <InChI>
InChI=1S/C24H38N4O3/c1-7-18(17-12-9-8-10-13-17)26-22(30)19-14-11-15-28(19)23(31)20(24(3,4)5)27-21(29)16(2)25-6/h8-10,12-13,16,18-20,25H,7,11,14-15H2,1-6H3,(H,26,30)(H,27,29)/t16-,18+,19-,20+/m0/s1

>  <InChI Key>
YIULOCFICSPXDR-OJAHFUOMSA-N

>  <BindingDB>


>  <PubChem>
146477107

>  <ChEMBL>


$$$$
Compound 76
Actelion Java MolfileCreator 2.0

  0  0  0  0  0  0              0 V3000
M  V30 BEGIN CTAB
M  V30 COUNTS 32 34 0 0 0
M  V30 BEGIN ATOM
M  V30 1 O 0.0 0.0 0.0 0
M  V30 2 C 0.9486 -1.1477 0.0 0
M  V30 3 N 0.4099 -2.5415 0.0 0
M  V30 4 C 2.4244 -0.8901 0.0 0 CFG=1
M  V30 5 C -1.0892 -2.7757 0.0 0 CFG=1
M  V30 6 N 3.4902 -1.9324 0.0 0
M  V30 7 C 3.0802 0.4684 0.0 0
M  V30 8 C -1.6279 -4.1695 0.0 0
M  V30 9 C -2.0613 -1.6045 0.0 0
M  V30 10 C 3.2559 -3.4082 0.0 0
M  V30 11 C 4.8136 -1.218 0.0 0
M  V30 12 C 4.556 0.2576 0.0 0
M  V30 13 C -3.1271 -4.4037 0.0 0
M  V30 14 C -0.6793 -5.3173 0.0 0
M  V30 15 C -3.5604 -1.8388 0.0 0
M  V30 16 O 1.8505 -3.9469 0.0 0
M  V30 17 C 4.4271 -4.3334 0.0 0 CFG=1
M  V30 18 C -3.6658 -5.7974 0.0 0
M  V30 19 C -4.0992 -3.2325 0.0 0
M  V30 20 C -1.218 -6.711 0.0 0
M  V30 21 N 5.8092 -3.7713 0.0 0
M  V30 22 C 4.1929 -5.8092 0.0 0
M  V30 23 C -2.7172 -6.9452 0.0 0
M  V30 24 C 6.9804 -4.6965 0.0 0
M  V30 25 C 5.6686 -6.02 0.0 0
M  V30 26 C 2.6937 -5.5749 0.0 0
M  V30 27 C 3.9586 -7.2849 0.0 0
M  V30 28 O 6.7461 -6.1722 0.0 0
M  V30 29 C 8.3624 -4.1343 0.0 0 CFG=1
M  V30 30 N 8.5732 -2.6352 0.0 0
M  V30 31 C 9.5336 -5.0596 0.0 0
M  V30 32 C 9.9552 -2.073 0.0 0
M  V30 END ATOM
M  V30 BEGIN BOND
M  V30 1 2 1 2
M  V30 2 1 2 3
M  V30 3 1 4 2 CFG=3
M  V30 4 1 5 3 CFG=1
M  V30 5 1 4 6
M  V30 6 1 4 7
M  V30 7 1 5 8
M  V30 8 1 5 9
M  V30 9 1 6 10
M  V30 10 1 6 11
M  V30 11 1 7 12
M  V30 12 2 8 13
M  V30 13 1 8 14
M  V30 14 1 9 15
M  V30 15 2 10 16
M  V30 16 1 10 17
M  V30 17 1 13 18
M  V30 18 1 13 19
M  V30 19 2 14 20
M  V30 20 1 17 21 CFG=1
M  V30 21 1 17 22
M  V30 22 2 18 23
M  V30 23 1 21 24
M  V30 24 1 22 25
M  V30 25 1 22 26
M  V30 26 1 22 27
M  V30 27 2 24 28
M  V30 28 1 24 29
M  V30 29 1 29 30 CFG=1
M  V30 30 1 29 31
M  V30 31 1 30 32
M  V30 32 1 11 12
M  V30 33 1 15 19
M  V30 34 1 20 23
M  V30 END BOND
M  V30 BEGIN COLLECTION
M  V30 MDLV30/STEABS ATOMS=(4 4 5 17 29)
M  V30 END COLLECTION
M  V30 END CTAB
M  END
>  <Compound ID>
70

>  <Name>


>  <Uniprot>
P98170

>  <Target>
XIAP

>  <Smiles>
CN[C@@H](C)C(=O)N[C@H](C(=O)N1CCC[C@H]1C(=O)N[C@@H]1CCCC2=CC=CC=C21)C(C)(C)C

>  <Kd (nM)>
12

>  <Assay (Kd)>
Kd of XIAP BIR3 was tested by fluorescence polarization anisotropy competition assay

>  <Ki (nM)>


>  <Assay (Ki)>


>  <IC50 (nM)>


>  <Assay (IC50)>


>  <EC50 (nM)>


>  <Assay (EC50)>


>  <Article DOI>
10.1021/jm040037k

>  <Molecular Weight>
442.604

>  <Exact Mass>
442.294391076

>  <XLogP3>
2.98

>  <Heavy Atom Count>
32

>  <Ring Count>
3

>  <Hydrogen Bond Acceptor Count>
4

>  <Hydrogen Bond Donor Count>
3

>  <Rotatable Bond Count>
6

>  <Topological Polar Surface Area>
90.54

>  <Molecular Formula>
C25H38N4O3

>  <InChI>
InChI=1S/C25H38N4O3/c1-16(26-5)22(30)28-21(25(2,3)4)24(32)29-15-9-14-20(29)23(31)27-19-13-8-11-17-10-6-7-12-18(17)19/h6-7,10,12,16,19-21,26H,8-9,11,13-15H2,1-5H3,(H,27,31)(H,28,30)/t16-,19+,20-,21+/m0/s1

>  <InChI Key>
JUJIMRZGUBTJRV-NASSWSRMSA-N

>  <BindingDB>
13166

>  <PubChem>
4369343

>  <ChEMBL>
CHEMBL1230662

$$$$
Compound 77
Actelion Java MolfileCreator 2.0

  0  0  0  0  0  0              0 V3000
M  V30 BEGIN CTAB
M  V30 COUNTS 35 38 0 0 0
M  V30 BEGIN ATOM
M  V30 1 O 0.0 0.0 0.0 0
M  V30 2 C 1.0256 -1.0728 0.0 0
M  V30 3 N 0.4008 -2.4286 0.0 0
M  V30 4 C 2.4168 -0.5187 0.0 0 CFG=1
M  V30 5 C -1.1082 -2.4993 0.0 0
M  V30 6 C 0.9313 -3.8198 0.0 0 CFG=1
M  V30 7 N 2.4404 0.9903 0.0 0
M  V30 8 C 3.7726 -1.12 0.0 0
M  V30 9 C -2.0631 -1.3204 0.0 0
M  V30 10 C -1.509 -3.9377 0.0 0
M  V30 11 C 2.2871 -4.421 0.0 0
M  V30 12 C -0.2475 -4.7511 0.0 0
M  V30 13 C 3.749 1.7212 0.0 0
M  V30 14 N 4.3031 -2.5111 0.0 0
M  V30 15 O -1.5444 0.0943 0.0 0
M  V30 16 N -3.5486 -1.5444 0.0 0
M  V30 17 C 3.6783 -3.8669 0.0 0
M  V30 18 O 5.0105 0.9549 0.0 0
M  V30 19 C 3.7726 3.2303 0.0 0 CFG=1
M  V30 20 C 5.7886 -2.5347 0.0 0
M  V30 21 C -4.5036 -0.3654 0.0 0 CFG=1
M  V30 22 N 2.4875 4.0202 0.0 0
M  V30 23 C 5.0812 3.9612 0.0 0
M  V30 24 O 6.5549 -1.2496 0.0 0
M  V30 25 N 6.496 -3.8433 0.0 0
M  V30 26 C -5.989 -0.5894 0.0 0
M  V30 27 C -3.9848 1.0492 0.0 0
M  V30 28 C 2.5111 5.5292 0.0 0
M  V30 29 C -6.944 0.5894 0.0 0
M  V30 30 C -6.5314 -1.9806 0.0 0
M  V30 31 C -4.9398 2.2282 0.0 0
M  V30 32 C -8.4295 0.3654 0.0 0
M  V30 33 C -6.4253 2.0042 0.0 0
M  V30 34 C -8.0168 -2.2046 0.0 0
M  V30 35 C -8.9718 -1.0256 0.0 0
M  V30 END ATOM
M  V30 BEGIN BOND
M  V30 1 2 1 2
M  V30 2 1 2 3
M  V30 3 1 2 4
M  V30 4 1 3 5
M  V30 5 1 6 3 CFG=1
M  V30 6 1 4 7 CFG=1
M  V30 7 1 4 8
M  V30 8 1 5 9
M  V30 9 1 5 10
M  V30 10 1 6 11
M  V30 11 1 6 12
M  V30 12 1 7 13
M  V30 13 1 8 14
M  V30 14 2 9 15
M  V30 15 1 9 16
M  V30 16 1 11 17
M  V30 17 2 13 18
M  V30 18 1 13 19
M  V30 19 1 14 20
M  V30 20 1 21 16 CFG=1
M  V30 21 1 19 22 CFG=1
M  V30 22 1 19 23
M  V30 23 2 20 24
M  V30 24 1 20 25
M  V30 25 1 21 26
M  V30 26 1 21 27
M  V30 27 1 22 28
M  V30 28 2 26 29
M  V30 29 1 26 30
M  V30 30 1 27 31
M  V30 31 1 29 32
M  V30 32 1 29 33
M  V30 33 2 30 34
M  V30 34 2 32 35
M  V30 35 1 10 12
M  V30 36 1 14 17
M  V30 37 1 31 33
M  V30 38 1 34 35
M  V30 END BOND
M  V30 BEGIN COLLECTION
M  V30 MDLV30/STEABS ATOMS=(4 4 6 19 21)
M  V30 END COLLECTION
M  V30 END CTAB
M  END
>  <Compound ID>
71

>  <Name>


>  <Uniprot>


>  <Target>
IAP

>  <Smiles>
CN[C@@H](C)C(=O)N[C@H]1CN(C(N)=O)CC[C@H]2CCC(C(=O)N[C@@H]3CCCC4=CC=CC=C43)N2C1=O

>  <Kd (nM)>


>  <Assay (Kd)>


>  <Ki (nM)>


>  <Assay (Ki)>


>  <IC50 (nM)>


>  <Assay (IC50)>


>  <EC50 (nM)>


>  <Assay (EC50)>


>  <Article DOI>


>  <Molecular Weight>
484.601

>  <Exact Mass>
484.279803632

>  <XLogP3>
0.37

>  <Heavy Atom Count>
35

>  <Ring Count>
4

>  <Hydrogen Bond Acceptor Count>
5

>  <Hydrogen Bond Donor Count>
4

>  <Rotatable Bond Count>
5

>  <Topological Polar Surface Area>
136.87

>  <Molecular Formula>
C25H36N6O4

>  <InChI>
InChI=1S/C25H36N6O4/c1-15(27-2)22(32)29-20-14-30(25(26)35)13-12-17-10-11-21(31(17)24(20)34)23(33)28-19-9-5-7-16-6-3-4-8-18(16)19/h3-4,6,8,15,17,19-21,27H,5,7,9-14H2,1-2H3,(H2,26,35)(H,28,33)(H,29,32)/t15-,17+,19+,20-,21?/m0/s1

>  <InChI Key>
QHYITBCWKKKNJG-FINUNZQWSA-N

>  <BindingDB>


>  <PubChem>
89984156

>  <ChEMBL>


$$$$
Compound 78
Actelion Java MolfileCreator 2.0

  0  0  0  0  0  0              0 V3000
M  V30 BEGIN CTAB
M  V30 COUNTS 40 44 0 0 0
M  V30 BEGIN ATOM
M  V30 1 F 0.0 0.0 0.0 0
M  V30 2 C -1.3241 -0.7093 0.0 0
M  V30 3 C -1.3714 -2.1989 0.0 0
M  V30 4 C -2.6246 0.0827 0.0 0
M  V30 5 C -2.6955 -2.9083 0.0 0
M  V30 6 C -3.9487 -0.6265 0.0 0
M  V30 7 C -3.996 -2.1162 0.0 0
M  V30 8 C -5.3201 -2.8255 0.0 0
M  V30 9 C -5.3674 -4.3152 0.0 0
M  V30 10 C -6.6915 -5.0245 0.0 0
M  V30 11 C -4.0906 -5.0837 0.0 0
M  V30 12 O -7.992 -4.2324 0.0 0
M  V30 13 N -6.7388 -6.5142 0.0 0
M  V30 14 C -4.1378 -6.5733 0.0 0
M  V30 15 C -5.462 -7.2826 0.0 0
M  V30 16 C -8.0629 -7.2235 0.0 0
M  V30 17 N -3.062 -7.59 0.0 0
M  V30 18 C -5.1901 -8.7486 0.0 0
M  V30 19 C -1.596 -7.2945 0.0 0
M  V30 20 C -3.7122 -8.9378 0.0 0
M  V30 21 C -5.2373 -10.2383 0.0 0
M  V30 22 C -6.7033 -8.855 0.0 0
M  V30 23 O -1.1113 -5.8639 0.0 0
M  V30 24 C -0.6265 -8.4176 0.0 0
M  V30 25 N 0.8394 -8.1221 0.0 0
M  V30 26 C 1.3241 -6.6915 0.0 0 CFG=2
M  V30 27 C 1.8088 -9.2452 0.0 0
M  V30 28 C 2.7901 -6.396 0.0 0
M  V30 29 C 0.331 -5.5447 0.0 0
M  V30 30 C 3.2748 -8.9496 0.0 0 CFG=2
M  V30 31 N 3.7595 -7.5191 0.0 0
M  V30 32 N 0.8157 -4.1142 0.0 0
M  V30 33 C 4.2443 -10.0728 0.0 0
M  V30 34 C 2.2817 -3.8186 0.0 0 CFG=1
M  V30 35 C -0.1773 -2.9674 0.0 0 CFG=1
M  V30 36 C 2.7664 -2.3881 0.0 0
M  V30 37 C 3.2512 -4.9418 0.0 0
M  V30 38 C 0.3073 -1.5369 0.0 0
M  V30 39 C -1.6669 -3.2393 0.0 0
M  V30 40 O 1.7733 -1.2413 0.0 0
M  V30 END ATOM
M  V30 BEGIN BOND
M  V30 1 1 1 2
M  V30 2 2 2 3
M  V30 3 1 2 4
M  V30 4 1 3 5
M  V30 5 2 4 6
M  V30 6 2 5 7
M  V30 7 1 7 8
M  V30 8 1 8 9
M  V30 9 1 9 10
M  V30 10 2 9 11
M  V30 11 2 10 12
M  V30 12 1 10 13
M  V30 13 1 11 14
M  V30 14 1 13 15
M  V30 15 1 13 16
M  V30 16 1 14 17
M  V30 17 1 15 18
M  V30 18 1 17 19
M  V30 19 1 17 20
M  V30 20 1 18 21
M  V30 21 1 18 22
M  V30 22 2 19 23
M  V30 23 1 19 24
M  V30 24 1 24 25
M  V30 25 1 25 26
M  V30 26 1 25 27
M  V30 27 1 26 28
M  V30 28 1 26 29 CFG=1
M  V30 29 1 27 30
M  V30 30 1 28 31
M  V30 31 1 29 32
M  V30 32 1 30 33 CFG=3
M  V30 33 1 32 34
M  V30 34 1 32 35
M  V30 35 1 34 36
M  V30 36 1 34 37 CFG=1
M  V30 37 1 35 38
M  V30 38 1 35 39 CFG=3
M  V30 39 1 36 40
M  V30 40 1 6 7
M  V30 41 2 14 15
M  V30 42 1 18 20
M  V30 43 1 30 31
M  V30 44 1 38 40
M  V30 END BOND
M  V30 BEGIN COLLECTION
M  V30 MDLV30/STEABS ATOMS=(4 26 30 34 35)
M  V30 END COLLECTION
M  V30 END CTAB
M  END
>  <Compound ID>
72

>  <Name>


>  <Uniprot>
Q13490

>  <Target>
cIAP1

>  <Smiles>
C[C@@H]1CN(CC(=O)N2CC(C)(C)C3=C2C=C(CC2=CC=C(F)C=C2)C(=O)N3C)[C@@H](CN2[C@H](C)COC[C@H]2C)CN1

>  <Kd (nM)>


>  <Assay (Kd)>


>  <Ki (nM)>


>  <Assay (Ki)>


>  <IC50 (nM)>
180

>  <Assay (IC50)>
Intracellular degradation of cIAP1 in MDA-MB-231 cells

>  <EC50 (nM)>


>  <Assay (EC50)>


>  <Article DOI>
10.1021/acs.jmedchem.8b00900

>  <Molecular Weight>
553.723

>  <Exact Mass>
553.342818488

>  <XLogP3>
2.86

>  <Heavy Atom Count>
40

>  <Ring Count>
5

>  <Hydrogen Bond Acceptor Count>
7

>  <Hydrogen Bond Donor Count>
1

>  <Rotatable Bond Count>
6

>  <Topological Polar Surface Area>
70.05

>  <Molecular Formula>
C31H44FN5O3

>  <InChI>
InChI=1S/C31H44FN5O3/c1-20-14-35(26(13-33-20)15-36-21(2)17-40-18-22(36)3)16-28(38)37-19-31(4,5)29-27(37)12-24(30(39)34(29)6)11-23-7-9-25(32)10-8-23/h7-10,12,20-22,26,33H,11,13-19H2,1-6H3/t20-,21-,22-,26-/m1/s1

>  <InChI Key>
XLPLPVLYDHZSGR-PIXQIBFHSA-N

>  <BindingDB>
50450047

>  <PubChem>
126502417

>  <ChEMBL>
CHEMBL4169478

$$$$
Compound 79
Actelion Java MolfileCreator 2.0

  0  0  0  0  0  0              0 V3000
M  V30 BEGIN CTAB
M  V30 COUNTS 40 44 0 0 0
M  V30 BEGIN ATOM
M  V30 1 F 0.0 0.0 0.0 0
M  V30 2 C -1.3241 -0.7093 0.0 0
M  V30 3 C -1.3714 -2.1989 0.0 0
M  V30 4 C -2.6246 0.0827 0.0 0
M  V30 5 C -2.6955 -2.9083 0.0 0
M  V30 6 C -3.9487 -0.6265 0.0 0
M  V30 7 C -3.996 -2.1162 0.0 0
M  V30 8 C -5.3201 -2.8255 0.0 0
M  V30 9 C -5.3674 -4.3152 0.0 0
M  V30 10 C -6.6915 -5.0245 0.0 0
M  V30 11 C -4.0906 -5.0837 0.0 0
M  V30 12 O -7.992 -4.2324 0.0 0
M  V30 13 N -6.7388 -6.5142 0.0 0
M  V30 14 C -4.1378 -6.5733 0.0 0
M  V30 15 C -5.462 -7.2826 0.0 0
M  V30 16 C -8.0629 -7.2235 0.0 0
M  V30 17 N -3.062 -7.59 0.0 0
M  V30 18 C -5.1901 -8.7486 0.0 0
M  V30 19 C -1.596 -7.2945 0.0 0
M  V30 20 C -3.7122 -8.9378 0.0 0
M  V30 21 C -5.2373 -10.2383 0.0 0
M  V30 22 C -6.7033 -8.855 0.0 0
M  V30 23 O -1.1113 -5.8639 0.0 0
M  V30 24 C -0.6265 -8.4176 0.0 0
M  V30 25 N 0.8394 -8.1221 0.0 0
M  V30 26 C 1.3241 -6.6915 0.0 0 CFG=2
M  V30 27 C 1.8088 -9.2452 0.0 0
M  V30 28 C 2.7901 -6.396 0.0 0
M  V30 29 C 0.331 -5.5447 0.0 0
M  V30 30 C 3.2748 -8.9496 0.0 0 CFG=2
M  V30 31 N 3.7595 -7.5191 0.0 0
M  V30 32 N 0.8157 -4.1142 0.0 0
M  V30 33 C 4.2443 -10.0728 0.0 0
M  V30 34 C 2.2817 -3.8186 0.0 0 CFG=1
M  V30 35 C -0.1773 -2.9674 0.0 0 CFG=1
M  V30 36 C 2.7664 -2.3881 0.0 0
M  V30 37 C 3.2512 -4.9418 0.0 0
M  V30 38 C 0.3073 -1.5369 0.0 0
M  V30 39 C -1.6669 -3.2393 0.0 0
M  V30 40 O 1.7733 -1.2413 0.0 0
M  V30 END ATOM
M  V30 BEGIN BOND
M  V30 1 1 1 2
M  V30 2 2 2 3
M  V30 3 1 2 4
M  V30 4 1 3 5
M  V30 5 2 4 6
M  V30 6 2 5 7
M  V30 7 1 7 8
M  V30 8 1 8 9
M  V30 9 1 9 10
M  V30 10 2 9 11
M  V30 11 2 10 12
M  V30 12 1 10 13
M  V30 13 1 11 14
M  V30 14 1 13 15
M  V30 15 1 13 16
M  V30 16 1 14 17
M  V30 17 1 15 18
M  V30 18 1 17 19
M  V30 19 1 17 20
M  V30 20 1 18 21
M  V30 21 1 18 22
M  V30 22 2 19 23
M  V30 23 1 19 24
M  V30 24 1 24 25
M  V30 25 1 25 26
M  V30 26 1 25 27
M  V30 27 1 26 28
M  V30 28 1 26 29 CFG=1
M  V30 29 1 27 30
M  V30 30 1 28 31
M  V30 31 1 29 32
M  V30 32 1 30 33 CFG=3
M  V30 33 1 32 34
M  V30 34 1 32 35
M  V30 35 1 34 36
M  V30 36 1 34 37 CFG=1
M  V30 37 1 35 38
M  V30 38 1 35 39 CFG=3
M  V30 39 1 36 40
M  V30 40 1 6 7
M  V30 41 2 14 15
M  V30 42 1 18 20
M  V30 43 1 30 31
M  V30 44 1 38 40
M  V30 END BOND
M  V30 BEGIN COLLECTION
M  V30 MDLV30/STEABS ATOMS=(4 26 30 34 35)
M  V30 END COLLECTION
M  V30 END CTAB
M  END
>  <Compound ID>
72

>  <Name>


>  <Uniprot>
P98170

>  <Target>
XIAP

>  <Smiles>
C[C@@H]1CN(CC(=O)N2CC(C)(C)C3=C2C=C(CC2=CC=C(F)C=C2)C(=O)N3C)[C@@H](CN2[C@H](C)COC[C@H]2C)CN1

>  <Kd (nM)>


>  <Assay (Kd)>


>  <Ki (nM)>


>  <Assay (Ki)>


>  <IC50 (nM)>
830

>  <Assay (IC50)>
Cellular XIAP-caspase 9 immunoprecipitation assay

>  <EC50 (nM)>


>  <Assay (EC50)>


>  <Article DOI>
10.1021/acs.jmedchem.8b00900

>  <Molecular Weight>
553.723

>  <Exact Mass>
553.342818488

>  <XLogP3>
2.86

>  <Heavy Atom Count>
40

>  <Ring Count>
5

>  <Hydrogen Bond Acceptor Count>
7

>  <Hydrogen Bond Donor Count>
1

>  <Rotatable Bond Count>
6

>  <Topological Polar Surface Area>
70.05

>  <Molecular Formula>
C31H44FN5O3

>  <InChI>
InChI=1S/C31H44FN5O3/c1-20-14-35(26(13-33-20)15-36-21(2)17-40-18-22(36)3)16-28(38)37-19-31(4,5)29-27(37)12-24(30(39)34(29)6)11-23-7-9-25(32)10-8-23/h7-10,12,20-22,26,33H,11,13-19H2,1-6H3/t20-,21-,22-,26-/m1/s1

>  <InChI Key>
XLPLPVLYDHZSGR-PIXQIBFHSA-N

>  <BindingDB>
50450047

>  <PubChem>
126502417

>  <ChEMBL>
CHEMBL4169478

$$$$
Compound 80
Actelion Java MolfileCreator 2.0

  0  0  0  0  0  0              0 V3000
M  V30 BEGIN CTAB
M  V30 COUNTS 37 41 0 0 0
M  V30 BEGIN ATOM
M  V30 1 F 0.0 0.0 0.0 0
M  V30 2 C -1.4833 0.259 0.0 0
M  V30 3 C -2.4487 -0.8829 0.0 0
M  V30 4 C -2.0249 1.6717 0.0 0
M  V30 5 C -3.9321 -0.6239 0.0 0
M  V30 6 C -3.5083 1.9307 0.0 0
M  V30 7 C -4.4736 0.7887 0.0 0
M  V30 8 C -5.957 1.0477 0.0 0
M  V30 9 C -6.9224 -0.0941 0.0 0
M  V30 10 C -6.4044 -1.4833 0.0 0
M  V30 11 C -8.4058 0.1648 0.0 0
M  V30 12 N -7.3698 -2.6253 0.0 0
M  V30 13 C -9.3712 -0.9771 0.0 0
M  V30 14 C -8.8532 -2.3663 0.0 0
M  V30 15 N -10.8781 -1.036 0.0 0
M  V30 16 C -10.0304 -3.2846 0.0 0
M  V30 17 C -11.8199 0.1412 0.0 0
M  V30 18 C -11.2901 -2.4723 0.0 0
M  V30 19 C -10.9958 -4.4266 0.0 0
M  V30 20 C -8.9944 -4.3441 0.0 0
M  V30 21 O -11.2901 1.5422 0.0 0
M  V30 22 C -13.3151 -0.0706 0.0 0
M  V30 23 N -14.2569 1.1066 0.0 0
M  V30 24 C -15.7521 0.8947 0.0 0 CFG=2
M  V30 25 C -13.7271 2.5076 0.0 0
M  V30 26 C -16.6939 2.072 0.0 0
M  V30 27 C -16.3054 -0.4826 0.0 0
M  V30 28 C -14.669 3.6849 0.0 0 CFG=2
M  V30 29 N -16.1641 3.473 0.0 0
M  V30 30 N -17.8006 -0.6946 0.0 0
M  V30 31 C -14.1392 5.0858 0.0 0
M  V30 32 C -18.3539 -2.072 0.0 0 CFG=1
M  V30 33 C -18.7424 0.4826 0.0 0
M  V30 34 C -19.849 -2.2839 0.0 0
M  V30 35 C -17.4356 -3.2257 0.0 0
M  V30 36 C -20.2375 0.2707 0.0 0
M  V30 37 O -20.7909 -1.1066 0.0 0
M  V30 END ATOM
M  V30 BEGIN BOND
M  V30 1 1 1 2
M  V30 2 2 2 3
M  V30 3 1 2 4
M  V30 4 1 3 5
M  V30 5 2 4 6
M  V30 6 2 5 7
M  V30 7 1 7 8
M  V30 8 1 8 9
M  V30 9 2 9 10
M  V30 10 1 9 11
M  V30 11 1 10 12
M  V30 12 2 11 13
M  V30 13 2 12 14
M  V30 14 1 13 15
M  V30 15 1 14 16
M  V30 16 1 15 17
M  V30 17 1 15 18
M  V30 18 1 16 19
M  V30 19 1 16 20
M  V30 20 2 17 21
M  V30 21 1 17 22
M  V30 22 1 22 23
M  V30 23 1 23 24
M  V30 24 1 23 25
M  V30 25 1 24 26
M  V30 26 1 24 27 CFG=1
M  V30 27 1 25 28
M  V30 28 1 26 29
M  V30 29 1 27 30
M  V30 30 1 28 31 CFG=3
M  V30 31 1 30 32
M  V30 32 1 30 33
M  V30 33 1 32 34
M  V30 34 1 32 35 CFG=3
M  V30 35 1 33 36
M  V30 36 1 34 37
M  V30 37 1 6 7
M  V30 38 1 13 14
M  V30 39 1 16 18
M  V30 40 1 28 29
M  V30 41 1 36 37
M  V30 END BOND
M  V30 BEGIN COLLECTION
M  V30 MDLV30/STEABS ATOMS=(3 24 28 32)
M  V30 END COLLECTION
M  V30 END CTAB
M  END
>  <Compound ID>
73

>  <Name>
AT-IAP

>  <Uniprot>
Q13490

>  <Target>
cIAP1

>  <Smiles>
C[C@@H]1CN(CC(=O)N2CC(C)(C)C3=NC=C(CC4=CC=C(F)C=C4)C=C32)[C@@H](CN2CCOC[C@H]2C)CN1

>  <Kd (nM)>


>  <Assay (Kd)>


>  <Ki (nM)>


>  <Assay (Ki)>


>  <IC50 (nM)>


>  <Assay (IC50)>


>  <EC50 (nM)>
0.32

>  <Assay (EC50)>
Intracellular degradation of cIAP1 in MDA-MB-231 cells

>  <Article DOI>
10.1021/acs.jmedchem.6b01877

>  <Molecular Weight>
509.67

>  <Exact Mass>
509.31660374

>  <XLogP3>
3.19

>  <Heavy Atom Count>
37

>  <Ring Count>
5

>  <Hydrogen Bond Acceptor Count>
6

>  <Hydrogen Bond Donor Count>
1

>  <Rotatable Bond Count>
6

>  <Topological Polar Surface Area>
60.94

>  <Molecular Formula>
C29H40FN5O2

>  <InChI>
InChI=1S/C29H40FN5O2/c1-20-15-34(25(14-31-20)16-33-9-10-37-18-21(33)2)17-27(36)35-19-29(3,4)28-26(35)12-23(13-32-28)11-22-5-7-24(30)8-6-22/h5-8,12-13,20-21,25,31H,9-11,14-19H2,1-4H3/t20-,21-,25-/m1/s1

>  <InChI Key>
XIQKDUKFFKQZAO-DNRQZRRGSA-N

>  <BindingDB>


>  <PubChem>
70980530

>  <ChEMBL>
CHEMBL4064619

$$$$
Compound 81
Actelion Java MolfileCreator 2.0

  0  0  0  0  0  0              0 V3000
M  V30 BEGIN CTAB
M  V30 COUNTS 37 41 0 0 0
M  V30 BEGIN ATOM
M  V30 1 F 0.0 0.0 0.0 0
M  V30 2 C -1.4833 0.259 0.0 0
M  V30 3 C -2.4487 -0.8829 0.0 0
M  V30 4 C -2.0249 1.6717 0.0 0
M  V30 5 C -3.9321 -0.6239 0.0 0
M  V30 6 C -3.5083 1.9307 0.0 0
M  V30 7 C -4.4736 0.7887 0.0 0
M  V30 8 C -5.957 1.0477 0.0 0
M  V30 9 C -6.9224 -0.0941 0.0 0
M  V30 10 C -6.4044 -1.4833 0.0 0
M  V30 11 C -8.4058 0.1648 0.0 0
M  V30 12 N -7.3698 -2.6253 0.0 0
M  V30 13 C -9.3712 -0.9771 0.0 0
M  V30 14 C -8.8532 -2.3663 0.0 0
M  V30 15 N -10.8781 -1.036 0.0 0
M  V30 16 C -10.0304 -3.2846 0.0 0
M  V30 17 C -11.8199 0.1412 0.0 0
M  V30 18 C -11.2901 -2.4723 0.0 0
M  V30 19 C -10.9958 -4.4266 0.0 0
M  V30 20 C -8.9944 -4.3441 0.0 0
M  V30 21 O -11.2901 1.5422 0.0 0
M  V30 22 C -13.3151 -0.0706 0.0 0
M  V30 23 N -14.2569 1.1066 0.0 0
M  V30 24 C -15.7521 0.8947 0.0 0 CFG=2
M  V30 25 C -13.7271 2.5076 0.0 0
M  V30 26 C -16.6939 2.072 0.0 0
M  V30 27 C -16.3054 -0.4826 0.0 0
M  V30 28 C -14.669 3.6849 0.0 0 CFG=2
M  V30 29 N -16.1641 3.473 0.0 0
M  V30 30 N -17.8006 -0.6946 0.0 0
M  V30 31 C -14.1392 5.0858 0.0 0
M  V30 32 C -18.3539 -2.072 0.0 0 CFG=1
M  V30 33 C -18.7424 0.4826 0.0 0
M  V30 34 C -19.849 -2.2839 0.0 0
M  V30 35 C -17.4356 -3.2257 0.0 0
M  V30 36 C -20.2375 0.2707 0.0 0
M  V30 37 O -20.7909 -1.1066 0.0 0
M  V30 END ATOM
M  V30 BEGIN BOND
M  V30 1 1 1 2
M  V30 2 2 2 3
M  V30 3 1 2 4
M  V30 4 1 3 5
M  V30 5 2 4 6
M  V30 6 2 5 7
M  V30 7 1 7 8
M  V30 8 1 8 9
M  V30 9 2 9 10
M  V30 10 1 9 11
M  V30 11 1 10 12
M  V30 12 2 11 13
M  V30 13 2 12 14
M  V30 14 1 13 15
M  V30 15 1 14 16
M  V30 16 1 15 17
M  V30 17 1 15 18
M  V30 18 1 16 19
M  V30 19 1 16 20
M  V30 20 2 17 21
M  V30 21 1 17 22
M  V30 22 1 22 23
M  V30 23 1 23 24
M  V30 24 1 23 25
M  V30 25 1 24 26
M  V30 26 1 24 27 CFG=1
M  V30 27 1 25 28
M  V30 28 1 26 29
M  V30 29 1 27 30
M  V30 30 1 28 31 CFG=3
M  V30 31 1 30 32
M  V30 32 1 30 33
M  V30 33 1 32 34
M  V30 34 1 32 35 CFG=3
M  V30 35 1 33 36
M  V30 36 1 34 37
M  V30 37 1 6 7
M  V30 38 1 13 14
M  V30 39 1 16 18
M  V30 40 1 28 29
M  V30 41 1 36 37
M  V30 END BOND
M  V30 BEGIN COLLECTION
M  V30 MDLV30/STEABS ATOMS=(3 24 28 32)
M  V30 END COLLECTION
M  V30 END CTAB
M  END
>  <Compound ID>
73

>  <Name>
AT-IAP

>  <Uniprot>
P98170

>  <Target>
XIAP

>  <Smiles>
C[C@@H]1CN(CC(=O)N2CC(C)(C)C3=NC=C(CC4=CC=C(F)C=C4)C=C32)[C@@H](CN2CCOC[C@H]2C)CN1

>  <Kd (nM)>


>  <Assay (Kd)>


>  <Ki (nM)>


>  <Assay (Ki)>


>  <IC50 (nM)>


>  <Assay (IC50)>


>  <EC50 (nM)>
5.1

>  <Assay (EC50)>
EC50 were determined by immunoprecipitation assay

>  <Article DOI>
10.1021/acs.jmedchem.6b01877

>  <Molecular Weight>
509.67

>  <Exact Mass>
509.31660374

>  <XLogP3>
3.19

>  <Heavy Atom Count>
37

>  <Ring Count>
5

>  <Hydrogen Bond Acceptor Count>
6

>  <Hydrogen Bond Donor Count>
1

>  <Rotatable Bond Count>
6

>  <Topological Polar Surface Area>
60.94

>  <Molecular Formula>
C29H40FN5O2

>  <InChI>
InChI=1S/C29H40FN5O2/c1-20-15-34(25(14-31-20)16-33-9-10-37-18-21(33)2)17-27(36)35-19-29(3,4)28-26(35)12-23(13-32-28)11-22-5-7-24(30)8-6-22/h5-8,12-13,20-21,25,31H,9-11,14-19H2,1-4H3/t20-,21-,25-/m1/s1

>  <InChI Key>
XIQKDUKFFKQZAO-DNRQZRRGSA-N

>  <BindingDB>


>  <PubChem>
70980530

>  <ChEMBL>
CHEMBL4064619

$$$$
Compound 82
Actelion Java MolfileCreator 2.0

  0  0  0  0  0  0              0 V3000
M  V30 BEGIN CTAB
M  V30 COUNTS 14 15 0 0 0
M  V30 BEGIN ATOM
M  V30 1 O 0.0 0.0 0.0 0
M  V30 2 C 0.7213 -1.3007 0.0 0
M  V30 3 N 2.2113 -1.3007 0.0 0
M  V30 4 C -0.0591 -2.5779 0.0 0 CFG=2
M  V30 5 C 2.9327 -2.6015 0.0 0
M  V30 6 C -1.5727 -2.5542 0.0 0
M  V30 7 C 0.6622 -3.8787 0.0 0
M  V30 8 O 4.4227 -2.6015 0.0 0
M  V30 9 C 2.1522 -3.8787 0.0 0
M  V30 10 C -2.3177 -1.2298 0.0 0
M  V30 11 C -2.3532 -3.8314 0.0 0
M  V30 12 C -3.8314 -1.2061 0.0 0
M  V30 13 C -3.8669 -3.8077 0.0 0
M  V30 14 C -4.6119 -2.4833 0.0 0
M  V30 END ATOM
M  V30 BEGIN BOND
M  V30 1 2 1 2
M  V30 2 1 2 3
M  V30 3 1 2 4
M  V30 4 1 3 5
M  V30 5 1 4 6 CFG=1
M  V30 6 1 4 7
M  V30 7 2 5 8
M  V30 8 1 5 9
M  V30 9 2 6 10
M  V30 10 1 6 11
M  V30 11 1 10 12
M  V30 12 2 11 13
M  V30 13 2 12 14
M  V30 14 1 7 9
M  V30 15 1 13 14
M  V30 END BOND
M  V30 BEGIN COLLECTION
M  V30 MDLV30/STERAC1 ATOMS=(1 4)
M  V30 END COLLECTION
M  V30 END CTAB
M  END
>  <Compound ID>
74

>  <Name>
PG

>  <Uniprot>
Q96SW2

>  <Target>
CRBN

>  <Smiles>
O=C1CCC(C2=CC=CC=C2)C(=O)N1

>  <Kd (nM)>
2191

>  <Assay (Kd)>
FP

>  <Ki (nM)>


>  <Assay (Ki)>


>  <IC50 (nM)>


>  <Assay (IC50)>


>  <EC50 (nM)>


>  <Assay (EC50)>


>  <Article DOI>
10.1002/anie.202108848

>  <Molecular Weight>
189.214

>  <Exact Mass>
189.078978592

>  <XLogP3>
1.02

>  <Heavy Atom Count>
14

>  <Ring Count>
2

>  <Hydrogen Bond Acceptor Count>
2

>  <Hydrogen Bond Donor Count>
1

>  <Rotatable Bond Count>
1

>  <Topological Polar Surface Area>
46.17

>  <Molecular Formula>
C11H11NO2

>  <InChI>
InChI=1S/C11H11NO2/c13-10-7-6-9(11(14)12-10)8-4-2-1-3-5-8/h1-5,9H,6-7H2,(H,12,13,14)

>  <InChI Key>
KAKZYGLQCHMNGS-UHFFFAOYSA-N

>  <BindingDB>
475151

>  <PubChem>
85686

>  <ChEMBL>


$$$$
Compound 83
Actelion Java MolfileCreator 2.0

  0  0  0  0  0  0              0 V3000
M  V30 BEGIN CTAB
M  V30 COUNTS 22 25 0 0 0
M  V30 BEGIN ATOM
M  V30 1 O 0.0 0.0 0.0 0
M  V30 2 C 0.708 -1.2981 0.0 0
M  V30 3 N 2.1949 -1.3217 0.0 0
M  V30 4 C -0.0826 -2.5726 0.0 0 CFG=1
M  V30 5 C 2.903 -2.6198 0.0 0
M  V30 6 N -1.5931 -2.5254 0.0 0
M  V30 7 C 0.6254 -3.8707 0.0 0
M  V30 8 O 4.3899 -2.6434 0.0 0
M  V30 9 C 2.1123 -3.8943 0.0 0
M  V30 10 C -2.5136 -3.7055 0.0 0
M  V30 11 C -2.4546 -1.2863 0.0 0
M  V30 12 O -2.1005 -5.1334 0.0 0
M  V30 13 C -3.9415 -3.198 0.0 0
M  V30 14 O -1.9707 0.1416 0.0 0
M  V30 15 C -3.9061 -1.6993 0.0 0
M  V30 16 C -5.2632 -3.9061 0.0 0
M  V30 17 C -5.2042 -0.9086 0.0 0
M  V30 18 C -6.5613 -3.1154 0.0 0
M  V30 19 C -6.5259 -1.6167 0.0 0
M  V30 20 C -8.0128 -3.5284 0.0 0
M  V30 21 C -7.9538 -1.1092 0.0 0
M  V30 22 N -8.8743 -2.2893 0.0 0
M  V30 END ATOM
M  V30 BEGIN BOND
M  V30 1 2 1 2
M  V30 2 1 2 3
M  V30 3 1 2 4
M  V30 4 1 3 5
M  V30 5 1 4 6 CFG=3
M  V30 6 1 4 7
M  V30 7 2 5 8
M  V30 8 1 5 9
M  V30 9 1 6 10
M  V30 10 1 6 11
M  V30 11 2 10 12
M  V30 12 1 10 13
M  V30 13 2 11 14
M  V30 14 1 11 15
M  V30 15 1 13 16
M  V30 16 1 15 17
M  V30 17 2 16 18
M  V30 18 2 17 19
M  V30 19 1 18 20
M  V30 20 1 19 21
M  V30 21 1 20 22
M  V30 22 1 7 9
M  V30 23 2 13 15
M  V30 24 1 18 19
M  V30 25 1 21 22
M  V30 END BOND
M  V30 BEGIN COLLECTION
M  V30 MDLV30/STERAC1 ATOMS=(1 4)
M  V30 END COLLECTION
M  V30 END CTAB
M  END
>  <Compound ID>
75

>  <Name>


>  <Uniprot>
Q96SW2

>  <Target>
CRBN

>  <Smiles>
O=C1CCC(N2C(=O)C3=CC4=C(C=C3C2=O)CNC4)C(=O)N1

>  <Kd (nM)>


>  <Assay (Kd)>


>  <Ki (nM)>


>  <Assay (Ki)>


>  <IC50 (nM)>


>  <Assay (IC50)>


>  <EC50 (nM)>


>  <Assay (EC50)>


>  <Article DOI>


>  <Molecular Weight>
299.286

>  <Exact Mass>
299.090605896

>  <XLogP3>
-0.73

>  <Heavy Atom Count>
22

>  <Ring Count>
4

>  <Hydrogen Bond Acceptor Count>
5

>  <Hydrogen Bond Donor Count>
2

>  <Rotatable Bond Count>
1

>  <Topological Polar Surface Area>
95.58

>  <Molecular Formula>
C15H13N3O4

>  <InChI>
InChI=1S/C15H13N3O4/c19-12-2-1-11(13(20)17-12)18-14(21)9-3-7-5-16-6-8(7)4-10(9)15(18)22/h3-4,11,16H,1-2,5-6H2,(H,17,19,20)

>  <InChI Key>
DFRCTMCXNOBCLU-UHFFFAOYSA-N

>  <BindingDB>


>  <PubChem>
156118351

>  <ChEMBL>


$$$$
Compound 84
Actelion Java MolfileCreator 2.0

  0  0  0  0  0  0              0 V3000
M  V30 BEGIN CTAB
M  V30 COUNTS 21 24 0 0 0
M  V30 BEGIN ATOM
M  V30 1 O 0.0 0.0 0.0 0
M  V30 2 C 0.7079 -1.2978 0.0 0
M  V30 3 N 2.1945 -1.3096 0.0 0
M  V30 4 C -0.0825 -2.5721 0.0 0 CFG=1
M  V30 5 C 2.9024 -2.6075 0.0 0
M  V30 6 N -1.5928 -2.5367 0.0 0
M  V30 7 C 0.6253 -3.8699 0.0 0
M  V30 8 O 4.3891 -2.6193 0.0 0
M  V30 9 C 2.1119 -3.8817 0.0 0
M  V30 10 C -2.5131 -3.7166 0.0 0
M  V30 11 C -2.4659 -1.2978 0.0 0
M  V30 12 O -2.0883 -5.1442 0.0 0
M  V30 13 C -3.9407 -3.221 0.0 0
M  V30 14 C -3.9171 -1.7226 0.0 0
M  V30 15 C -5.2622 -3.9289 0.0 0
M  V30 16 C -5.215 -0.9321 0.0 0
M  V30 17 C -6.5601 -3.1384 0.0 0
M  V30 18 C -6.5365 -1.64 0.0 0
M  V30 19 C -8.0113 -3.5632 0.0 0
M  V30 20 C -7.9641 -1.1444 0.0 0
M  V30 21 N -8.8844 -2.3243 0.0 0
M  V30 END ATOM
M  V30 BEGIN BOND
M  V30 1 2 1 2
M  V30 2 1 2 3
M  V30 3 1 2 4
M  V30 4 1 3 5
M  V30 5 1 4 6 CFG=3
M  V30 6 1 4 7
M  V30 7 2 5 8
M  V30 8 1 5 9
M  V30 9 1 6 10
M  V30 10 1 6 11
M  V30 11 2 10 12
M  V30 12 1 10 13
M  V30 13 1 11 14
M  V30 14 1 13 15
M  V30 15 1 14 16
M  V30 16 2 15 17
M  V30 17 2 16 18
M  V30 18 1 17 19
M  V30 19 1 18 20
M  V30 20 1 19 21
M  V30 21 1 7 9
M  V30 22 2 13 14
M  V30 23 1 17 18
M  V30 24 1 20 21
M  V30 END BOND
M  V30 BEGIN COLLECTION
M  V30 MDLV30/STERAC1 ATOMS=(1 4)
M  V30 END COLLECTION
M  V30 END CTAB
M  END
>  <Compound ID>
76

>  <Name>


>  <Uniprot>
Q96SW2

>  <Target>
CRBN

>  <Smiles>
O=C1CCC(N2CC3=CC4=C(C=C3C2=O)CNC4)C(=O)N1

>  <Kd (nM)>


>  <Assay (Kd)>


>  <Ki (nM)>


>  <Assay (Ki)>


>  <IC50 (nM)>


>  <Assay (IC50)>


>  <EC50 (nM)>


>  <Assay (EC50)>


>  <Article DOI>


>  <Molecular Weight>
285.303

>  <Exact Mass>
285.11134134

>  <XLogP3>
-0.88

>  <Heavy Atom Count>
21

>  <Ring Count>
4

>  <Hydrogen Bond Acceptor Count>
4

>  <Hydrogen Bond Donor Count>
2

>  <Rotatable Bond Count>
1

>  <Topological Polar Surface Area>
78.51

>  <Molecular Formula>
C15H15N3O3

>  <InChI>
InChI=1S/C15H15N3O3/c19-13-2-1-12(14(20)17-13)18-7-10-3-8-5-16-6-9(8)4-11(10)15(18)21/h3-4,12,16H,1-2,5-7H2,(H,17,19,20)

>  <InChI Key>
JOFWTVIUJXDETL-UHFFFAOYSA-N

>  <BindingDB>


>  <PubChem>
156123552

>  <ChEMBL>


$$$$
Compound 85
Actelion Java MolfileCreator 2.0

  0  0  0  0  0  0              0 V3000
M  V30 BEGIN CTAB
M  V30 COUNTS 14 15 0 0 0
M  V30 BEGIN ATOM
M  V30 1 O 0.0 0.0 0.0 0
M  V30 2 C 0.7213 -1.3007 0.0 0
M  V30 3 N -0.0591 -2.5779 0.0 0
M  V30 4 N 2.2113 -1.3007 0.0 0
M  V30 5 C -1.5727 -2.5542 0.0 0
M  V30 6 C 0.6622 -3.8787 0.0 0
M  V30 7 C 2.9327 -2.6015 0.0 0
M  V30 8 C -2.3177 -1.2298 0.0 0
M  V30 9 C -2.3532 -3.8314 0.0 0
M  V30 10 C 2.1522 -3.8787 0.0 0
M  V30 11 O 4.4227 -2.6015 0.0 0
M  V30 12 C -3.8314 -1.2061 0.0 0
M  V30 13 C -3.8669 -3.8077 0.0 0
M  V30 14 C -4.6119 -2.4833 0.0 0
M  V30 END ATOM
M  V30 BEGIN BOND
M  V30 1 2 1 2
M  V30 2 1 2 3
M  V30 3 1 2 4
M  V30 4 1 3 5
M  V30 5 1 3 6
M  V30 6 1 4 7
M  V30 7 2 5 8
M  V30 8 1 5 9
M  V30 9 1 6 10
M  V30 10 2 7 11
M  V30 11 1 8 12
M  V30 12 2 9 13
M  V30 13 2 12 14
M  V30 14 1 7 10
M  V30 15 1 13 14
M  V30 END BOND
M  V30 END CTAB
M  END
>  <Compound ID>
77

>  <Name>
SB57027

>  <Uniprot>
Q96SW2

>  <Target>
CRBN

>  <Smiles>
O=C1CCN(C2=CC=CC=C2)C(=O)N1

>  <Kd (nM)>


>  <Assay (Kd)>


>  <Ki (nM)>


>  <Assay (Ki)>


>  <IC50 (nM)>


>  <Assay (IC50)>


>  <EC50 (nM)>


>  <Assay (EC50)>


>  <Article DOI>


>  <Molecular Weight>
190.202

>  <Exact Mass>
190.07422756

>  <XLogP3>
0.6

>  <Heavy Atom Count>
14

>  <Ring Count>
2

>  <Hydrogen Bond Acceptor Count>
2

>  <Hydrogen Bond Donor Count>
1

>  <Rotatable Bond Count>
1

>  <Topological Polar Surface Area>
49.41

>  <Molecular Formula>
C10H10N2O2

>  <InChI>
InChI=1S/C10H10N2O2/c13-9-6-7-12(10(14)11-9)8-4-2-1-3-5-8/h1-5H,6-7H2,(H,11,13,14)

>  <InChI Key>
IYBINJWRHRKLTJ-UHFFFAOYSA-N

>  <BindingDB>


>  <PubChem>
638639

>  <ChEMBL>


$$$$
Compound 86
Actelion Java MolfileCreator 2.0

  0  0  0  0  0  0              0 V3000
M  V30 BEGIN CTAB
M  V30 COUNTS 15 16 0 0 0
M  V30 BEGIN ATOM
M  V30 1 Cl 0.0 0.0 0.0 0
M  V30 2 C -0.6953 1.3435 0.0 0
M  V30 3 C 0.106 2.6164 0.0 0
M  V30 4 C -2.2039 1.4378 0.0 0
M  V30 5 N 1.591 2.5457 0.0 0
M  V30 6 C -0.5892 3.96 0.0 0
M  V30 7 C -2.8992 2.7814 0.0 0
M  V30 8 C 2.3925 3.8185 0.0 0
M  V30 9 C 2.2628 1.2257 0.0 0
M  V30 10 C -2.0978 4.0542 0.0 0
M  V30 11 O 1.6971 5.1621 0.0 0
M  V30 12 N 3.8775 3.7478 0.0 0
M  V30 13 C 3.7478 1.155 0.0 0
M  V30 14 C 4.5492 2.4278 0.0 0
M  V30 15 O 6.0342 2.3571 0.0 0
M  V30 END ATOM
M  V30 BEGIN BOND
M  V30 1 1 1 2
M  V30 2 2 2 3
M  V30 3 1 2 4
M  V30 4 1 3 5
M  V30 5 1 3 6
M  V30 6 2 4 7
M  V30 7 1 5 8
M  V30 8 1 5 9
M  V30 9 2 6 10
M  V30 10 2 8 11
M  V30 11 1 8 12
M  V30 12 1 9 13
M  V30 13 1 12 14
M  V30 14 2 14 15
M  V30 15 1 7 10
M  V30 16 1 13 14
M  V30 END BOND
M  V30 END CTAB
M  END
>  <Compound ID>
78

>  <Name>
AKOS018335184

>  <Uniprot>
Q96SW2

>  <Target>
CRBN

>  <Smiles>
O=C1CCN(C2=CC=CC=C2Cl)C(=O)N1

>  <Kd (nM)>


>  <Assay (Kd)>


>  <Ki (nM)>


>  <Assay (Ki)>


>  <IC50 (nM)>


>  <Assay (IC50)>


>  <EC50 (nM)>


>  <Assay (EC50)>


>  <Article DOI>
10.1021/acsmedchemlett.1c00580

>  <Molecular Weight>
224.647

>  <Exact Mass>
224.035255208

>  <XLogP3>
1.23

>  <Heavy Atom Count>
15

>  <Ring Count>
2

>  <Hydrogen Bond Acceptor Count>
2

>  <Hydrogen Bond Donor Count>
1

>  <Rotatable Bond Count>
1

>  <Topological Polar Surface Area>
49.41

>  <Molecular Formula>
C10H9ClN2O2

>  <InChI>
InChI=1S/C10H9ClN2O2/c11-7-3-1-2-4-8(7)13-6-5-9(14)12-10(13)15/h1-4H,5-6H2,(H,12,14,15)

>  <InChI Key>
JADCAPMFEZPUSD-UHFFFAOYSA-N

>  <BindingDB>


>  <PubChem>
73456921

>  <ChEMBL>


$$$$
Compound 87
Actelion Java MolfileCreator 2.0

  0  0  0  0  0  0              0 V3000
M  V30 BEGIN CTAB
M  V30 COUNTS 16 17 0 0 0
M  V30 BEGIN ATOM
M  V30 1 O 0.0 0.0 0.0 0
M  V30 2 C 0.5135 -1.3889 0.0 0
M  V30 3 N -0.4552 -2.5445 0.0 0
M  V30 4 N 1.9842 -1.6224 0.0 0
M  V30 5 C -1.9492 -2.2877 0.0 0
M  V30 6 C 0.0583 -3.9334 0.0 0
M  V30 7 C 2.4978 -3.0113 0.0 0
M  V30 8 C -2.918 -3.4432 0.0 0
M  V30 9 C -2.4861 -0.8754 0.0 0
M  V30 10 C 1.529 -4.1669 0.0 0
M  V30 11 O 3.9684 -3.2448 0.0 0
M  V30 12 O -2.4044 -4.8322 0.0 0
M  V30 13 C -4.412 -3.1864 0.0 0
M  V30 14 C -3.9801 -0.6186 0.0 0
M  V30 15 C -3.3732 -5.9877 0.0 0
M  V30 16 C -4.9489 -1.7741 0.0 0
M  V30 END ATOM
M  V30 BEGIN BOND
M  V30 1 2 1 2
M  V30 2 1 2 3
M  V30 3 1 2 4
M  V30 4 1 3 5
M  V30 5 1 3 6
M  V30 6 1 4 7
M  V30 7 2 5 8
M  V30 8 1 5 9
M  V30 9 1 6 10
M  V30 10 2 7 11
M  V30 11 1 8 12
M  V30 12 1 8 13
M  V30 13 2 9 14
M  V30 14 1 12 15
M  V30 15 2 13 16
M  V30 16 1 7 10
M  V30 17 1 14 16
M  V30 END BOND
M  V30 END CTAB
M  END
>  <Compound ID>
79

>  <Name>
AKOS018335169

>  <Uniprot>
Q96SW2

>  <Target>
CRBN

>  <Smiles>
COC1=CC=CC=C1N1CCC(=O)NC1=O

>  <Kd (nM)>


>  <Assay (Kd)>


>  <Ki (nM)>


>  <Assay (Ki)>


>  <IC50 (nM)>


>  <Assay (IC50)>


>  <EC50 (nM)>


>  <Assay (EC50)>


>  <Article DOI>
10.1021/acsmedchemlett.1c00580

>  <Molecular Weight>
220.228

>  <Exact Mass>
220.084792244

>  <XLogP3>
0.57

>  <Heavy Atom Count>
16

>  <Ring Count>
2

>  <Hydrogen Bond Acceptor Count>
3

>  <Hydrogen Bond Donor Count>
1

>  <Rotatable Bond Count>
2

>  <Topological Polar Surface Area>
58.64

>  <Molecular Formula>
C11H12N2O3

>  <InChI>
InChI=1S/C11H12N2O3/c1-16-9-5-3-2-4-8(9)13-7-6-10(14)12-11(13)15/h2-5H,6-7H2,1H3,(H,12,14,15)

>  <InChI Key>
PCUUMCBQIMQBTC-UHFFFAOYSA-N

>  <BindingDB>


>  <PubChem>
79777144

>  <ChEMBL>


$$$$
Compound 88
Actelion Java MolfileCreator 2.0

  0  0  0  0  0  0              0 V3000
M  V30 BEGIN CTAB
M  V30 COUNTS 15 16 0 0 0
M  V30 BEGIN ATOM
M  V30 1 O 0.0 0.0 0.0 0
M  V30 2 C -1.2487 0.8481 0.0 0
M  V30 3 N -2.6152 0.2002 0.0 0
M  V30 4 C -1.1544 2.356 0.0 0 CFG=1
M  V30 5 C -3.8639 1.0484 0.0 0
M  V30 6 N 0.1884 3.0275 0.0 0
M  V30 7 C -2.4031 3.2042 0.0 0
M  V30 8 O -5.2304 0.4005 0.0 0
M  V30 9 C -3.7696 2.5563 0.0 0
M  V30 10 C 1.4136 2.2029 0.0 0
M  V30 11 C 1.2958 0.7185 0.0 0
M  V30 12 C 2.7565 2.8743 0.0 0
M  V30 13 C 2.5209 -0.106 0.0 0
M  V30 14 C 3.9817 2.0497 0.0 0
M  V30 15 C 3.8639 0.5654 0.0 0
M  V30 END ATOM
M  V30 BEGIN BOND
M  V30 1 2 1 2
M  V30 2 1 2 3
M  V30 3 1 2 4
M  V30 4 1 3 5
M  V30 5 1 4 6 CFG=3
M  V30 6 1 4 7
M  V30 7 2 5 8
M  V30 8 1 5 9
M  V30 9 1 6 10
M  V30 10 2 10 11
M  V30 11 1 10 12
M  V30 12 1 11 13
M  V30 13 2 12 14
M  V30 14 2 13 15
M  V30 15 1 7 9
M  V30 16 1 14 15
M  V30 END BOND
M  V30 BEGIN COLLECTION
M  V30 MDLV30/STERAC1 ATOMS=(1 4)
M  V30 END COLLECTION
M  V30 END CTAB
M  END
>  <Compound ID>
80

>  <Name>


>  <Uniprot>
Q96SW2

>  <Target>
CRBN

>  <Smiles>
O=C1CCC(NC2=CC=CC=C2)C(=O)N1

>  <Kd (nM)>


>  <Assay (Kd)>


>  <Ki (nM)>


>  <Assay (Ki)>


>  <IC50 (nM)>


>  <Assay (IC50)>


>  <EC50 (nM)>


>  <Assay (EC50)>


>  <Article DOI>


>  <Molecular Weight>
204.229

>  <Exact Mass>
204.089877624

>  <XLogP3>
1.13

>  <Heavy Atom Count>
15

>  <Ring Count>
2

>  <Hydrogen Bond Acceptor Count>
3

>  <Hydrogen Bond Donor Count>
2

>  <Rotatable Bond Count>
2

>  <Topological Polar Surface Area>
58.2

>  <Molecular Formula>
C11H12N2O2

>  <InChI>
InChI=1S/C11H12N2O2/c14-10-7-6-9(11(15)13-10)12-8-4-2-1-3-5-8/h1-5,9,12H,6-7H2,(H,13,14,15)

>  <InChI Key>
IMJAVZDZCOZXOZ-UHFFFAOYSA-N

>  <BindingDB>


>  <PubChem>
139966724

>  <ChEMBL>


$$$$
Compound 89
Actelion Java MolfileCreator 2.0

  0  0  0  0  0  0              0 V3000
M  V30 BEGIN CTAB
M  V30 COUNTS 19 20 0 0 0
M  V30 BEGIN ATOM
M  V30 1 Cl 0.0 0.0 0.0 0
M  V30 2 C 0.8377 1.2507 0.0 0
M  V30 3 C 2.3245 1.1563 0.0 0
M  V30 4 O 2.9617 -0.1887 0.0 0
M  V30 5 N 3.1623 2.4071 0.0 0
M  V30 6 C 4.6491 2.3127 0.0 0
M  V30 7 C 2.5015 3.7759 0.0 0
M  V30 8 C 5.4869 3.5635 0.0 0
M  V30 9 C 5.2863 0.9675 0.0 0
M  V30 10 C 0.9911 3.8939 0.0 0
M  V30 11 C 6.9737 3.4691 0.0 0
M  V30 12 C 6.7731 0.8731 0.0 0
M  V30 13 C 0.3303 5.2627 0.0 0
M  V30 14 O 7.8115 4.7199 0.0 0
M  V30 15 C 7.6109 2.1239 0.0 0
M  V30 16 N -0.3303 6.6315 0.0 0
M  V30 17 C 9.2982 4.6255 0.0 0
M  V30 18 O 9.0976 2.0295 0.0 0
M  V30 19 C 9.9354 3.2803 0.0 0
M  V30 END ATOM
M  V30 BEGIN BOND
M  V30 1 1 1 2
M  V30 2 1 2 3
M  V30 3 2 3 4
M  V30 4 1 3 5
M  V30 5 1 5 6
M  V30 6 1 5 7
M  V30 7 2 6 8
M  V30 8 1 6 9
M  V30 9 1 7 10
M  V30 10 1 8 11
M  V30 11 2 9 12
M  V30 12 1 10 13
M  V30 13 1 11 14
M  V30 14 2 11 15
M  V30 15 3 13 16
M  V30 16 1 14 17
M  V30 17 1 15 18
M  V30 18 1 17 19
M  V30 19 1 12 15
M  V30 20 1 18 19
M  V30 END BOND
M  V30 END CTAB
M  END
>  <Compound ID>
81

>  <Name>
EN106

>  <Uniprot>
Q9UK73

>  <Target>
FEM1B

>  <Smiles>
N#CCCN(C(=O)CCl)C1=CC=C2OCCOC2=C1

>  <Kd (nM)>


>  <Assay (Kd)>


>  <Ki (nM)>


>  <Assay (Ki)>


>  <IC50 (nM)>
2200

>  <Assay (IC50)>
Inhibit FEM1B-FNIP1 degron fluorescence polarization

>  <EC50 (nM)>


>  <Assay (EC50)>


>  <Article DOI>
10.1021/jacs.1c03980

>  <Molecular Weight>
280.711

>  <Exact Mass>
280.061469956

>  <XLogP3>
1.31

>  <Heavy Atom Count>
19

>  <Ring Count>
2

>  <Hydrogen Bond Acceptor Count>
4

>  <Hydrogen Bond Donor Count>
0

>  <Rotatable Bond Count>
4

>  <Topological Polar Surface Area>
62.56

>  <Molecular Formula>
C13H13ClN2O3

>  <InChI>
InChI=1S/C13H13ClN2O3/c14-9-13(17)16(5-1-4-15)10-2-3-11-12(8-10)19-7-6-18-11/h2-3,8H,1,5-7,9H2

>  <InChI Key>
GLDJSVHDOXCYPT-UHFFFAOYSA-N

>  <BindingDB>


>  <PubChem>
5100616

>  <ChEMBL>


$$$$
Compound 90
Actelion Java MolfileCreator 2.0

  0  0  0  0  0  0              0 V3000
M  V30 BEGIN CTAB
M  V30 COUNTS 20 22 0 0 0
M  V30 BEGIN ATOM
M  V30 1 F 0.0 0.0 0.0 0
M  V30 2 C -1.3612 -0.6336 0.0 0
M  V30 3 C -2.6051 0.2229 0.0 0
M  V30 4 C -1.4785 -2.1122 0.0 0
M  V30 5 C -3.9663 -0.4107 0.0 0
M  V30 6 C -2.8398 -2.7459 0.0 0
M  V30 7 C -5.3627 0.1642 0.0 0
M  V30 8 C -4.0836 -1.8892 0.0 0
M  V30 9 O -5.7265 1.6311 0.0 0
M  V30 10 N -6.3367 -0.9622 0.0 0
M  V30 11 C -5.5505 -2.2296 0.0 0
M  V30 12 C -7.8388 -0.8449 0.0 0 CFG=2
M  V30 13 O -6.1255 -3.6025 0.0 0
M  V30 14 C -8.6954 -2.0653 0.0 0
M  V30 15 C -8.4959 0.5163 0.0 0
M  V30 16 O -8.0617 -3.403 0.0 0
M  V30 17 N -10.1975 -1.9479 0.0 0
M  V30 18 C -9.998 0.6336 0.0 0
M  V30 19 C -10.8546 -0.5867 0.0 0
M  V30 20 O -12.3567 -0.4693 0.0 0
M  V30 END ATOM
M  V30 BEGIN BOND
M  V30 1 1 1 2
M  V30 2 2 2 3
M  V30 3 1 2 4
M  V30 4 1 3 5
M  V30 5 2 4 6
M  V30 6 1 5 7
M  V30 7 2 5 8
M  V30 8 2 7 9
M  V30 9 1 7 10
M  V30 10 1 8 11
M  V30 11 1 12 10 CFG=3
M  V30 12 2 11 13
M  V30 13 1 12 14
M  V30 14 1 12 15
M  V30 15 2 14 16
M  V30 16 1 14 17
M  V30 17 1 15 18
M  V30 18 1 17 19
M  V30 19 2 19 20
M  V30 20 1 6 8
M  V30 21 1 10 11
M  V30 22 1 18 19
M  V30 END BOND
M  V30 BEGIN COLLECTION
M  V30 MDLV30/STERAC1 ATOMS=(1 12)
M  V30 END COLLECTION
M  V30 END CTAB
M  END
>  <Compound ID>
82

>  <Name>


>  <Uniprot>
Q96SW2

>  <Target>
CRBN

>  <Smiles>
O=C1CCC(N2C(=O)C3=CC=C(F)C=C3C2=O)C(=O)N1

>  <Kd (nM)>


>  <Assay (Kd)>


>  <Ki (nM)>


>  <Assay (Ki)>


>  <IC50 (nM)>
493

>  <Assay (IC50)>
IC50 was tested by a thalidomide competition AlphaScreen assay

>  <EC50 (nM)>


>  <Assay (EC50)>


>  <Article DOI>


>  <Molecular Weight>
276.223

>  <Exact Mass>
276.054634988

>  <XLogP3>
0.43

>  <Heavy Atom Count>
20

>  <Ring Count>
3

>  <Hydrogen Bond Acceptor Count>
4

>  <Hydrogen Bond Donor Count>
1

>  <Rotatable Bond Count>
1

>  <Topological Polar Surface Area>
83.55

>  <Molecular Formula>
C13H9FN2O4

>  <InChI>
InChI=1S/C13H9FN2O4/c14-6-1-2-7-8(5-6)13(20)16(12(7)19)9-3-4-10(17)15-11(9)18/h1-2,5,9H,3-4H2,(H,15,17,18)

>  <InChI Key>
MPQLCQKBYRSPNA-UHFFFAOYSA-N

>  <BindingDB>
511657

>  <PubChem>
70876201

>  <ChEMBL>


$$$$
