1
Actelion Java MolfileCreator 2.0

  0  0  0  0  0  0              0 V3000
M  V30 BEGIN CTAB
M  V30 COUNTS 26 28 0 0 0
M  V30 BEGIN ATOM
M  V30 1 O 11.6913 4.5 0.0 0
M  V30 2 C 10.3923 3.75 0.0 0
M  V30 3 N 9.0932 4.5 0.0 0
M  V30 4 C 10.3923 2.25 0.0 0
M  V30 5 C 7.7942 3.75 0.0 0
M  V30 6 C 9.0932 6.0 0.0 0
M  V30 7 C 9.0932 1.5 0.0 0
M  V30 8 C 11.6913 1.5 0.0 0
M  V30 9 C 7.7942 2.25 0.0 0
M  V30 10 C 9.0932 0.0 0.0 0
M  V30 11 N 11.6913 0.0 0.0 0
M  V30 12 C 6.4951 1.5 0.0 0
M  V30 13 C 10.3923 -0.7499 0.0 0
M  V30 14 C 5.1961 2.25 0.0 0
M  V30 15 C 6.4951 0.0 0.0 0
M  V30 16 C 3.8971 1.5 0.0 0
M  V30 17 C 5.1961 -0.7499 0.0 0
M  V30 18 O 2.598 2.25 0.0 0
M  V30 19 C 3.8971 0.0 0.0 0
M  V30 20 O 5.1961 -2.25 0.0 0
M  V30 21 C 2.598 3.7499 0.0 0
M  V30 22 C 2.598 -0.75 0.0 0
M  V30 23 C 6.4951 -2.9999 0.0 0
M  V30 24 N 1.299 0.0 0.0 0
M  V30 25 C 1.299 1.5 0.0 0
M  V30 26 C 0.0 -0.75 0.0 0
M  V30 END ATOM
M  V30 BEGIN BOND
M  V30 1 2 1 2
M  V30 2 1 2 3
M  V30 3 1 2 4
M  V30 4 1 3 5
M  V30 5 1 3 6
M  V30 6 2 4 7
M  V30 7 1 4 8
M  V30 8 2 5 9
M  V30 9 1 7 10
M  V30 10 2 8 11
M  V30 11 1 9 12
M  V30 12 2 10 13
M  V30 13 2 12 14
M  V30 14 1 12 15
M  V30 15 1 14 16
M  V30 16 2 15 17
M  V30 17 1 16 18
M  V30 18 2 16 19
M  V30 19 1 17 20
M  V30 20 1 18 21
M  V30 21 1 19 22
M  V30 22 1 20 23
M  V30 23 1 22 24
M  V30 24 1 24 25
M  V30 25 1 24 26
M  V30 26 1 7 9
M  V30 27 1 11 13
M  V30 28 1 17 19
M  V30 END BOND
M  V30 END CTAB
M  END
>  <Molecule Name>
Compound 1

>  <Molecule Name 2>
Compound 1

>  <Compound ID>
1

>  <Name>
BI-7273

>  <Uniprot>
Q9NPI1

>  <Target>
BRD7

>  <Smiles>
COC1=CC(C2=CN(C)C(=O)C3=CN=CC=C23)=CC(OC)=C1CN(C)C

>  <Kd (nM)>
0.3

>  <Assay (Kd)>
BROMOScan platform of DiscoveRx

>  <Ki (nM)>


>  <Assay (Ki)>


>  <IC50 (nM)>
117

>  <Assay (IC50)>
BRD7 H3 AlphaScreen assay

>  <EC50 (nM)>


>  <Assay (EC50)>


>  <Article DOI>
10.1021/acs.jmedchem.5b01865

>  <Molecular Weight>
353.422

>  <Exact Mass>
353.1739416

>  <XLogP3>
1.4

>  <Heavy Atom Count>
26

>  <Ring Count>
3

>  <Hydrogen Bond Acceptor Count>
6

>  <Hydrogen Bond Donor Count>
0

>  <Rotatable Bond Count>
5

>  <Topological Polar Surface Area>
56.59

>  <Molecular Formula>
C20H23N3O3

>  <InChI>
InChI=1S/C20H23N3O3/c1-22(2)11-17-18(25-4)8-13(9-19(17)26-5)16-12-23(3)20(24)15-10-21-7-6-14(15)16/h6-10,12H,11H2,1-5H3

>  <InChI Key>
RBUYFHLQNPJMQM-UHFFFAOYSA-N

>  <BindingDB>
50183448

>  <PubChem>
118796358

>  <ChEMBL>
CHEMBL3823478

$$$$
1
Actelion Java MolfileCreator 2.0

  0  0  0  0  0  0              0 V3000
M  V30 BEGIN CTAB
M  V30 COUNTS 26 28 0 0 0
M  V30 BEGIN ATOM
M  V30 1 O 11.6913 4.5 0.0 0
M  V30 2 C 10.3923 3.75 0.0 0
M  V30 3 N 9.0932 4.5 0.0 0
M  V30 4 C 10.3923 2.25 0.0 0
M  V30 5 C 7.7942 3.75 0.0 0
M  V30 6 C 9.0932 6.0 0.0 0
M  V30 7 C 9.0932 1.5 0.0 0
M  V30 8 C 11.6913 1.5 0.0 0
M  V30 9 C 7.7942 2.25 0.0 0
M  V30 10 C 9.0932 0.0 0.0 0
M  V30 11 N 11.6913 0.0 0.0 0
M  V30 12 C 6.4951 1.5 0.0 0
M  V30 13 C 10.3923 -0.7499 0.0 0
M  V30 14 C 5.1961 2.25 0.0 0
M  V30 15 C 6.4951 0.0 0.0 0
M  V30 16 C 3.8971 1.5 0.0 0
M  V30 17 C 5.1961 -0.7499 0.0 0
M  V30 18 O 2.598 2.25 0.0 0
M  V30 19 C 3.8971 0.0 0.0 0
M  V30 20 O 5.1961 -2.25 0.0 0
M  V30 21 C 2.598 3.7499 0.0 0
M  V30 22 C 2.598 -0.75 0.0 0
M  V30 23 C 6.4951 -2.9999 0.0 0
M  V30 24 N 1.299 0.0 0.0 0
M  V30 25 C 1.299 1.5 0.0 0
M  V30 26 C 0.0 -0.75 0.0 0
M  V30 END ATOM
M  V30 BEGIN BOND
M  V30 1 2 1 2
M  V30 2 1 2 3
M  V30 3 1 2 4
M  V30 4 1 3 5
M  V30 5 1 3 6
M  V30 6 2 4 7
M  V30 7 1 4 8
M  V30 8 2 5 9
M  V30 9 1 7 10
M  V30 10 2 8 11
M  V30 11 1 9 12
M  V30 12 2 10 13
M  V30 13 2 12 14
M  V30 14 1 12 15
M  V30 15 1 14 16
M  V30 16 2 15 17
M  V30 17 1 16 18
M  V30 18 2 16 19
M  V30 19 1 17 20
M  V30 20 1 18 21
M  V30 21 1 19 22
M  V30 22 1 20 23
M  V30 23 1 22 24
M  V30 24 1 24 25
M  V30 25 1 24 26
M  V30 26 1 7 9
M  V30 27 1 11 13
M  V30 28 1 17 19
M  V30 END BOND
M  V30 END CTAB
M  END
>  <Molecule Name>
Compound 2

>  <Molecule Name 2>
Compound 2

>  <Compound ID>
1

>  <Name>
BI-7273

>  <Uniprot>
Q9H8M2

>  <Target>
BRD9

>  <Smiles>
COC1=CC(C2=CN(C)C(=O)C3=CN=CC=C23)=CC(OC)=C1CN(C)C

>  <Kd (nM)>
15.4

>  <Assay (Kd)>
ITC

>  <Ki (nM)>


>  <Assay (Ki)>


>  <IC50 (nM)>
19

>  <Assay (IC50)>
BRD9-H3 AlphaScreen assay

>  <EC50 (nM)>


>  <Assay (EC50)>


>  <Article DOI>
10.1021/acs.jmedchem.5b01865

>  <Molecular Weight>
353.422

>  <Exact Mass>
353.1739416

>  <XLogP3>
1.4

>  <Heavy Atom Count>
26

>  <Ring Count>
3

>  <Hydrogen Bond Acceptor Count>
6

>  <Hydrogen Bond Donor Count>
0

>  <Rotatable Bond Count>
5

>  <Topological Polar Surface Area>
56.59

>  <Molecular Formula>
C20H23N3O3

>  <InChI>
InChI=1S/C20H23N3O3/c1-22(2)11-17-18(25-4)8-13(9-19(17)26-5)16-12-23(3)20(24)15-10-21-7-6-14(15)16/h6-10,12H,11H2,1-5H3

>  <InChI Key>
RBUYFHLQNPJMQM-UHFFFAOYSA-N

>  <BindingDB>
50183448

>  <PubChem>
118796358

>  <ChEMBL>
CHEMBL3823478

$$$$
2
Actelion Java MolfileCreator 2.0

  0  0  0  0  0  0              0 V3000
M  V30 BEGIN CTAB
M  V30 COUNTS 26 28 0 0 0
M  V30 BEGIN ATOM
M  V30 1 O 11.6913 4.5 0.0 0
M  V30 2 C 10.3923 3.75 0.0 0
M  V30 3 N 9.0932 4.5 0.0 0
M  V30 4 C 10.3923 2.25 0.0 0
M  V30 5 C 7.7942 3.75 0.0 0
M  V30 6 C 9.0932 6.0 0.0 0
M  V30 7 C 9.0932 1.5 0.0 0
M  V30 8 C 11.6913 1.5 0.0 0
M  V30 9 C 7.7942 2.25 0.0 0
M  V30 10 C 9.0932 0.0 0.0 0
M  V30 11 N 11.6913 0.0 0.0 0
M  V30 12 C 6.4951 1.5 0.0 0
M  V30 13 C 10.3923 -0.7499 0.0 0
M  V30 14 C 5.1961 2.25 0.0 0
M  V30 15 C 6.4951 0.0 0.0 0
M  V30 16 O 5.1961 3.75 0.0 0
M  V30 17 C 3.8971 1.5 0.0 0
M  V30 18 C 5.1961 -0.7499 0.0 0
M  V30 19 C 3.8971 4.5 0.0 0
M  V30 20 C 3.8971 0.0 0.0 0
M  V30 21 O 5.1961 -2.25 0.0 0
M  V30 22 C 2.598 -0.75 0.0 0
M  V30 23 C 6.4951 -2.9999 0.0 0
M  V30 24 N 1.299 0.0 0.0 0
M  V30 25 C 1.299 1.5 0.0 0
M  V30 26 C 0.0 -0.75 0.0 0
M  V30 END ATOM
M  V30 BEGIN BOND
M  V30 1 2 1 2
M  V30 2 1 2 3
M  V30 3 1 2 4
M  V30 4 1 3 5
M  V30 5 1 3 6
M  V30 6 2 4 7
M  V30 7 1 4 8
M  V30 8 2 5 9
M  V30 9 1 7 10
M  V30 10 2 8 11
M  V30 11 1 9 12
M  V30 12 2 10 13
M  V30 13 2 12 14
M  V30 14 1 12 15
M  V30 15 1 14 16
M  V30 16 1 14 17
M  V30 17 2 15 18
M  V30 18 1 16 19
M  V30 19 2 17 20
M  V30 20 1 18 21
M  V30 21 1 20 22
M  V30 22 1 21 23
M  V30 23 1 22 24
M  V30 24 1 24 25
M  V30 25 1 24 26
M  V30 26 1 7 9
M  V30 27 1 11 13
M  V30 28 1 18 20
M  V30 END BOND
M  V30 END CTAB
M  END
>  <Molecule Name>
Compound 3

>  <Molecule Name 2>
Compound 3

>  <Compound ID>
2

>  <Name>
BI-9564

>  <Uniprot>
Q9NPI1

>  <Target>
BRD7

>  <Smiles>
COC1=CC(C2=CN(C)C(=O)C3=CN=CC=C23)=C(OC)C=C1CN(C)C

>  <Kd (nM)>
239/73

>  <Assay (Kd)>
ITC/BROMOScan platform of DiscoveRx

>  <Ki (nM)>


>  <Assay (Ki)>


>  <IC50 (nM)>
3410

>  <Assay (IC50)>
BRD7 H3 AlphaScreen assay

>  <EC50 (nM)>


>  <Assay (EC50)>


>  <Article DOI>
10.1021/acs.jmedchem.5b01865

>  <Molecular Weight>
353.422

>  <Exact Mass>
353.1739416

>  <XLogP3>
1.4

>  <Heavy Atom Count>
26

>  <Ring Count>
3

>  <Hydrogen Bond Acceptor Count>
6

>  <Hydrogen Bond Donor Count>
0

>  <Rotatable Bond Count>
5

>  <Topological Polar Surface Area>
56.59

>  <Molecular Formula>
C20H23N3O3

>  <InChI>
InChI=1S/C20H23N3O3/c1-22(2)11-13-8-19(26-5)15(9-18(13)25-4)17-12-23(3)20(24)16-10-21-7-6-14(16)17/h6-10,12H,11H2,1-5H3

>  <InChI Key>
BJFSUDWKXGMUKA-UHFFFAOYSA-N

>  <BindingDB>
50183449

>  <PubChem>
117072549

>  <ChEMBL>
CHEMBL3823101

$$$$
2
Actelion Java MolfileCreator 2.0

  0  0  0  0  0  0              0 V3000
M  V30 BEGIN CTAB
M  V30 COUNTS 26 28 0 0 0
M  V30 BEGIN ATOM
M  V30 1 O 11.6913 4.5 0.0 0
M  V30 2 C 10.3923 3.75 0.0 0
M  V30 3 N 9.0932 4.5 0.0 0
M  V30 4 C 10.3923 2.25 0.0 0
M  V30 5 C 7.7942 3.75 0.0 0
M  V30 6 C 9.0932 6.0 0.0 0
M  V30 7 C 9.0932 1.5 0.0 0
M  V30 8 C 11.6913 1.5 0.0 0
M  V30 9 C 7.7942 2.25 0.0 0
M  V30 10 C 9.0932 0.0 0.0 0
M  V30 11 N 11.6913 0.0 0.0 0
M  V30 12 C 6.4951 1.5 0.0 0
M  V30 13 C 10.3923 -0.7499 0.0 0
M  V30 14 C 5.1961 2.25 0.0 0
M  V30 15 C 6.4951 0.0 0.0 0
M  V30 16 O 5.1961 3.75 0.0 0
M  V30 17 C 3.8971 1.5 0.0 0
M  V30 18 C 5.1961 -0.7499 0.0 0
M  V30 19 C 3.8971 4.5 0.0 0
M  V30 20 C 3.8971 0.0 0.0 0
M  V30 21 O 5.1961 -2.25 0.0 0
M  V30 22 C 2.598 -0.75 0.0 0
M  V30 23 C 6.4951 -2.9999 0.0 0
M  V30 24 N 1.299 0.0 0.0 0
M  V30 25 C 1.299 1.5 0.0 0
M  V30 26 C 0.0 -0.75 0.0 0
M  V30 END ATOM
M  V30 BEGIN BOND
M  V30 1 2 1 2
M  V30 2 1 2 3
M  V30 3 1 2 4
M  V30 4 1 3 5
M  V30 5 1 3 6
M  V30 6 2 4 7
M  V30 7 1 4 8
M  V30 8 2 5 9
M  V30 9 1 7 10
M  V30 10 2 8 11
M  V30 11 1 9 12
M  V30 12 2 10 13
M  V30 13 2 12 14
M  V30 14 1 12 15
M  V30 15 1 14 16
M  V30 16 1 14 17
M  V30 17 2 15 18
M  V30 18 1 16 19
M  V30 19 2 17 20
M  V30 20 1 18 21
M  V30 21 1 20 22
M  V30 22 1 21 23
M  V30 23 1 22 24
M  V30 24 1 24 25
M  V30 25 1 24 26
M  V30 26 1 7 9
M  V30 27 1 11 13
M  V30 28 1 18 20
M  V30 END BOND
M  V30 END CTAB
M  END
>  <Molecule Name>
Compound 4

>  <Molecule Name 2>
Compound 4

>  <Compound ID>
2

>  <Name>
BI-9564

>  <Uniprot>
Q9H8M2

>  <Target>
BRD9

>  <Smiles>
COC1=CC(C2=CN(C)C(=O)C3=CN=CC=C23)=C(OC)C=C1CN(C)C

>  <Kd (nM)>
14.1

>  <Assay (Kd)>
ITC

>  <Ki (nM)>


>  <Assay (Ki)>


>  <IC50 (nM)>
75

>  <Assay (IC50)>
BRD9-H3 AlphaScreen assay

>  <EC50 (nM)>


>  <Assay (EC50)>


>  <Article DOI>
10.1021/acs.jmedchem.5b01865

>  <Molecular Weight>
353.422

>  <Exact Mass>
353.1739416

>  <XLogP3>
1.4

>  <Heavy Atom Count>
26

>  <Ring Count>
3

>  <Hydrogen Bond Acceptor Count>
6

>  <Hydrogen Bond Donor Count>
0

>  <Rotatable Bond Count>
5

>  <Topological Polar Surface Area>
56.59

>  <Molecular Formula>
C20H23N3O3

>  <InChI>
InChI=1S/C20H23N3O3/c1-22(2)11-13-8-19(26-5)15(9-18(13)25-4)17-12-23(3)20(24)16-10-21-7-6-14(16)17/h6-10,12H,11H2,1-5H3

>  <InChI Key>
BJFSUDWKXGMUKA-UHFFFAOYSA-N

>  <BindingDB>
50183449

>  <PubChem>
117072549

>  <ChEMBL>
CHEMBL3823101

$$$$
3
Actelion Java MolfileCreator 2.0

  0  0  0  0  0  0              0 V3000
M  V30 BEGIN CTAB
M  V30 COUNTS 61 68 0 0 0
M  V30 BEGIN ATOM
M  V30 1 S 18.0819 -10.5406 0.0 0
M  V30 2 O 19.3809 -11.2906 0.0 0
M  V30 3 O 19.3809 -9.7906 0.0 0
M  V30 4 N 17.3319 -9.2416 0.0 0
M  V30 5 N 17.3319 -11.8397 0.0 0
M  V30 6 C 18.0819 -7.9426 0.0 0
M  V30 7 C 15.8319 -9.2416 0.0 0
M  V30 8 C 15.8319 -11.8397 0.0 0
M  V30 9 C 18.0819 -13.1387 0.0 0
M  V30 10 C 17.3319 -6.6435 0.0 0
M  V30 11 C 15.0819 -7.9426 0.0 0
M  V30 12 N 15.8319 -6.6435 0.0 0
M  V30 13 C 15.0819 -5.3445 0.0 0
M  V30 14 C 15.8319 -4.0454 0.0 0
M  V30 15 C 13.5819 -5.3445 0.0 0
M  V30 16 C 15.0819 -2.7464 0.0 0
M  V30 17 C 12.8319 -4.0454 0.0 0
M  V30 18 C 13.5819 -2.7464 0.0 0
M  V30 19 O 12.8319 -1.4474 0.0 0
M  V30 20 C 13.5819 -0.1483 0.0 0
M  V30 21 C 12.8319 1.1506 0.0 0
M  V30 22 N 13.442 2.5209 0.0 0
M  V30 23 C 11.3401 1.3074 0.0 0
M  V30 24 N 12.3273 3.5246 0.0 0
M  V30 25 C 14.9092 2.8328 0.0 0
M  V30 26 C 10.3364 0.1927 0.0 0
M  V30 27 C 11.0282 2.7746 0.0 0
M  V30 28 C 8.8692 0.5046 0.0 0
M  V30 29 C 10.7999 -1.2338 0.0 0
M  V30 30 C 9.6579 3.3847 0.0 0
M  V30 31 N 8.1192 1.8036 0.0 0
M  V30 32 C 7.8655 -0.6101 0.0 0
M  V30 33 C 9.7962 -2.3485 0.0 0
M  V30 34 C 6.6519 1.4917 0.0 0
M  V30 35 C 8.7293 3.1739 0.0 0
M  V30 36 C 6.4951 0.0 0.0 0
M  V30 37 C 8.329 -2.0366 0.0 0
M  V30 38 C 5.5372 2.4954 0.0 0
M  V30 39 C 7.8476 4.3874 0.0 0
M  V30 40 C 5.1961 -0.75 0.0 0
M  V30 41 O 5.8491 3.9627 0.0 0
M  V30 42 O 4.1106 2.0319 0.0 0
M  V30 43 N 8.4577 5.7578 0.0 0
M  V30 44 C 3.8971 0.0 0.0 0
M  V30 45 C 7.576 6.9713 0.0 0
M  V30 46 C 9.9495 5.9146 0.0 0
M  V30 47 C 2.598 -0.75 0.0 0
M  V30 48 C 8.1861 8.3416 0.0 0
M  V30 49 C 10.5596 7.2849 0.0 0
M  V30 50 O 1.299 0.0 0.0 0
M  V30 51 O 9.6779 8.4984 0.0 0
M  V30 52 C 0.0 -0.75 0.0 0
M  V30 53 C -1.299 0.0 0.0 0
M  V30 54 C 0.0 -2.25 0.0 0
M  V30 55 C -2.598 -0.75 0.0 0
M  V30 56 C -1.299 1.5 0.0 0
M  V30 57 C -1.299 -3.0 0.0 0
M  V30 58 C -2.598 -2.25 0.0 0
M  V30 59 C -3.8971 0.0 0.0 0
M  V30 60 C -2.598 2.25 0.0 0
M  V30 61 C -3.8971 1.5 0.0 0
M  V30 END ATOM
M  V30 BEGIN BOND
M  V30 1 2 1 2
M  V30 2 2 1 3
M  V30 3 1 1 4
M  V30 4 1 1 5
M  V30 5 1 4 6
M  V30 6 1 4 7
M  V30 7 1 5 8
M  V30 8 1 5 9
M  V30 9 1 6 10
M  V30 10 1 7 11
M  V30 11 1 10 12
M  V30 12 1 12 13
M  V30 13 2 13 14
M  V30 14 1 13 15
M  V30 15 1 14 16
M  V30 16 2 15 17
M  V30 17 2 16 18
M  V30 18 1 18 19
M  V30 19 1 19 20
M  V30 20 1 20 21
M  V30 21 1 21 22
M  V30 22 2 21 23
M  V30 23 1 22 24
M  V30 24 1 22 25
M  V30 25 1 23 26
M  V30 26 1 23 27
M  V30 27 2 26 28
M  V30 28 1 26 29
M  V30 29 1 27 30
M  V30 30 1 28 31
M  V30 31 1 28 32
M  V30 32 2 29 33
M  V30 33 1 31 34
M  V30 34 1 31 35
M  V30 35 1 32 36
M  V30 36 2 32 37
M  V30 37 1 34 38
M  V30 38 1 35 39
M  V30 39 1 36 40
M  V30 40 2 38 41
M  V30 41 1 38 42
M  V30 42 1 39 43
M  V30 43 1 40 44
M  V30 44 1 43 45
M  V30 45 1 43 46
M  V30 46 1 44 47
M  V30 47 1 45 48
M  V30 48 1 46 49
M  V30 49 1 47 50
M  V30 50 1 48 51
M  V30 51 1 50 52
M  V30 52 1 52 53
M  V30 53 2 52 54
M  V30 54 1 53 55
M  V30 55 2 53 56
M  V30 56 1 54 57
M  V30 57 1 55 58
M  V30 58 2 55 59
M  V30 59 1 56 60
M  V30 60 1 59 61
M  V30 61 1 11 12
M  V30 62 1 17 18
M  V30 63 2 24 27
M  V30 64 1 33 37
M  V30 65 2 34 36
M  V30 66 1 49 51
M  V30 67 2 57 58
M  V30 68 2 60 61
M  V30 END BOND
M  V30 END CTAB
M  END
>  <Molecule Name>
Compound 5

>  <Molecule Name 2>
Compound 5

>  <Compound ID>
3

>  <Name>
A-1210477

>  <Uniprot>
Q07820

>  <Target>
MCL1

>  <Smiles>
CC1=NN(C)C(COC2=CC=C(N3CCN(S(=O)(=O)N(C)C)CC3)C=C2)=C1C1=CC=CC2=C1N(CCN1CCOCC1)C(C(=O)O)=C2CCCOC1=CC=CC2=CC=CC=C12

>  <Kd (nM)>
19

>  <Assay (Kd)>
SPR

>  <Ki (nM)>


>  <Assay (Ki)>


>  <IC50 (nM)>


>  <Assay (IC50)>


>  <EC50 (nM)>


>  <Assay (EC50)>


>  <Article DOI>
10.1021/acs.jmedchem.9b00455

>  <Molecular Weight>
850.055

>  <Exact Mass>
849.3883681

>  <XLogP3>
3.64

>  <Heavy Atom Count>
61

>  <Ring Count>
8

>  <Hydrogen Bond Acceptor Count>
11

>  <Hydrogen Bond Donor Count>
1

>  <Rotatable Bond Count>
16

>  <Topological Polar Surface Area>
134.84

>  <Molecular Formula>
C46H55N7O7S

>  <InChI>
InChI=1S/C46H55N7O7S/c1-33-43(41(49(4)47-33)32-60-36-19-17-35(18-20-36)51-22-24-52(25-23-51)61(56,57)48(2)3)40-14-8-13-38-39(15-9-29-59-42-16-7-11-34-10-5-6-12-37(34)42)45(46(54)55)53(44(38)40)26-21-50-27-30-58-31-28-50/h5-8,10-14,16-20H,9,15,21-32H2,1-4H3,(H,54,55)

>  <InChI Key>
XMVAWGSQPHFXKU-UHFFFAOYSA-N

>  <BindingDB>
50078163

>  <PubChem>
66575373

>  <ChEMBL>
CHEMBL3417704

$$$$
4
Actelion Java MolfileCreator 2.0

  0  0  0  0  0  0              0 V3000
M  V30 BEGIN CTAB
M  V30 COUNTS 41 46 0 0 0
M  V30 BEGIN ATOM
M  V30 1 Cl 8.7443 -4.4716 0.0 0
M  V30 2 C 7.3177 -4.008 0.0 0
M  V30 3 C 7.0063 -2.5412 0.0 0
M  V30 4 C 6.203 -5.0117 0.0 0
M  V30 5 F 8.1206 -1.5371 0.0 0
M  V30 6 C 5.5793 -2.0773 0.0 0
M  V30 7 C 4.7764 -4.5482 0.0 0
M  V30 8 C 4.4645 -3.081 0.0 0
M  V30 9 C 5.2674 -0.6101 0.0 0 CFG=2
M  V30 10 C 6.2711 0.5046 0.0 0 CFG=1
M  V30 11 C 3.8971 0.0 0.0 0 CFG=1
M  V30 12 C 7.0211 -0.7944 0.0 0
M  V30 13 C 7.3334 1.5615 0.0 0
M  V30 14 C 5.5211 1.8036 0.0 0
M  V30 15 N 4.0539 1.4917 0.0 0
M  V30 16 C 2.598 -0.75 0.0 0
M  V30 17 O 6.4276 -2.0651 0.0 0
M  V30 18 N 8.4883 -0.4825 0.0 0
M  V30 19 C 8.6451 1.0092 0.0 0
M  V30 20 C 7.0293 3.1171 0.0 0
M  V30 21 C 6.858 2.0302 0.0 0
M  V30 22 C 4.6394 3.0171 0.0 0
M  V30 23 O 2.598 -2.25 0.0 0
M  V30 24 N 1.299 0.0 0.0 0
M  V30 25 C 9.8586 1.8909 0.0 0
M  V30 26 C 8.3315 3.9927 0.0 0
M  V30 27 C 7.7614 3.223 0.0 0
M  V30 28 C 5.2495 4.3874 0.0 0
M  V30 29 C 0.0 -0.75 0.0 0
M  V30 30 C 9.7018 3.3826 0.0 0
M  V30 31 C 6.7413 4.5442 0.0 0
M  V30 32 C -1.299 0.0 0.0 0
M  V30 33 C 0.0 -2.25 0.0 0
M  V30 34 Cl 10.9154 4.2643 0.0 0
M  V30 35 C -2.598 -0.75 0.0 0
M  V30 36 C -1.299 -3.0 0.0 0
M  V30 37 C -2.598 -2.25 0.0 0
M  V30 38 C -3.8971 -3.0 0.0 0
M  V30 39 O -3.8971 -4.5 0.0 0
M  V30 40 N -5.1961 -2.25 0.0 0
M  V30 41 C -6.4951 -3.0 0.0 0
M  V30 END ATOM
M  V30 BEGIN BOND
M  V30 1 1 1 2
M  V30 2 2 2 3
M  V30 3 1 2 4
M  V30 4 1 3 5
M  V30 5 1 3 6
M  V30 6 2 4 7
M  V30 7 2 6 8
M  V30 8 1 9 6 CFG=1
M  V30 9 1 10 9
M  V30 10 1 11 9
M  V30 11 1 10 12
M  V30 12 1 10 13 CFG=3
M  V30 13 1 10 14
M  V30 14 1 11 15
M  V30 15 1 11 16 CFG=3
M  V30 16 2 12 17
M  V30 17 1 12 18
M  V30 18 2 13 19
M  V30 19 1 13 20
M  V30 20 1 14 21
M  V30 21 1 14 22
M  V30 22 2 16 23
M  V30 23 1 16 24
M  V30 24 1 19 25
M  V30 25 2 20 26
M  V30 26 1 21 27
M  V30 27 1 22 28
M  V30 28 1 24 29
M  V30 29 2 25 30
M  V30 30 1 27 31
M  V30 31 2 29 32
M  V30 32 1 29 33
M  V30 33 1 30 34
M  V30 34 1 32 35
M  V30 35 2 33 36
M  V30 36 2 35 37
M  V30 37 1 37 38
M  V30 38 2 38 39
M  V30 39 1 38 40
M  V30 40 1 40 41
M  V30 41 1 7 8
M  V30 42 1 14 15
M  V30 43 1 18 19
M  V30 44 1 26 30
M  V30 45 1 28 31
M  V30 46 1 36 37
M  V30 END BOND
M  V30 BEGIN COLLECTION
M  V30 MDLV30/STEABS ATOMS=(3 9 10 11)
M  V30 END COLLECTION
M  V30 END CTAB
M  END
>  <Molecule Name>
Compound 6

>  <Molecule Name 2>
Compound 6

>  <Compound ID>
4

>  <Name>
MI-1242

>  <Uniprot>
Q00987

>  <Target>
MDM2

>  <Smiles>
CNC(=O)C1=CC=C(NC(=O)[C@@H]2NC3(CCCCC3)[C@@]3(C(=O)NC4=CC(Cl)=CC=C43)[C@H]2C2=CC=CC(Cl)=C2F)C=C1

>  <Kd (nM)>


>  <Assay (Kd)>


>  <Ki (nM)>
2.7

>  <Assay (Ki)>
FP

>  <IC50 (nM)>


>  <Assay (IC50)>


>  <EC50 (nM)>


>  <Assay (EC50)>


>  <Article DOI>
10.1021/acs.jmedchem.8b00909

>  <Molecular Weight>
595.502

>  <Exact Mass>
594.1600744

>  <XLogP3>
4.92

>  <Heavy Atom Count>
41

>  <Ring Count>
6

>  <Hydrogen Bond Acceptor Count>
4

>  <Hydrogen Bond Donor Count>
4

>  <Rotatable Bond Count>
4

>  <Topological Polar Surface Area>
99.33

>  <Molecular Formula>
C31H29Cl2FN4O3

>  <InChI>
InChI=1S/C31H29Cl2FN4O3/c1-35-27(39)17-8-11-19(12-9-17)36-28(40)26-24(20-6-5-7-22(33)25(20)34)31(30(38-26)14-3-2-4-15-30)21-13-10-18(32)16-23(21)37-29(31)41/h5-13,16,24,26,38H,2-4,14-15H2,1H3,(H,35,39)(H,36,40)(H,37,41)/t24-,26+,31+/m0/s1

>  <InChI Key>
NAFGFZPKKDOIBX-UZXRVZLOSA-N

>  <BindingDB>


>  <PubChem>


>  <ChEMBL>


$$$$
5
Actelion Java MolfileCreator 2.0

  0  0  0  0  0  0              0 V3000
M  V30 BEGIN CTAB
M  V30 COUNTS 40 45 0 0 0
M  V30 BEGIN ATOM
M  V30 1 Cl 8.7443 -4.4716 0.0 0
M  V30 2 C 7.3177 -4.008 0.0 0
M  V30 3 C 7.0063 -2.5412 0.0 0
M  V30 4 C 6.203 -5.0117 0.0 0
M  V30 5 F 8.1206 -1.5371 0.0 0
M  V30 6 C 5.5793 -2.0773 0.0 0
M  V30 7 C 4.7764 -4.5482 0.0 0
M  V30 8 C 4.4645 -3.081 0.0 0
M  V30 9 C 5.2674 -0.6101 0.0 0 CFG=2
M  V30 10 C 6.2711 0.5046 0.0 0 CFG=1
M  V30 11 C 3.8971 0.0 0.0 0 CFG=1
M  V30 12 C 7.0211 -0.7944 0.0 0
M  V30 13 C 7.3334 1.5615 0.0 0
M  V30 14 C 5.5211 1.8036 0.0 0
M  V30 15 N 4.0539 1.4917 0.0 0
M  V30 16 C 2.598 -0.75 0.0 0
M  V30 17 O 6.4276 -2.0651 0.0 0
M  V30 18 N 8.4883 -0.4825 0.0 0
M  V30 19 C 8.6451 1.0092 0.0 0
M  V30 20 C 7.0293 3.1171 0.0 0
M  V30 21 C 6.858 2.0302 0.0 0
M  V30 22 C 4.6394 3.0171 0.0 0
M  V30 23 O 2.598 -2.25 0.0 0
M  V30 24 N 1.299 0.0 0.0 0
M  V30 25 C 9.8586 1.8909 0.0 0
M  V30 26 C 8.3315 3.9927 0.0 0
M  V30 27 C 7.7614 3.223 0.0 0
M  V30 28 C 5.2495 4.3874 0.0 0
M  V30 29 C 0.0 -0.75 0.0 0
M  V30 30 C 9.7018 3.3826 0.0 0
M  V30 31 C 6.7413 4.5442 0.0 0
M  V30 32 C -1.299 0.0 0.0 0
M  V30 33 C 0.0 -2.25 0.0 0
M  V30 34 Cl 10.9154 4.2643 0.0 0
M  V30 35 C -2.598 -0.75 0.0 0
M  V30 36 C -1.299 -3.0 0.0 0
M  V30 37 C -2.598 -2.25 0.0 0
M  V30 38 C -3.8971 -3.0 0.0 0
M  V30 39 O -5.1961 -2.25 0.0 0
M  V30 40 O -3.8971 -4.5 0.0 0
M  V30 END ATOM
M  V30 BEGIN BOND
M  V30 1 1 1 2
M  V30 2 2 2 3
M  V30 3 1 2 4
M  V30 4 1 3 5
M  V30 5 1 3 6
M  V30 6 2 4 7
M  V30 7 2 6 8
M  V30 8 1 9 6 CFG=1
M  V30 9 1 10 9
M  V30 10 1 11 9
M  V30 11 1 10 12
M  V30 12 1 10 13 CFG=3
M  V30 13 1 10 14
M  V30 14 1 11 15
M  V30 15 1 11 16 CFG=3
M  V30 16 2 12 17
M  V30 17 1 12 18
M  V30 18 2 13 19
M  V30 19 1 13 20
M  V30 20 1 14 21
M  V30 21 1 14 22
M  V30 22 2 16 23
M  V30 23 1 16 24
M  V30 24 1 19 25
M  V30 25 2 20 26
M  V30 26 1 21 27
M  V30 27 1 22 28
M  V30 28 1 24 29
M  V30 29 2 25 30
M  V30 30 1 27 31
M  V30 31 2 29 32
M  V30 32 1 29 33
M  V30 33 1 30 34
M  V30 34 1 32 35
M  V30 35 2 33 36
M  V30 36 2 35 37
M  V30 37 1 37 38
M  V30 38 2 38 39
M  V30 39 1 38 40
M  V30 40 1 7 8
M  V30 41 1 14 15
M  V30 42 1 18 19
M  V30 43 1 26 30
M  V30 44 1 28 31
M  V30 45 1 36 37
M  V30 END BOND
M  V30 BEGIN COLLECTION
M  V30 MDLV30/STEABS ATOMS=(3 9 10 11)
M  V30 END COLLECTION
M  V30 END CTAB
M  END
>  <Molecule Name>
Compound 7

>  <Molecule Name 2>
Compound 7

>  <Compound ID>
5

>  <Name>
MI-1061

>  <Uniprot>
Q00987

>  <Target>
MDM2

>  <Smiles>
O=C(O)C1=CC=C(NC(=O)[C@@H]2NC3(CCCCC3)[C@@]3(C(=O)NC4=CC(Cl)=CC=C43)[C@H]2C2=CC=CC(Cl)=C2F)C=C1

>  <Kd (nM)>


>  <Assay (Kd)>


>  <Ki (nM)>
0.16

>  <Assay (Ki)>
FP

>  <IC50 (nM)>


>  <Assay (IC50)>


>  <EC50 (nM)>


>  <Assay (EC50)>


>  <Article DOI>
10.1021/acs.jmedchem.8b00909

>  <Molecular Weight>
582.459

>  <Exact Mass>
581.1284399

>  <XLogP3>
2.89

>  <Heavy Atom Count>
40

>  <Ring Count>
6

>  <Hydrogen Bond Acceptor Count>
4

>  <Hydrogen Bond Donor Count>
4

>  <Rotatable Bond Count>
4

>  <Topological Polar Surface Area>
107.53

>  <Molecular Formula>
C30H26Cl2FN3O4

>  <InChI>
InChI=1S/C30H26Cl2FN3O4/c31-17-9-12-20-22(15-17)35-28(40)30(20)23(19-5-4-6-21(32)24(19)33)25(36-29(30)13-2-1-3-14-29)26(37)34-18-10-7-16(8-11-18)27(38)39/h4-12,15,23,25,36H,1-3,13-14H2,(H,34,37)(H,35,40)(H,38,39)/t23-,25+,30+/m0/s1

>  <InChI Key>
BIDSEXPFIMKDMF-LOLKONATSA-N

>  <BindingDB>
50041086

>  <PubChem>
70677271

>  <ChEMBL>
CHEMBL3355430

$$$$
6
Actelion Java MolfileCreator 2.0

  0  0  0  0  0  0              0 V3000
M  V30 BEGIN CTAB
M  V30 COUNTS 34 38 0 0 0
M  V30 BEGIN ATOM
M  V30 1 S 6.5621 -4.5388 0.0 0
M  V30 2 C 6.8711 -3.5877 0.0 0
M  V30 3 C 5.5621 -4.5388 0.0 0
M  V30 4 C 7.8222 -3.2787 0.0 0
M  V30 5 C 6.0621 -3.0 0.0 0
M  V30 6 C 5.2531 -3.5877 0.0 0
M  V30 7 C 4.893 -5.2819 0.0 0
M  V30 8 C 8.5653 -3.9478 0.0 0
M  V30 9 C 8.0301 -2.3006 0.0 0
M  V30 10 C 6.0621 -1.9999 0.0 0
M  V30 11 C 4.275 -3.3798 0.0 0
M  V30 12 C 3.9148 -5.074 0.0 0
M  V30 13 C 9.5164 -3.6388 0.0 0
M  V30 14 C 8.9812 -1.9916 0.0 0
M  V30 15 O 6.9282 -1.5 0.0 0
M  V30 16 C 5.1961 -1.4999 0.0 0
M  V30 17 C 3.6058 -4.123 0.0 0
M  V30 18 O 3.2457 -5.8172 0.0 0
M  V30 19 C 9.7243 -2.6607 0.0 0
M  V30 20 C 5.1961 -0.5 0.0 0
M  V30 21 C 4.3301 -1.9999 0.0 0
M  V30 22 O 10.6754 -2.3517 0.0 0
M  V30 23 C 4.3301 0.0 0.0 0
M  V30 24 C 3.4641 -1.5 0.0 0
M  V30 25 C 3.4641 -0.5 0.0 0
M  V30 26 O 2.598 0.0 0.0 0
M  V30 27 C 1.732 -0.5 0.0 0
M  V30 28 C 0.866 0.0 0.0 0
M  V30 29 N 0.0 -0.5 0.0 0
M  V30 30 C -0.866 0.0 0.0 0
M  V30 31 C 0.0 -1.4999 0.0 0
M  V30 32 C -1.732 -0.4999 0.0 0
M  V30 33 C -0.866 -1.9999 0.0 0
M  V30 34 C -1.732 -1.4999 0.0 0
M  V30 END ATOM
M  V30 BEGIN BOND
M  V30 1 1 1 2
M  V30 2 1 1 3
M  V30 3 1 2 4
M  V30 4 2 2 5
M  V30 5 2 3 6
M  V30 6 1 3 7
M  V30 7 2 4 8
M  V30 8 1 4 9
M  V30 9 1 5 10
M  V30 10 1 6 11
M  V30 11 2 7 12
M  V30 12 1 8 13
M  V30 13 2 9 14
M  V30 14 2 10 15
M  V30 15 1 10 16
M  V30 16 2 11 17
M  V30 17 1 12 18
M  V30 18 2 13 19
M  V30 19 2 16 20
M  V30 20 1 16 21
M  V30 21 1 19 22
M  V30 22 1 20 23
M  V30 23 2 21 24
M  V30 24 2 23 25
M  V30 25 1 25 26
M  V30 26 1 26 27
M  V30 27 1 27 28
M  V30 28 1 28 29
M  V30 29 1 29 30
M  V30 30 1 29 31
M  V30 31 1 30 32
M  V30 32 1 31 33
M  V30 33 1 32 34
M  V30 34 1 5 6
M  V30 35 1 12 17
M  V30 36 1 14 19
M  V30 37 1 24 25
M  V30 38 1 33 34
M  V30 END BOND
M  V30 END CTAB
M  END
>  <Molecule Name>
Compound 8

>  <Molecule Name 2>
Compound 8

>  <Compound ID>
6

>  <Name>
Raloxifene

>  <Uniprot>
P03372

>  <Target>
ER

>  <Smiles>
O=C(C1=CC=C(OCCN2CCCCC2)C=C1)C1=C(C2=CC=C(O)C=C2)SC2=CC(O)=CC=C12

>  <Kd (nM)>
1.03/0.07

>  <Assay (Kd)>
FP in ERalpha/ERbeta

>  <Ki (nM)>


>  <Assay (Ki)>


>  <IC50 (nM)>


>  <Assay (IC50)>


>  <EC50 (nM)>


>  <Assay (EC50)>


>  <Article DOI>
10.1021/jm050226i

>  <Molecular Weight>
473.594

>  <Exact Mass>
473.1660793

>  <XLogP3>
6.09

>  <Heavy Atom Count>
34

>  <Ring Count>
5

>  <Hydrogen Bond Acceptor Count>
6

>  <Hydrogen Bond Donor Count>
2

>  <Rotatable Bond Count>
7

>  <Topological Polar Surface Area>
70

>  <Molecular Formula>
C28H27NO4S

>  <InChI>
InChI=1S/C28H27NO4S/c30-21-8-4-20(5-9-21)28-26(24-13-10-22(31)18-25(24)34-28)27(32)19-6-11-23(12-7-19)33-17-16-29-14-2-1-3-15-29/h4-13,18,30-31H,1-3,14-17H2

>  <InChI Key>
GZUITABIAKMVPG-UHFFFAOYSA-N

>  <BindingDB>
19441

>  <PubChem>
5035

>  <ChEMBL>
CHEMBL81

$$$$
7
Actelion Java MolfileCreator 2.0

  0  0  0  0  0  0              0 V3000
M  V30 BEGIN CTAB
M  V30 COUNTS 29 31 0 0 0
M  V30 BEGIN ATOM
M  V30 1 O 3.4641 -0.5 0.0 0
M  V30 2 C 4.3301 0.0 0.0 0
M  V30 3 C 2.598 0.0 0.0 0
M  V30 4 C 5.1961 -0.4999 0.0 0
M  V30 5 C 4.3301 0.9999 0.0 0
M  V30 6 C 1.732 -0.5 0.0 0
M  V30 7 C 6.0621 0.0 0.0 0
M  V30 8 C 5.1961 1.4999 0.0 0
M  V30 9 N 0.866 0.0 0.0 0
M  V30 10 C 6.0621 1.0 0.0 0
M  V30 11 C 0.866 1.0 0.0 0
M  V30 12 C 0.0 -0.5 0.0 0
M  V30 13 C 6.9282 1.5 0.0 0
M  V30 14 C 7.7942 1.0 0.0 0
M  V30 15 C 6.9282 2.5 0.0 0
M  V30 16 C 7.7942 0.0 0.0 0
M  V30 17 C 8.6602 1.4999 0.0 0
M  V30 18 C 6.0621 3.0 0.0 0
M  V30 19 C 7.7942 3.0 0.0 0
M  V30 20 C 8.6602 -0.5 0.0 0
M  V30 21 C 9.5262 0.9999 0.0 0
M  V30 22 C 6.0621 4.0 0.0 0
M  V30 23 C 5.1961 2.5 0.0 0
M  V30 24 C 7.7942 4.0 0.0 0
M  V30 25 C 9.5262 0.0 0.0 0
M  V30 26 C 5.1961 4.5 0.0 0
M  V30 27 C 4.3301 3.0 0.0 0
M  V30 28 O 10.3923 -0.5 0.0 0
M  V30 29 C 4.3301 4.0 0.0 0
M  V30 END ATOM
M  V30 BEGIN BOND
M  V30 1 1 1 2
M  V30 2 1 1 3
M  V30 3 2 2 4
M  V30 4 1 2 5
M  V30 5 1 3 6
M  V30 6 1 4 7
M  V30 7 2 5 8
M  V30 8 1 6 9
M  V30 9 2 7 10
M  V30 10 1 9 11
M  V30 11 1 9 12
M  V30 12 1 10 13
M  V30 13 1 13 14
M  V30 14 2 13 15
M  V30 15 2 14 16
M  V30 16 1 14 17
M  V30 17 1 15 18
M  V30 18 1 15 19
M  V30 19 1 16 20
M  V30 20 2 17 21
M  V30 21 2 18 22
M  V30 22 1 18 23
M  V30 23 1 19 24
M  V30 24 2 20 25
M  V30 25 1 22 26
M  V30 26 2 23 27
M  V30 27 1 25 28
M  V30 28 2 26 29
M  V30 29 1 8 10
M  V30 30 1 21 25
M  V30 31 1 27 29
M  V30 END BOND
M  V30 END CTAB
M  END
>  <Molecule Name>
Compound 9

>  <Molecule Name 2>
Compound 9

>  <Compound ID>
7

>  <Name>
Afimoxifene

>  <Uniprot>
P03372

>  <Target>
ER

>  <Smiles>
CC/C(=C(\C1=CC=C(O)C=C1)C1=CC=C(OCCN(C)C)C=C1)C1=CC=CC=C1

>  <Kd (nM)>
5.7/1.7

>  <Assay (Kd)>
FP in ERalpha/ERbeta

>  <Ki (nM)>


>  <Assay (Ki)>


>  <IC50 (nM)>


>  <Assay (IC50)>


>  <EC50 (nM)>


>  <Assay (EC50)>


>  <Article DOI>
10.1021/jm050226i

>  <Molecular Weight>
387.523

>  <Exact Mass>
387.2198292

>  <XLogP3>
6.79

>  <Heavy Atom Count>
29

>  <Ring Count>
3

>  <Hydrogen Bond Acceptor Count>
3

>  <Hydrogen Bond Donor Count>
1

>  <Rotatable Bond Count>
8

>  <Topological Polar Surface Area>
32.7

>  <Molecular Formula>
C26H29NO2

>  <InChI>
InChI=1S/C26H29NO2/c1-4-25(20-8-6-5-7-9-20)26(21-10-14-23(28)15-11-21)22-12-16-24(17-13-22)29-19-18-27(2)3/h5-17,28H,4,18-19H2,1-3H3/b26-25-

>  <InChI Key>
TXUZVZSFRXZGTL-QPLCGJKRSA-N

>  <BindingDB>
20608

>  <PubChem>
449459

>  <ChEMBL>
CHEMBL489

$$$$
8
Actelion Java MolfileCreator 2.0

  0  0  0  0  0  0              0 V3000
M  V30 BEGIN CTAB
M  V30 COUNTS 28 30 0 0 0
M  V30 BEGIN ATOM
M  V30 1 O 3.4641 -0.5 0.0 0
M  V30 2 C 4.3301 0.0 0.0 0
M  V30 3 C 2.598 0.0 0.0 0
M  V30 4 C 5.1961 -0.4999 0.0 0
M  V30 5 C 4.3301 0.9999 0.0 0
M  V30 6 C 1.732 -0.5 0.0 0
M  V30 7 C 6.0621 0.0 0.0 0
M  V30 8 C 5.1961 1.4999 0.0 0
M  V30 9 N 0.866 0.0 0.0 0
M  V30 10 C 6.0621 1.0 0.0 0
M  V30 11 C 0.866 1.0 0.0 0
M  V30 12 C 0.0 -0.5 0.0 0
M  V30 13 C 6.9282 1.5 0.0 0
M  V30 14 C 7.7942 1.0 0.0 0
M  V30 15 C 6.9282 2.5 0.0 0
M  V30 16 C 7.7942 0.0 0.0 0
M  V30 17 C 8.6602 1.4999 0.0 0
M  V30 18 C 6.0621 3.0 0.0 0
M  V30 19 C 7.7942 3.0 0.0 0
M  V30 20 C 8.6602 -0.5 0.0 0
M  V30 21 C 9.5262 0.9999 0.0 0
M  V30 22 C 6.0621 4.0 0.0 0
M  V30 23 C 5.1961 2.5 0.0 0
M  V30 24 C 7.7942 4.0 0.0 0
M  V30 25 C 9.5262 0.0 0.0 0
M  V30 26 C 5.1961 4.5 0.0 0
M  V30 27 C 4.3301 3.0 0.0 0
M  V30 28 C 4.3301 4.0 0.0 0
M  V30 END ATOM
M  V30 BEGIN BOND
M  V30 1 1 1 2
M  V30 2 1 1 3
M  V30 3 2 2 4
M  V30 4 1 2 5
M  V30 5 1 3 6
M  V30 6 1 4 7
M  V30 7 2 5 8
M  V30 8 1 6 9
M  V30 9 2 7 10
M  V30 10 1 9 11
M  V30 11 1 9 12
M  V30 12 1 10 13
M  V30 13 1 13 14
M  V30 14 2 13 15
M  V30 15 2 14 16
M  V30 16 1 14 17
M  V30 17 1 15 18
M  V30 18 1 15 19
M  V30 19 1 16 20
M  V30 20 2 17 21
M  V30 21 2 18 22
M  V30 22 1 18 23
M  V30 23 1 19 24
M  V30 24 2 20 25
M  V30 25 1 22 26
M  V30 26 2 23 27
M  V30 27 2 26 28
M  V30 28 1 8 10
M  V30 29 1 21 25
M  V30 30 1 27 28
M  V30 END BOND
M  V30 END CTAB
M  END
>  <Molecule Name>
Compound 10

>  <Molecule Name 2>
Compound 10

>  <Compound ID>
8

>  <Name>
Tamoxifen

>  <Uniprot>
P03372

>  <Target>
ER

>  <Smiles>
CC/C(=C(\C1=CC=CC=C1)C1=CC=C(OCCN(C)C)C=C1)C1=CC=CC=C1

>  <Kd (nM)>


>  <Assay (Kd)>


>  <Ki (nM)>


>  <Assay (Ki)>


>  <IC50 (nM)>
61

>  <Assay (IC50)>
Displacement of fluorescein-labeled estrogen from ERalpha by fluorescence polarization based competitive binding affinity assay

>  <EC50 (nM)>


>  <Assay (EC50)>


>  <Article DOI>
10.1021/jm500670d

>  <Molecular Weight>
371.524

>  <Exact Mass>
371.2249145

>  <XLogP3>
7.14

>  <Heavy Atom Count>
28

>  <Ring Count>
3

>  <Hydrogen Bond Acceptor Count>
2

>  <Hydrogen Bond Donor Count>
0

>  <Rotatable Bond Count>
8

>  <Topological Polar Surface Area>
12.47

>  <Molecular Formula>
C26H29NO

>  <InChI>
InChI=1S/C26H29NO/c1-4-25(21-11-7-5-8-12-21)26(22-13-9-6-10-14-22)23-15-17-24(18-16-23)28-20-19-27(2)3/h5-18H,4,19-20H2,1-3H3/b26-25-

>  <InChI Key>
NKANXQFJJICGDU-QPLCGJKRSA-N

>  <BindingDB>
20607

>  <PubChem>
2733526

>  <ChEMBL>
CHEMBL83

$$$$
9
Actelion Java MolfileCreator 2.0

  0  0  0  0  0  0              0 V3000
M  V30 BEGIN CTAB
M  V30 COUNTS 35 39 0 0 0
M  V30 BEGIN ATOM
M  V30 1 O 2.598 0.0 0.0 0
M  V30 2 C 3.4641 -0.5 0.0 0
M  V30 3 C 1.732 -0.5 0.0 0
M  V30 4 C 3.4641 -1.5 0.0 0
M  V30 5 C 4.3301 0.0 0.0 0
M  V30 6 C 0.866 0.0 0.0 0
M  V30 7 C 4.3301 -2.0 0.0 0
M  V30 8 C 5.1961 -0.5 0.0 0
M  V30 9 N 0.0 -0.5 0.0 0
M  V30 10 C 5.1961 -1.5 0.0 0
M  V30 11 C -0.8262 0.0633 0.0 0
M  V30 12 C 0.0747 -1.4972 0.0 0
M  V30 13 C 6.0621 -2.0 0.0 0
M  V30 14 C -1.7818 -0.2314 0.0 0
M  V30 15 C -0.6583 -2.1773 0.0 0
M  V30 16 N 6.9282 -1.5 0.0 0
M  V30 17 C -2.1471 -1.1623 0.0 0
M  V30 18 C -1.6471 -2.0283 0.0 0
M  V30 19 C 7.8417 -1.9067 0.0 0
M  V30 20 C 7.0327 -0.5054 0.0 0
M  V30 21 C 8.0496 -2.8848 0.0 0
M  V30 22 C 8.5108 -1.1635 0.0 0
M  V30 23 C 8.0108 -0.2975 0.0 0
M  V30 24 C 6.3636 0.2376 0.0 0
M  V30 25 C 7.3065 -3.554 0.0 0
M  V30 26 C 9.0007 -3.1939 0.0 0
M  V30 27 C 9.5054 -1.2681 0.0 0
M  V30 28 C 8.3198 0.6534 0.0 0
M  V30 29 C 6.6726 1.1887 0.0 0
M  V30 30 C 7.5144 -4.5321 0.0 0
M  V30 31 C 9.2086 -4.172 0.0 0
M  V30 32 C 7.6507 1.3966 0.0 0
M  V30 33 C 8.4654 -4.8411 0.0 0
M  V30 34 O 7.9597 2.3476 0.0 0
M  V30 35 O 8.6733 -5.8193 0.0 0
M  V30 END ATOM
M  V30 BEGIN BOND
M  V30 1 1 1 2
M  V30 2 1 1 3
M  V30 3 2 2 4
M  V30 4 1 2 5
M  V30 5 1 3 6
M  V30 6 1 4 7
M  V30 7 2 5 8
M  V30 8 1 6 9
M  V30 9 2 7 10
M  V30 10 1 9 11
M  V30 11 1 9 12
M  V30 12 1 10 13
M  V30 13 1 11 14
M  V30 14 1 12 15
M  V30 15 1 13 16
M  V30 16 1 14 17
M  V30 17 1 15 18
M  V30 18 1 16 19
M  V30 19 1 16 20
M  V30 20 1 19 21
M  V30 21 2 19 22
M  V30 22 2 20 23
M  V30 23 1 20 24
M  V30 24 2 21 25
M  V30 25 1 21 26
M  V30 26 1 22 27
M  V30 27 1 23 28
M  V30 28 2 24 29
M  V30 29 1 25 30
M  V30 30 2 26 31
M  V30 31 2 28 32
M  V30 32 2 30 33
M  V30 33 1 32 34
M  V30 34 1 33 35
M  V30 35 1 8 10
M  V30 36 1 17 18
M  V30 37 1 22 23
M  V30 38 1 29 32
M  V30 39 1 31 33
M  V30 END BOND
M  V30 END CTAB
M  END
>  <Molecule Name>
Compound 11

>  <Molecule Name 2>
Compound 11

>  <Compound ID>
9

>  <Name>
Bazedoxifene

>  <Uniprot>
P03372

>  <Target>
ER

>  <Smiles>
CC1=C(C2=CC=C(O)C=C2)N(CC2=CC=C(OCCN3CCCCCC3)C=C2)C2=CC=C(O)C=C12

>  <Kd (nM)>


>  <Assay (Kd)>


>  <Ki (nM)>


>  <Assay (Ki)>


>  <IC50 (nM)>
23

>  <Assay (IC50)>
Displacement of [3H]-17-beta-estradiol from ERalpha by competitive binding affinity assay

>  <EC50 (nM)>


>  <Assay (EC50)>


>  <Article DOI>
10.1021/jm010086m

>  <Molecular Weight>
470.613

>  <Exact Mass>
470.2569429

>  <XLogP3>
6.12

>  <Heavy Atom Count>
35

>  <Ring Count>
5

>  <Hydrogen Bond Acceptor Count>
5

>  <Hydrogen Bond Donor Count>
2

>  <Rotatable Bond Count>
7

>  <Topological Polar Surface Area>
57.86

>  <Molecular Formula>
C30H34N2O3

>  <InChI>
InChI=1S/C30H34N2O3/c1-22-28-20-26(34)12-15-29(28)32(30(22)24-8-10-25(33)11-9-24)21-23-6-13-27(14-7-23)35-19-18-31-16-4-2-3-5-17-31/h6-15,20,33-34H,2-5,16-19,21H2,1H3

>  <InChI Key>
UCJGJABZCDBEDK-UHFFFAOYSA-N

>  <BindingDB>
50099585

>  <PubChem>
154257

>  <ChEMBL>
CHEMBL46740

$$$$
10
Actelion Java MolfileCreator 2.0

  0  0  0  0  0  0              0 V3000
M  V30 BEGIN CTAB
M  V30 COUNTS 31 35 0 0 0
M  V30 BEGIN ATOM
M  V30 1 O 2.598 0.0 0.0 0
M  V30 2 C 3.4641 -0.5 0.0 0
M  V30 3 C 1.732 -0.5 0.0 0
M  V30 4 C 3.4641 -1.5 0.0 0
M  V30 5 C 4.3301 0.0 0.0 0
M  V30 6 C 0.866 0.0 0.0 0
M  V30 7 C 4.3301 -2.0 0.0 0
M  V30 8 C 5.1961 -0.5 0.0 0
M  V30 9 N 0.0 -0.5 0.0 0
M  V30 10 C 5.1961 -1.5 0.0 0
M  V30 11 C -0.9135 -0.0932 0.0 0
M  V30 12 C -0.1045 -1.4945 0.0 0
M  V30 13 C 6.0621 -2.0 0.0 0 CFG=2
M  V30 14 C -1.5826 -0.8364 0.0 0
M  V30 15 C -1.0826 -1.7024 0.0 0
M  V30 16 C 6.0621 -3.0 0.0 0
M  V30 17 C 6.9282 -1.5 0.0 0 CFG=1
M  V30 18 C 6.9282 -3.5 0.0 0
M  V30 19 C 5.1961 -3.5 0.0 0
M  V30 20 C 6.9282 -0.5 0.0 0
M  V30 21 C 7.7942 -2.0 0.0 0
M  V30 22 C 6.9282 -4.5 0.0 0
M  V30 23 C 7.7942 -3.0 0.0 0
M  V30 24 C 5.1961 -4.5 0.0 0
M  V30 25 C 7.7942 0.0 0.0 0
M  V30 26 C 6.0621 0.0 0.0 0
M  V30 27 C 6.0621 -5.0 0.0 0
M  V30 28 C 7.7942 0.9999 0.0 0
M  V30 29 C 6.0621 0.9999 0.0 0
M  V30 30 O 6.0621 -6.0 0.0 0
M  V30 31 C 6.9282 1.4999 0.0 0
M  V30 END ATOM
M  V30 BEGIN BOND
M  V30 1 1 1 2
M  V30 2 1 1 3
M  V30 3 2 2 4
M  V30 4 1 2 5
M  V30 5 1 3 6
M  V30 6 1 4 7
M  V30 7 2 5 8
M  V30 8 1 6 9
M  V30 9 2 7 10
M  V30 10 1 9 11
M  V30 11 1 9 12
M  V30 12 1 13 10 CFG=1
M  V30 13 1 11 14
M  V30 14 1 12 15
M  V30 15 1 13 16
M  V30 16 1 17 13
M  V30 17 2 16 18
M  V30 18 1 16 19
M  V30 19 1 17 20 CFG=1
M  V30 20 1 17 21
M  V30 21 1 18 22
M  V30 22 1 18 23
M  V30 23 2 19 24
M  V30 24 2 20 25
M  V30 25 1 20 26
M  V30 26 2 22 27
M  V30 27 1 25 28
M  V30 28 2 26 29
M  V30 29 1 27 30
M  V30 30 2 28 31
M  V30 31 1 8 10
M  V30 32 1 14 15
M  V30 33 1 21 23
M  V30 34 1 24 27
M  V30 35 1 29 31
M  V30 END BOND
M  V30 BEGIN COLLECTION
M  V30 MDLV30/STEABS ATOMS=(2 13 17)
M  V30 END COLLECTION
M  V30 END CTAB
M  END
>  <Molecule Name>
Compound 12

>  <Molecule Name 2>
Compound 12

>  <Compound ID>
10

>  <Name>
Lasofoxifene

>  <Uniprot>
P03372

>  <Target>
ER

>  <Smiles>
OC1=CC=C2C(=C1)CC[C@H](C1=CC=CC=C1)[C@@H]2C1=CC=C(OCCN2CCCC2)C=C1

>  <Kd (nM)>


>  <Assay (Kd)>


>  <Ki (nM)>


>  <Assay (Ki)>


>  <IC50 (nM)>
4

>  <Assay (IC50)>
Displacement of [3H]-17-beta-estradiol from ERalpha by competitive binding affinity assay

>  <EC50 (nM)>


>  <Assay (EC50)>


>  <Article DOI>
10.1021/jm030086h

>  <Molecular Weight>
413.561

>  <Exact Mass>
413.2354792

>  <XLogP3>
6.1

>  <Heavy Atom Count>
31

>  <Ring Count>
5

>  <Hydrogen Bond Acceptor Count>
3

>  <Hydrogen Bond Donor Count>
1

>  <Rotatable Bond Count>
6

>  <Topological Polar Surface Area>
32.7

>  <Molecular Formula>
C28H31NO2

>  <InChI>
InChI=1S/C28H31NO2/c30-24-11-15-27-23(20-24)10-14-26(21-6-2-1-3-7-21)28(27)22-8-12-25(13-9-22)31-19-18-29-16-4-5-17-29/h1-3,6-9,11-13,15,20,26,28,30H,4-5,10,14,16-19H2/t26-,28+/m1/s1

>  <InChI Key>
GXESHMAMLJKROZ-IAPPQJPRSA-N

>  <BindingDB>
20606

>  <PubChem>
216416

>  <ChEMBL>
CHEMBL328190

$$$$
11
Actelion Java MolfileCreator 2.0

  0  0  0  0  0  0              0 V3000
M  V30 BEGIN CTAB
M  V30 COUNTS 32 34 0 0 0
M  V30 BEGIN ATOM
M  V30 1 S 9.4764 0.1726 0.0 0
M  V30 2 C 9.1645 1.6398 0.0 0
M  V30 3 N 10.1682 2.7546 0.0 0
M  V30 4 N 7.7942 2.25 0.0 0
M  V30 5 C 11.66 2.5978 0.0 0
M  V30 6 C 9.4182 4.0536 0.0 0
M  V30 7 C 6.4951 1.5 0.0 0
M  V30 8 C 7.951 3.7417 0.0 0
M  V30 9 C 12.2701 1.2275 0.0 0
M  V30 10 C 12.5417 3.8113 0.0 0
M  V30 11 O 10.0283 5.4239 0.0 0
M  V30 12 C 5.1961 2.25 0.0 0
M  V30 13 C 6.4951 0.0 0.0 0
M  V30 14 C 7.4875 5.1683 0.0 0
M  V30 15 C 6.4838 4.0536 0.0 0
M  V30 16 C 13.7619 1.0707 0.0 0
M  V30 17 C 14.0335 3.6545 0.0 0
M  V30 18 C 3.8971 1.5 0.0 0
M  V30 19 C 5.1961 -0.75 0.0 0
M  V30 20 C 14.6436 2.2842 0.0 0
M  V30 21 C 14.372 -0.2996 0.0 0
M  V30 22 F 2.598 2.25 0.0 0
M  V30 23 C 3.8971 0.0 0.0 0
M  V30 24 C 16.1353 2.1274 0.0 0
M  V30 25 F 15.7423 0.3104 0.0 0
M  V30 26 F 14.9821 -1.6699 0.0 0
M  V30 27 F 13.0017 -0.9097 0.0 0
M  V30 28 C 2.598 -0.75 0.0 0
M  V30 29 N 17.6271 1.9706 0.0 0
M  V30 30 O 2.598 -2.25 0.0 0
M  V30 31 N 1.299 0.0 0.0 0
M  V30 32 C 0.0 -0.75 0.0 0
M  V30 END ATOM
M  V30 BEGIN BOND
M  V30 1 2 1 2
M  V30 2 1 2 3
M  V30 3 1 2 4
M  V30 4 1 3 5
M  V30 5 1 3 6
M  V30 6 1 4 7
M  V30 7 1 4 8
M  V30 8 2 5 9
M  V30 9 1 5 10
M  V30 10 2 6 11
M  V30 11 2 7 12
M  V30 12 1 7 13
M  V30 13 1 8 14
M  V30 14 1 8 15
M  V30 15 1 9 16
M  V30 16 2 10 17
M  V30 17 1 12 18
M  V30 18 2 13 19
M  V30 19 2 16 20
M  V30 20 1 16 21
M  V30 21 1 18 22
M  V30 22 2 18 23
M  V30 23 1 20 24
M  V30 24 1 21 25
M  V30 25 1 21 26
M  V30 26 1 21 27
M  V30 27 1 23 28
M  V30 28 3 24 29
M  V30 29 2 28 30
M  V30 30 1 28 31
M  V30 31 1 31 32
M  V30 32 1 6 8
M  V30 33 1 17 20
M  V30 34 1 19 23
M  V30 END BOND
M  V30 END CTAB
M  END
>  <Molecule Name>
Compound 13

>  <Molecule Name 2>
Compound 13

>  <Compound ID>
11

>  <Name>
Enzalutamide

>  <Uniprot>
P10275

>  <Target>
AR

>  <Smiles>
CNC(=O)C1=CC=C(N2C(=S)N(C3=CC=C(C#N)C(C(F)(F)F)=C3)C(=O)C2(C)C)C=C1F

>  <Kd (nM)>


>  <Assay (Kd)>


>  <Ki (nM)>


>  <Assay (Ki)>


>  <IC50 (nM)>
5600

>  <Assay (IC50)>
Displacement of Fluormone AL Green from AR by fluorescence polarization assay

>  <EC50 (nM)>


>  <Assay (EC50)>


>  <Article DOI>
10.1021/jm301714s

>  <Molecular Weight>
464.444

>  <Exact Mass>
464.0930096

>  <XLogP3>
3.61

>  <Heavy Atom Count>
32

>  <Ring Count>
3

>  <Hydrogen Bond Acceptor Count>
4

>  <Hydrogen Bond Donor Count>
1

>  <Rotatable Bond Count>
3

>  <Topological Polar Surface Area>
76.44

>  <Molecular Formula>
C21H16F4N4O2S

>  <InChI>
InChI=1S/C21H16F4N4O2S/c1-20(2)18(31)28(12-5-4-11(10-26)15(8-12)21(23,24)25)19(32)29(20)13-6-7-14(16(22)9-13)17(30)27-3/h4-9H,1-3H3,(H,27,30)

>  <InChI Key>
WXCXUHSOUPDCQV-UHFFFAOYSA-N

>  <BindingDB>
50425732

>  <PubChem>
15951529

>  <ChEMBL>
CHEMBL1082407

$$$$
12
Actelion Java MolfileCreator 2.0

  0  0  0  0  0  0              0 V3000
M  V30 BEGIN CTAB
M  V30 COUNTS 33 36 0 0 0
M  V30 BEGIN ATOM
M  V30 1 S 6.3176 0.1151 0.0 0
M  V30 2 C 6.1096 1.0932 0.0 0
M  V30 3 N 6.7788 1.8364 0.0 0
M  V30 4 N 5.1961 1.5 0.0 0
M  V30 5 C 7.7733 1.7318 0.0 0
M  V30 6 C 6.2788 2.7024 0.0 0
M  V30 7 C 4.3301 1.0 0.0 0
M  V30 8 C 5.3006 2.4945 0.0 0
M  V30 9 C 8.18 0.8183 0.0 0
M  V30 10 C 8.3611 2.5408 0.0 0
M  V30 11 O 6.6855 3.6159 0.0 0
M  V30 12 C 3.4641 1.5 0.0 0
M  V30 13 C 4.3301 0.0 0.0 0
M  V30 14 C 5.2483 3.4931 0.0 0
M  V30 15 C 4.302 2.4421 0.0 0
M  V30 16 N 9.1746 0.7138 0.0 0
M  V30 17 C 9.3556 2.4363 0.0 0
M  V30 18 C 2.598 0.9999 0.0 0
M  V30 19 C 3.4641 -0.4999 0.0 0
M  V30 20 C 4.2497 3.4408 0.0 0
M  V30 21 C 9.7623 1.5228 0.0 0
M  V30 22 C 9.9434 3.2453 0.0 0
M  V30 23 F 1.732 1.4999 0.0 0
M  V30 24 C 2.598 0.0 0.0 0
M  V30 25 C 10.7569 1.4182 0.0 0
M  V30 26 F 9.1344 3.8331 0.0 0
M  V30 27 F 10.5312 4.0544 0.0 0
M  V30 28 F 10.7524 2.6575 0.0 0
M  V30 29 C 1.732 -0.5 0.0 0
M  V30 30 N 11.7514 1.3137 0.0 0
M  V30 31 O 1.732 -1.5 0.0 0
M  V30 32 N 0.866 0.0 0.0 0
M  V30 33 C 0.0 -0.5 0.0 0
M  V30 END ATOM
M  V30 BEGIN BOND
M  V30 1 2 1 2
M  V30 2 1 2 3
M  V30 3 1 2 4
M  V30 4 1 3 5
M  V30 5 1 3 6
M  V30 6 1 4 7
M  V30 7 1 4 8
M  V30 8 2 5 9
M  V30 9 1 5 10
M  V30 10 2 6 11
M  V30 11 2 7 12
M  V30 12 1 7 13
M  V30 13 1 8 14
M  V30 14 1 8 15
M  V30 15 1 9 16
M  V30 16 2 10 17
M  V30 17 1 12 18
M  V30 18 2 13 19
M  V30 19 1 14 20
M  V30 20 2 16 21
M  V30 21 1 17 22
M  V30 22 1 18 23
M  V30 23 2 18 24
M  V30 24 1 21 25
M  V30 25 1 22 26
M  V30 26 1 22 27
M  V30 27 1 22 28
M  V30 28 1 24 29
M  V30 29 3 25 30
M  V30 30 2 29 31
M  V30 31 1 29 32
M  V30 32 1 32 33
M  V30 33 1 6 8
M  V30 34 1 15 20
M  V30 35 1 17 21
M  V30 36 1 19 24
M  V30 END BOND
M  V30 END CTAB
M  END
>  <Molecule Name>
Compound 14

>  <Molecule Name 2>
Compound 14

>  <Compound ID>
12

>  <Name>
Apalutamide

>  <Uniprot>
P10275

>  <Target>
AR

>  <Smiles>
CNC(=O)C1=CC=C(N2C(=S)N(C3=CN=C(C#N)C(C(F)(F)F)=C3)C(=O)C23CCC3)C=C1F

>  <Kd (nM)>


>  <Assay (Kd)>


>  <Ki (nM)>


>  <Assay (Ki)>


>  <IC50 (nM)>
16

>  <Assay (IC50)>
Displacement of 16beta-[18F]fluoro-5alpha-DHT from AR by competitive-binding assay

>  <EC50 (nM)>


>  <Assay (EC50)>


>  <Article DOI>
10.1158/0008-5472.CAN-11-3948

>  <Molecular Weight>
477.443

>  <Exact Mass>
477.0882586

>  <XLogP3>
2.98

>  <Heavy Atom Count>
33

>  <Ring Count>
4

>  <Hydrogen Bond Acceptor Count>
5

>  <Hydrogen Bond Donor Count>
1

>  <Rotatable Bond Count>
3

>  <Topological Polar Surface Area>
89.33

>  <Molecular Formula>
C21H15F4N5O2S

>  <InChI>
InChI=1S/C21H15F4N5O2S/c1-27-17(31)13-4-3-11(8-15(13)22)30-19(33)29(18(32)20(30)5-2-6-20)12-7-14(21(23,24)25)16(9-26)28-10-12/h3-4,7-8,10H,2,5-6H2,1H3,(H,27,31)

>  <InChI Key>
HJBWBFZLDZWPHF-UHFFFAOYSA-N

>  <BindingDB>
50094975

>  <PubChem>
24872560

>  <ChEMBL>
CHEMBL3183409

$$$$
13
Actelion Java MolfileCreator 2.0

  0  0  0  0  0  0              0 V3000
M  V30 BEGIN CTAB
M  V30 COUNTS 29 30 0 0 0
M  V30 BEGIN ATOM
M  V30 1 S 6.4952 0.0 0.0 0
M  V30 2 O 7.9951 0.0 0.0 0
M  V30 3 O 7.2451 -1.299 0.0 0
M  V30 4 C 6.4952 1.5 0.0 0
M  V30 5 C 5.1961 -0.75 0.0 0
M  V30 6 C 5.1961 2.25 0.0 0
M  V30 7 C 7.7942 2.25 0.0 0
M  V30 8 C 3.8971 0.0 0.0 0 CFG=2
M  V30 9 C 5.1961 3.75 0.0 0
M  V30 10 C 7.7942 3.75 0.0 0
M  V30 11 O 4.6471 1.299 0.0 0
M  V30 12 C 2.598 -0.75 0.0 0
M  V30 13 C 3.1471 1.299 0.0 0
M  V30 14 C 6.4952 4.5 0.0 0
M  V30 15 O 2.598 -2.25 0.0 0
M  V30 16 N 1.299 0.0 0.0 0
M  V30 17 F 6.4952 6.0 0.0 0
M  V30 18 C 0.0 -0.75 0.0 0
M  V30 19 C -1.299 0.0 0.0 0
M  V30 20 C 0.0 -2.25 0.0 0
M  V30 21 C -2.598 -0.75 0.0 0
M  V30 22 C -1.299 -3.0 0.0 0
M  V30 23 C -2.598 -2.25 0.0 0
M  V30 24 C -3.8971 0.0 0.0 0
M  V30 25 C -3.8971 -3.0 0.0 0
M  V30 26 F -4.6471 -1.299 0.0 0
M  V30 27 F -5.1961 0.75 0.0 0
M  V30 28 F -3.1471 1.299 0.0 0
M  V30 29 N -5.1961 -3.75 0.0 0
M  V30 END ATOM
M  V30 BEGIN BOND
M  V30 1 2 1 2
M  V30 2 2 1 3
M  V30 3 1 1 4
M  V30 4 1 1 5
M  V30 5 2 4 6
M  V30 6 1 4 7
M  V30 7 1 8 5
M  V30 8 1 6 9
M  V30 9 2 7 10
M  V30 10 1 8 11 CFG=1
M  V30 11 1 8 12
M  V30 12 1 8 13
M  V30 13 2 9 14
M  V30 14 2 12 15
M  V30 15 1 12 16
M  V30 16 1 14 17
M  V30 17 1 16 18
M  V30 18 2 18 19
M  V30 19 1 18 20
M  V30 20 1 19 21
M  V30 21 2 20 22
M  V30 22 2 21 23
M  V30 23 1 21 24
M  V30 24 1 23 25
M  V30 25 1 24 26
M  V30 26 1 24 27
M  V30 27 1 24 28
M  V30 28 3 25 29
M  V30 29 1 10 14
M  V30 30 1 22 23
M  V30 END BOND
M  V30 BEGIN COLLECTION
M  V30 MDLV30/STERAC1 ATOMS=(1 8)
M  V30 END COLLECTION
M  V30 END CTAB
M  END
>  <Molecule Name>
Compound 15

>  <Molecule Name 2>
Compound 15

>  <Compound ID>
13

>  <Name>
BICALUTAMIDE

>  <Uniprot>
P10275

>  <Target>
AR

>  <Smiles>
CC(O)(CS(=O)(=O)C1=CC=C(F)C=C1)C(=O)NC1=CC=C(C#N)C(C(F)(F)F)=C1

>  <Kd (nM)>


>  <Assay (Kd)>


>  <Ki (nM)>


>  <Assay (Ki)>


>  <IC50 (nM)>
160

>  <Assay (IC50)>
Displacement of 16beta-[18F]fluoro-5alpha-DHT from AR by competitive-binding assay

>  <EC50 (nM)>


>  <Assay (EC50)>


>  <Article DOI>
10.1158/0008-5472.CAN-11-3948

>  <Molecular Weight>
430.379

>  <Exact Mass>
430.0610408

>  <XLogP3>
2.31

>  <Heavy Atom Count>
29

>  <Ring Count>
2

>  <Hydrogen Bond Acceptor Count>
5

>  <Hydrogen Bond Donor Count>
2

>  <Rotatable Bond Count>
5

>  <Topological Polar Surface Area>
107.26

>  <Molecular Formula>
C18H14F4N2O4S

>  <InChI>
InChI=1S/C18H14F4N2O4S/c1-17(26,10-29(27,28)14-6-3-12(19)4-7-14)16(25)24-13-5-2-11(9-23)15(8-13)18(20,21)22/h2-8,26H,10H2,1H3,(H,24,25)

>  <InChI Key>
LKJPYSCBVHEWIU-UHFFFAOYSA-N

>  <BindingDB>
18525

>  <PubChem>
2375

>  <ChEMBL>
CHEMBL409

$$$$
14
Actelion Java MolfileCreator 2.0

  0  0  0  0  0  0              0 V3000
M  V30 BEGIN CTAB
M  V30 COUNTS 29 31 0 0 0
M  V30 BEGIN ATOM
M  V30 1 Cl 9.6313 -2.6893 0.0 0
M  V30 2 C 9.6313 -1.1893 0.0 0
M  V30 3 C 10.9304 -0.4393 0.0 0
M  V30 4 C 8.3323 -0.4393 0.0 0
M  V30 5 C 12.2294 -1.1893 0.0 0
M  V30 6 C 10.9304 1.0606 0.0 0
M  V30 7 C 8.3323 1.0606 0.0 0
M  V30 8 N 13.5284 -1.9393 0.0 0
M  V30 9 C 9.6313 1.8106 0.0 0
M  V30 10 O 7.0332 1.8106 0.0 0
M  V30 11 C 5.7342 1.0606 0.0 0 CFG=1
M  V30 12 C 4.2853 1.4488 0.0 0
M  V30 13 C 5.346 -0.3882 0.0 0
M  V30 14 C 3.8971 0.0 0.0 0 CFG=1
M  V30 15 C 4.2853 2.9488 0.0 0
M  V30 16 C 2.9863 2.1988 0.0 0
M  V30 17 C 5.3459 -1.8882 0.0 0
M  V30 18 C 6.645 -1.1381 0.0 0
M  V30 19 N 2.598 -0.75 0.0 0
M  V30 20 C 1.299 0.0 0.0 0
M  V30 21 O 1.299 1.5 0.0 0
M  V30 22 C 0.0 -0.75 0.0 0
M  V30 23 C -1.3703 -0.1398 0.0 0
M  V30 24 C -0.1567 -2.2417 0.0 0
M  V30 25 N -2.374 -1.2546 0.0 0
M  V30 26 N -1.624 -2.5536 0.0 0
M  V30 27 C -2.2341 -3.9239 0.0 0
M  V30 28 C -3.7259 -4.0807 0.0 0
M  V30 29 O -4.336 -5.451 0.0 0
M  V30 END ATOM
M  V30 BEGIN BOND
M  V30 1 1 1 2
M  V30 2 2 2 3
M  V30 3 1 2 4
M  V30 4 1 3 5
M  V30 5 1 3 6
M  V30 6 2 4 7
M  V30 7 3 5 8
M  V30 8 2 6 9
M  V30 9 1 7 10
M  V30 10 1 11 10 CFG=3
M  V30 11 1 11 12
M  V30 12 1 11 13
M  V30 13 1 14 12
M  V30 14 1 12 15
M  V30 15 1 12 16
M  V30 16 1 13 17
M  V30 17 1 13 18
M  V30 18 1 14 19 CFG=1
M  V30 19 1 19 20
M  V30 20 2 20 21
M  V30 21 1 20 22
M  V30 22 1 22 23
M  V30 23 2 22 24
M  V30 24 2 23 25
M  V30 25 1 24 26
M  V30 26 1 26 27
M  V30 27 1 27 28
M  V30 28 1 28 29
M  V30 29 1 7 9
M  V30 30 1 13 14
M  V30 31 1 25 26
M  V30 END BOND
M  V30 BEGIN COLLECTION
M  V30 MDLV30/STEABS ATOMS=(2 11 14)
M  V30 END COLLECTION
M  V30 END CTAB
M  END
>  <Molecule Name>
Compound 16

>  <Molecule Name 2>
Compound 16

>  <Compound ID>
14

>  <Name>


>  <Uniprot>
P10275

>  <Target>
AR

>  <Smiles>
CC1(C)[C@H](NC(=O)C2=CN(CCO)N=C2)C(C)(C)[C@H]1OC1=CC=C(C#N)C(Cl)=C1

>  <Kd (nM)>


>  <Assay (Kd)>


>  <Ki (nM)>


>  <Assay (Ki)>


>  <IC50 (nM)>
59

>  <Assay (IC50)>
Inhibition AR overexpressed in LNCAP cells by luciferase reporter gene assay

>  <EC50 (nM)>


>  <Assay (EC50)>


>  <Article DOI>
10.1021/jm201059s

>  <Molecular Weight>
416.909

>  <Exact Mass>
416.1615183

>  <XLogP3>
3.06

>  <Heavy Atom Count>
29

>  <Ring Count>
3

>  <Hydrogen Bond Acceptor Count>
6

>  <Hydrogen Bond Donor Count>
2

>  <Rotatable Bond Count>
6

>  <Topological Polar Surface Area>
100.17

>  <Molecular Formula>
C21H25ClN4O3

>  <InChI>
InChI=1S/C21H25ClN4O3/c1-20(2)18(25-17(28)14-11-24-26(12-14)7-8-27)21(3,4)19(20)29-15-6-5-13(10-23)16(22)9-15/h5-6,9,11-12,18-19,27H,7-8H2,1-4H3,(H,25,28)/t18-,19-

>  <InChI Key>
HJJNHDLYWZTKGQ-WGSAOQKQSA-N

>  <BindingDB>
50356995

>  <PubChem>
56643472

>  <ChEMBL>
CHEMBL1916251

$$$$
15
Actelion Java MolfileCreator 2.0

  0  0  0  0  0  0              0 V3000
M  V30 BEGIN CTAB
M  V30 COUNTS 24 26 0 0 0
M  V30 BEGIN ATOM
M  V30 1 Cl 2.4526 -5.1475 0.0 0
M  V30 2 C 3.0404 -4.3385 0.0 0
M  V30 3 C 4.0349 -4.443 0.0 0
M  V30 4 C 2.6336 -3.4249 0.0 0
M  V30 5 C 4.4416 -5.3566 0.0 0
M  V30 6 C 4.6227 -3.634 0.0 0
M  V30 7 C 3.2214 -2.6159 0.0 0
M  V30 8 N 4.8484 -6.2701 0.0 0
M  V30 9 C 4.2159 -2.7205 0.0 0
M  V30 10 N 2.8147 -1.7024 0.0 0
M  V30 11 N 3.3147 -0.8364 0.0 0
M  V30 12 C 1.8365 -1.4945 0.0 0
M  V30 13 C 2.6455 -0.0932 0.0 0
M  V30 14 C 1.732 -0.5 0.0 0
M  V30 15 C 1.0934 -2.1636 0.0 0
M  V30 16 C 2.8535 0.8848 0.0 0
M  V30 17 C 0.866 0.0 0.0 0
M  V30 18 C 0.0 -0.5 0.0 0
M  V30 19 C -0.866 0.0 0.0 0
M  V30 20 C 0.0 -1.4999 0.0 0
M  V30 21 C -1.732 -0.4999 0.0 0
M  V30 22 C -0.866 -1.9999 0.0 0
M  V30 23 C -1.732 -1.4999 0.0 0
M  V30 24 F -2.598 -1.9999 0.0 0
M  V30 END ATOM
M  V30 BEGIN BOND
M  V30 1 1 1 2
M  V30 2 2 2 3
M  V30 3 1 2 4
M  V30 4 1 3 5
M  V30 5 1 3 6
M  V30 6 2 4 7
M  V30 7 3 5 8
M  V30 8 2 6 9
M  V30 9 1 7 10
M  V30 10 1 10 11
M  V30 11 1 10 12
M  V30 12 2 11 13
M  V30 13 2 12 14
M  V30 14 1 12 15
M  V30 15 1 13 16
M  V30 16 1 14 17
M  V30 17 1 17 18
M  V30 18 2 18 19
M  V30 19 1 18 20
M  V30 20 1 19 21
M  V30 21 2 20 22
M  V30 22 2 21 23
M  V30 23 1 23 24
M  V30 24 1 7 9
M  V30 25 1 13 14
M  V30 26 1 22 23
M  V30 END BOND
M  V30 END CTAB
M  END
>  <Molecule Name>
Compound 17

>  <Molecule Name 2>
Compound 17

>  <Compound ID>
15

>  <Name>


>  <Uniprot>
P10275

>  <Target>
AR

>  <Smiles>
CC1=NN(C2=CC=C(C#N)C(Cl)=C2)C(C)=C1CC1=CC=C(F)C=C1

>  <Kd (nM)>


>  <Assay (Kd)>


>  <Ki (nM)>


>  <Assay (Ki)>


>  <IC50 (nM)>
0.47

>  <Assay (IC50)>
Displacement of [17-alpha-methyl-3H]mibolerone from AR expressed in HEK293 cells

>  <EC50 (nM)>


>  <Assay (EC50)>


>  <Article DOI>
10.1016/j.bmc.2012.02.005

>  <Molecular Weight>
339.801

>  <Exact Mass>
339.0938534

>  <XLogP3>
5.06

>  <Heavy Atom Count>
24

>  <Ring Count>
3

>  <Hydrogen Bond Acceptor Count>
3

>  <Hydrogen Bond Donor Count>
0

>  <Rotatable Bond Count>
3

>  <Topological Polar Surface Area>
41.61

>  <Molecular Formula>
C19H15ClFN3

>  <InChI>
InChI=1S/C19H15ClFN3/c1-12-18(9-14-3-6-16(21)7-4-14)13(2)24(23-12)17-8-5-15(11-22)19(20)10-17/h3-8,10H,9H2,1-2H3

>  <InChI Key>
XPBGWWALRCLTNG-UHFFFAOYSA-N

>  <BindingDB>
50366207

>  <PubChem>
57398385

>  <ChEMBL>
CHEMBL1957612

$$$$
16
Actelion Java MolfileCreator 2.0

  0  0  0  0  0  0              0 V3000
M  V30 BEGIN CTAB
M  V30 COUNTS 37 42 0 0 0
M  V30 BEGIN ATOM
M  V30 1 O 3.8971 0.0 0.0 0
M  V30 2 C 2.598 -0.75 0.0 0
M  V30 3 N 1.299 0.0 0.0 0
M  V30 4 C 2.598 -2.25 0.0 0
M  V30 5 C 0.0 -0.75 0.0 0
M  V30 6 N 1.299 -3.0 0.0 0
M  V30 7 N 3.8971 -2.9999 0.0 0
M  V30 8 C 1.299 -4.5 0.0 0
M  V30 9 C 3.8971 -4.5 0.0 0
M  V30 10 N 0.0 -5.25 0.0 0
M  V30 11 C 2.598 -5.25 0.0 0
M  V30 12 N 5.0118 -5.5036 0.0 0
M  V30 13 C -1.299 -4.5 0.0 0
M  V30 14 C 2.9099 -6.7172 0.0 0
M  V30 15 C 4.4017 -6.874 0.0 0
M  V30 16 N -2.6693 -5.1101 0.0 0
M  V30 17 C -1.4558 -3.0082 0.0 0
M  V30 18 C 2.0282 -7.9307 0.0 0
M  V30 19 C 5.0118 -8.2443 0.0 0
M  V30 20 N -3.673 -3.9953 0.0 0
M  V30 21 C -2.9812 -6.5773 0.0 0
M  V30 22 C -2.923 -2.6963 0.0 0
M  V30 23 C 2.6383 -9.301 0.0 0
M  V30 24 C 4.1301 -9.4578 0.0 0
M  V30 25 C -4.4078 -7.0408 0.0 0
M  V30 26 C -3.5331 -1.326 0.0 0
M  V30 27 O 1.7566 -10.5145 0.0 0
M  V30 28 C 4.7402 -10.8281 0.0 0
M  V30 29 C -4.7466 -0.4443 0.0 0
M  V30 30 C -3.3763 0.1657 0.0 0
M  V30 31 C 0.2649 -10.3577 0.0 0
M  V30 32 C 3.9902 -12.1272 0.0 0
M  V30 33 C 6.2074 -11.14 0.0 0
M  V30 34 O 4.9939 -13.2419 0.0 0
M  V30 35 C 2.4984 -12.284 0.0 0
M  V30 36 N 6.3642 -12.6318 0.0 0
M  V30 37 C 7.3221 -10.1363 0.0 0
M  V30 END ATOM
M  V30 BEGIN BOND
M  V30 1 2 1 2
M  V30 2 1 2 3
M  V30 3 1 2 4
M  V30 4 1 3 5
M  V30 5 2 4 6
M  V30 6 1 4 7
M  V30 7 1 6 8
M  V30 8 2 7 9
M  V30 9 1 8 10
M  V30 10 2 8 11
M  V30 11 1 9 12
M  V30 12 1 10 13
M  V30 13 1 11 14
M  V30 14 1 12 15
M  V30 15 1 13 16
M  V30 16 2 13 17
M  V30 17 1 14 18
M  V30 18 1 15 19
M  V30 19 1 16 20
M  V30 20 1 16 21
M  V30 21 1 17 22
M  V30 22 2 18 23
M  V30 23 2 19 24
M  V30 24 1 21 25
M  V30 25 1 22 26
M  V30 26 1 23 27
M  V30 27 1 24 28
M  V30 28 1 26 29
M  V30 29 1 26 30
M  V30 30 1 27 31
M  V30 31 2 28 32
M  V30 32 1 28 33
M  V30 33 1 32 34
M  V30 34 1 32 35
M  V30 35 2 33 36
M  V30 36 1 33 37
M  V30 37 1 9 11
M  V30 38 2 14 15
M  V30 39 2 20 22
M  V30 40 1 23 24
M  V30 41 1 29 30
M  V30 42 1 34 36
M  V30 END BOND
M  V30 END CTAB
M  END
>  <Molecule Name>
Compound 18

>  <Molecule Name 2>
Compound 18

>  <Compound ID>
16

>  <Name>
HJB97

>  <Uniprot>
P25440

>  <Target>
BRD2

>  <Smiles>
CCN1N=C(C2CC2)C=C1NC1=NC(C(=O)NC)=NC2=C1C1=CC(OC)=C(C3=C(C)ON=C3C)C=C1[NH]2

>  <Kd (nM)>


>  <Assay (Kd)>


>  <Ki (nM)>
0.9/0.27

>  <Assay (Ki)>
FP in BRD2 BD1/2

>  <IC50 (nM)>
3.1/3.9

>  <Assay (IC50)>
Displacement of a FAM-labeled fluorescent probe based upon ZBA248 from BRD2 BD1/2 domain by fluorescence polarization based competitive binding affinity assay

>  <EC50 (nM)>


>  <Assay (EC50)>


>  <Article DOI>
10.1021/acs.jmedchem.6b01816

>  <Molecular Weight>
500.563

>  <Exact Mass>
500.2284368

>  <XLogP3>
3.85

>  <Heavy Atom Count>
37

>  <Ring Count>
6

>  <Hydrogen Bond Acceptor Count>
9

>  <Hydrogen Bond Donor Count>
3

>  <Rotatable Bond Count>
7

>  <Topological Polar Surface Area>
135.78

>  <Molecular Formula>
C26H28N8O3

>  <InChI>
InChI=1S/C26H28N8O3/c1-6-34-20(11-17(32-34)14-7-8-14)29-24-22-15-10-19(36-5)16(21-12(2)33-37-13(21)3)9-18(15)28-23(22)30-25(31-24)26(35)27-4/h9-11,14H,6-8H2,1-5H3,(H,27,35)(H2,28,29,30,31)

>  <InChI Key>
JNYHQYRTYFSMSQ-UHFFFAOYSA-N

>  <BindingDB>
50459819

>  <PubChem>
135397673

>  <ChEMBL>
CHEMBL4228445

$$$$
16
Actelion Java MolfileCreator 2.0

  0  0  0  0  0  0              0 V3000
M  V30 BEGIN CTAB
M  V30 COUNTS 37 42 0 0 0
M  V30 BEGIN ATOM
M  V30 1 O 3.8971 0.0 0.0 0
M  V30 2 C 2.598 -0.75 0.0 0
M  V30 3 N 1.299 0.0 0.0 0
M  V30 4 C 2.598 -2.25 0.0 0
M  V30 5 C 0.0 -0.75 0.0 0
M  V30 6 N 1.299 -3.0 0.0 0
M  V30 7 N 3.8971 -2.9999 0.0 0
M  V30 8 C 1.299 -4.5 0.0 0
M  V30 9 C 3.8971 -4.5 0.0 0
M  V30 10 N 0.0 -5.25 0.0 0
M  V30 11 C 2.598 -5.25 0.0 0
M  V30 12 N 5.0118 -5.5036 0.0 0
M  V30 13 C -1.299 -4.5 0.0 0
M  V30 14 C 2.9099 -6.7172 0.0 0
M  V30 15 C 4.4017 -6.874 0.0 0
M  V30 16 N -2.6693 -5.1101 0.0 0
M  V30 17 C -1.4558 -3.0082 0.0 0
M  V30 18 C 2.0282 -7.9307 0.0 0
M  V30 19 C 5.0118 -8.2443 0.0 0
M  V30 20 N -3.673 -3.9953 0.0 0
M  V30 21 C -2.9812 -6.5773 0.0 0
M  V30 22 C -2.923 -2.6963 0.0 0
M  V30 23 C 2.6383 -9.301 0.0 0
M  V30 24 C 4.1301 -9.4578 0.0 0
M  V30 25 C -4.4078 -7.0408 0.0 0
M  V30 26 C -3.5331 -1.326 0.0 0
M  V30 27 O 1.7566 -10.5145 0.0 0
M  V30 28 C 4.7402 -10.8281 0.0 0
M  V30 29 C -4.7466 -0.4443 0.0 0
M  V30 30 C -3.3763 0.1657 0.0 0
M  V30 31 C 0.2649 -10.3577 0.0 0
M  V30 32 C 3.9902 -12.1272 0.0 0
M  V30 33 C 6.2074 -11.14 0.0 0
M  V30 34 O 4.9939 -13.2419 0.0 0
M  V30 35 C 2.4984 -12.284 0.0 0
M  V30 36 N 6.3642 -12.6318 0.0 0
M  V30 37 C 7.3221 -10.1363 0.0 0
M  V30 END ATOM
M  V30 BEGIN BOND
M  V30 1 2 1 2
M  V30 2 1 2 3
M  V30 3 1 2 4
M  V30 4 1 3 5
M  V30 5 2 4 6
M  V30 6 1 4 7
M  V30 7 1 6 8
M  V30 8 2 7 9
M  V30 9 1 8 10
M  V30 10 2 8 11
M  V30 11 1 9 12
M  V30 12 1 10 13
M  V30 13 1 11 14
M  V30 14 1 12 15
M  V30 15 1 13 16
M  V30 16 2 13 17
M  V30 17 1 14 18
M  V30 18 1 15 19
M  V30 19 1 16 20
M  V30 20 1 16 21
M  V30 21 1 17 22
M  V30 22 2 18 23
M  V30 23 2 19 24
M  V30 24 1 21 25
M  V30 25 1 22 26
M  V30 26 1 23 27
M  V30 27 1 24 28
M  V30 28 1 26 29
M  V30 29 1 26 30
M  V30 30 1 27 31
M  V30 31 2 28 32
M  V30 32 1 28 33
M  V30 33 1 32 34
M  V30 34 1 32 35
M  V30 35 2 33 36
M  V30 36 1 33 37
M  V30 37 1 9 11
M  V30 38 2 14 15
M  V30 39 2 20 22
M  V30 40 1 23 24
M  V30 41 1 29 30
M  V30 42 1 34 36
M  V30 END BOND
M  V30 END CTAB
M  END
>  <Molecule Name>
Compound 19

>  <Molecule Name 2>
Compound 19

>  <Compound ID>
16

>  <Name>
HJB97

>  <Uniprot>
Q15059

>  <Target>
BRD3

>  <Smiles>
CCN1N=C(C2CC2)C=C1NC1=NC(C(=O)NC)=NC2=C1C1=CC(OC)=C(C3=C(C)ON=C3C)C=C1[NH]2

>  <Kd (nM)>


>  <Assay (Kd)>


>  <Ki (nM)>
0.18/0.21

>  <Assay (Ki)>
FP in BRD3 BD1/2

>  <IC50 (nM)>
6.6/1.9

>  <Assay (IC50)>
Displacement of a FAM-labeled fluorescent probe based upon ZBA248 from BRD3 BD1/2 domain by fluorescence polarization based competitive binding affinity assay

>  <EC50 (nM)>


>  <Assay (EC50)>


>  <Article DOI>
10.1021/acs.jmedchem.6b01816

>  <Molecular Weight>
500.563

>  <Exact Mass>
500.2284368

>  <XLogP3>
3.85

>  <Heavy Atom Count>
37

>  <Ring Count>
6

>  <Hydrogen Bond Acceptor Count>
9

>  <Hydrogen Bond Donor Count>
3

>  <Rotatable Bond Count>
7

>  <Topological Polar Surface Area>
135.78

>  <Molecular Formula>
C26H28N8O3

>  <InChI>
InChI=1S/C26H28N8O3/c1-6-34-20(11-17(32-34)14-7-8-14)29-24-22-15-10-19(36-5)16(21-12(2)33-37-13(21)3)9-18(15)28-23(22)30-25(31-24)26(35)27-4/h9-11,14H,6-8H2,1-5H3,(H,27,35)(H2,28,29,30,31)

>  <InChI Key>
JNYHQYRTYFSMSQ-UHFFFAOYSA-N

>  <BindingDB>
50459819

>  <PubChem>
135397673

>  <ChEMBL>
CHEMBL4228445

$$$$
16
Actelion Java MolfileCreator 2.0

  0  0  0  0  0  0              0 V3000
M  V30 BEGIN CTAB
M  V30 COUNTS 37 42 0 0 0
M  V30 BEGIN ATOM
M  V30 1 O 3.8971 0.0 0.0 0
M  V30 2 C 2.598 -0.75 0.0 0
M  V30 3 N 1.299 0.0 0.0 0
M  V30 4 C 2.598 -2.25 0.0 0
M  V30 5 C 0.0 -0.75 0.0 0
M  V30 6 N 1.299 -3.0 0.0 0
M  V30 7 N 3.8971 -2.9999 0.0 0
M  V30 8 C 1.299 -4.5 0.0 0
M  V30 9 C 3.8971 -4.5 0.0 0
M  V30 10 N 0.0 -5.25 0.0 0
M  V30 11 C 2.598 -5.25 0.0 0
M  V30 12 N 5.0118 -5.5036 0.0 0
M  V30 13 C -1.299 -4.5 0.0 0
M  V30 14 C 2.9099 -6.7172 0.0 0
M  V30 15 C 4.4017 -6.874 0.0 0
M  V30 16 N -2.6693 -5.1101 0.0 0
M  V30 17 C -1.4558 -3.0082 0.0 0
M  V30 18 C 2.0282 -7.9307 0.0 0
M  V30 19 C 5.0118 -8.2443 0.0 0
M  V30 20 N -3.673 -3.9953 0.0 0
M  V30 21 C -2.9812 -6.5773 0.0 0
M  V30 22 C -2.923 -2.6963 0.0 0
M  V30 23 C 2.6383 -9.301 0.0 0
M  V30 24 C 4.1301 -9.4578 0.0 0
M  V30 25 C -4.4078 -7.0408 0.0 0
M  V30 26 C -3.5331 -1.326 0.0 0
M  V30 27 O 1.7566 -10.5145 0.0 0
M  V30 28 C 4.7402 -10.8281 0.0 0
M  V30 29 C -4.7466 -0.4443 0.0 0
M  V30 30 C -3.3763 0.1657 0.0 0
M  V30 31 C 0.2649 -10.3577 0.0 0
M  V30 32 C 3.9902 -12.1272 0.0 0
M  V30 33 C 6.2074 -11.14 0.0 0
M  V30 34 O 4.9939 -13.2419 0.0 0
M  V30 35 C 2.4984 -12.284 0.0 0
M  V30 36 N 6.3642 -12.6318 0.0 0
M  V30 37 C 7.3221 -10.1363 0.0 0
M  V30 END ATOM
M  V30 BEGIN BOND
M  V30 1 2 1 2
M  V30 2 1 2 3
M  V30 3 1 2 4
M  V30 4 1 3 5
M  V30 5 2 4 6
M  V30 6 1 4 7
M  V30 7 1 6 8
M  V30 8 2 7 9
M  V30 9 1 8 10
M  V30 10 2 8 11
M  V30 11 1 9 12
M  V30 12 1 10 13
M  V30 13 1 11 14
M  V30 14 1 12 15
M  V30 15 1 13 16
M  V30 16 2 13 17
M  V30 17 1 14 18
M  V30 18 1 15 19
M  V30 19 1 16 20
M  V30 20 1 16 21
M  V30 21 1 17 22
M  V30 22 2 18 23
M  V30 23 2 19 24
M  V30 24 1 21 25
M  V30 25 1 22 26
M  V30 26 1 23 27
M  V30 27 1 24 28
M  V30 28 1 26 29
M  V30 29 1 26 30
M  V30 30 1 27 31
M  V30 31 2 28 32
M  V30 32 1 28 33
M  V30 33 1 32 34
M  V30 34 1 32 35
M  V30 35 2 33 36
M  V30 36 1 33 37
M  V30 37 1 9 11
M  V30 38 2 14 15
M  V30 39 2 20 22
M  V30 40 1 23 24
M  V30 41 1 29 30
M  V30 42 1 34 36
M  V30 END BOND
M  V30 END CTAB
M  END
>  <Molecule Name>
Compound 20

>  <Molecule Name 2>
Compound 20

>  <Compound ID>
16

>  <Name>
HJB97

>  <Uniprot>
O60885

>  <Target>
BRD4

>  <Smiles>
CCN1N=C(C2CC2)C=C1NC1=NC(C(=O)NC)=NC2=C1C1=CC(OC)=C(C3=C(C)ON=C3C)C=C1[NH]2

>  <Kd (nM)>


>  <Assay (Kd)>


>  <Ki (nM)>
0.5/1.0

>  <Assay (Ki)>
FP in BRD4 BD1/2

>  <IC50 (nM)>
7.0/7.0

>  <Assay (IC50)>
Displacement of a FAM-labeled fluorescent probe based upon ZBA248 from BRD4 BD1/2 domain by fluorescence polarization based competitive binding affinity assay

>  <EC50 (nM)>


>  <Assay (EC50)>


>  <Article DOI>
10.1021/acs.jmedchem.6b01816

>  <Molecular Weight>
500.563

>  <Exact Mass>
500.2284368

>  <XLogP3>
3.85

>  <Heavy Atom Count>
37

>  <Ring Count>
6

>  <Hydrogen Bond Acceptor Count>
9

>  <Hydrogen Bond Donor Count>
3

>  <Rotatable Bond Count>
7

>  <Topological Polar Surface Area>
135.78

>  <Molecular Formula>
C26H28N8O3

>  <InChI>
InChI=1S/C26H28N8O3/c1-6-34-20(11-17(32-34)14-7-8-14)29-24-22-15-10-19(36-5)16(21-12(2)33-37-13(21)3)9-18(15)28-23(22)30-25(31-24)26(35)27-4/h9-11,14H,6-8H2,1-5H3,(H,27,35)(H2,28,29,30,31)

>  <InChI Key>
JNYHQYRTYFSMSQ-UHFFFAOYSA-N

>  <BindingDB>
50459819

>  <PubChem>
135397673

>  <ChEMBL>
CHEMBL4228445

$$$$
17
Actelion Java MolfileCreator 2.0

  0  0  0  0  0  0              0 V3000
M  V30 BEGIN CTAB
M  V30 COUNTS 26 29 0 0 0
M  V30 BEGIN ATOM
M  V30 1 O 2.598 0.0 0.0 0
M  V30 2 C 1.732 -0.5 0.0 0
M  V30 3 N 0.866 0.0 0.0 0
M  V30 4 C 1.732 -1.5 0.0 0
M  V30 5 C 0.0 -0.5 0.0 0
M  V30 6 N 0.866 -2.0 0.0 0
M  V30 7 N 2.598 -1.9999 0.0 0
M  V30 8 C 0.866 -3.0 0.0 0
M  V30 9 C 2.598 -2.9999 0.0 0
M  V30 10 N 0.1228 -3.6691 0.0 0
M  V30 11 C 1.732 -3.5 0.0 0
M  V30 12 C 0.5296 -4.5826 0.0 0
M  V30 13 C 1.5241 -4.4781 0.0 0
M  V30 14 C 0.1228 -5.4962 0.0 0
M  V30 15 C 2.1119 -5.2871 0.0 0
M  V30 16 C 0.7106 -6.3052 0.0 0
M  V30 17 C 1.7051 -6.2007 0.0 0
M  V30 18 C 0.3039 -7.2187 0.0 0
M  V30 19 O 2.2929 -7.0097 0.0 0
M  V30 20 C -0.6742 -7.4266 0.0 0
M  V30 21 C 0.8039 -8.0848 0.0 0
M  V30 22 C 3.2874 -6.9051 0.0 0
M  V30 23 O -0.7787 -8.4212 0.0 0
M  V30 24 C -1.4173 -6.7575 0.0 0
M  V30 25 N 0.1347 -8.8279 0.0 0
M  V30 26 C 1.7984 -8.1893 0.0 0
M  V30 END ATOM
M  V30 BEGIN BOND
M  V30 1 2 1 2
M  V30 2 1 2 3
M  V30 3 1 2 4
M  V30 4 1 3 5
M  V30 5 2 4 6
M  V30 6 1 4 7
M  V30 7 1 6 8
M  V30 8 2 7 9
M  V30 9 1 8 10
M  V30 10 2 8 11
M  V30 11 1 10 12
M  V30 12 1 11 13
M  V30 13 1 12 14
M  V30 14 1 13 15
M  V30 15 2 14 16
M  V30 16 2 15 17
M  V30 17 1 16 18
M  V30 18 1 17 19
M  V30 19 2 18 20
M  V30 20 1 18 21
M  V30 21 1 19 22
M  V30 22 1 20 23
M  V30 23 1 20 24
M  V30 24 2 21 25
M  V30 25 1 21 26
M  V30 26 1 9 11
M  V30 27 2 12 13
M  V30 28 1 16 17
M  V30 29 1 23 25
M  V30 END BOND
M  V30 END CTAB
M  END
>  <Molecule Name>
Compound 21

>  <Molecule Name 2>
Compound 21

>  <Compound ID>
17

>  <Name>


>  <Uniprot>
P25440

>  <Target>
BRD2

>  <Smiles>
CNC(=O)C1=NC=C2C(=N1)[NH]C1=CC(C3=C(C)ON=C3C)=C(OC)C=C12

>  <Kd (nM)>


>  <Assay (Kd)>


>  <Ki (nM)>
101/57.3

>  <Assay (Ki)>
FP in BRD2 BD1/2

>  <IC50 (nM)>
218/224

>  <Assay (IC50)>
Displacement of a FAM-labeled fluorescent probe based upon ZBA248 from BRD2 BD1/2 domain by fluorescence polarization based competitive binding affinity assay

>  <EC50 (nM)>


>  <Assay (EC50)>


>  <Article DOI>
10.1021/acs.jmedchem.6b01816

>  <Molecular Weight>
351.366

>  <Exact Mass>
351.1331394

>  <XLogP3>
2.46

>  <Heavy Atom Count>
26

>  <Ring Count>
4

>  <Hydrogen Bond Acceptor Count>
6

>  <Hydrogen Bond Donor Count>
2

>  <Rotatable Bond Count>
3

>  <Topological Polar Surface Area>
105.93

>  <Molecular Formula>
C18H17N5O3

>  <InChI>
InChI=1S/C18H17N5O3/c1-8-15(9(2)26-23-8)11-5-13-10(6-14(11)25-4)12-7-20-17(18(24)19-3)22-16(12)21-13/h5-7H,1-4H3,(H,19,24)(H,20,21,22)

>  <InChI Key>
SMYWDSZXWMKRLF-UHFFFAOYSA-N

>  <BindingDB>
50459820

>  <PubChem>
145988169

>  <ChEMBL>
CHEMBL4228904

$$$$
17
Actelion Java MolfileCreator 2.0

  0  0  0  0  0  0              0 V3000
M  V30 BEGIN CTAB
M  V30 COUNTS 26 29 0 0 0
M  V30 BEGIN ATOM
M  V30 1 O 2.598 0.0 0.0 0
M  V30 2 C 1.732 -0.5 0.0 0
M  V30 3 N 0.866 0.0 0.0 0
M  V30 4 C 1.732 -1.5 0.0 0
M  V30 5 C 0.0 -0.5 0.0 0
M  V30 6 N 0.866 -2.0 0.0 0
M  V30 7 N 2.598 -1.9999 0.0 0
M  V30 8 C 0.866 -3.0 0.0 0
M  V30 9 C 2.598 -2.9999 0.0 0
M  V30 10 N 0.1228 -3.6691 0.0 0
M  V30 11 C 1.732 -3.5 0.0 0
M  V30 12 C 0.5296 -4.5826 0.0 0
M  V30 13 C 1.5241 -4.4781 0.0 0
M  V30 14 C 0.1228 -5.4962 0.0 0
M  V30 15 C 2.1119 -5.2871 0.0 0
M  V30 16 C 0.7106 -6.3052 0.0 0
M  V30 17 C 1.7051 -6.2007 0.0 0
M  V30 18 C 0.3039 -7.2187 0.0 0
M  V30 19 O 2.2929 -7.0097 0.0 0
M  V30 20 C -0.6742 -7.4266 0.0 0
M  V30 21 C 0.8039 -8.0848 0.0 0
M  V30 22 C 3.2874 -6.9051 0.0 0
M  V30 23 O -0.7787 -8.4212 0.0 0
M  V30 24 C -1.4173 -6.7575 0.0 0
M  V30 25 N 0.1347 -8.8279 0.0 0
M  V30 26 C 1.7984 -8.1893 0.0 0
M  V30 END ATOM
M  V30 BEGIN BOND
M  V30 1 2 1 2
M  V30 2 1 2 3
M  V30 3 1 2 4
M  V30 4 1 3 5
M  V30 5 2 4 6
M  V30 6 1 4 7
M  V30 7 1 6 8
M  V30 8 2 7 9
M  V30 9 1 8 10
M  V30 10 2 8 11
M  V30 11 1 10 12
M  V30 12 1 11 13
M  V30 13 1 12 14
M  V30 14 1 13 15
M  V30 15 2 14 16
M  V30 16 2 15 17
M  V30 17 1 16 18
M  V30 18 1 17 19
M  V30 19 2 18 20
M  V30 20 1 18 21
M  V30 21 1 19 22
M  V30 22 1 20 23
M  V30 23 1 20 24
M  V30 24 2 21 25
M  V30 25 1 21 26
M  V30 26 1 9 11
M  V30 27 2 12 13
M  V30 28 1 16 17
M  V30 29 1 23 25
M  V30 END BOND
M  V30 END CTAB
M  END
>  <Molecule Name>
Compound 22

>  <Molecule Name 2>
Compound 22

>  <Compound ID>
17

>  <Name>


>  <Uniprot>
Q15059

>  <Target>
BRD3

>  <Smiles>
CNC(=O)C1=NC=C2C(=N1)[NH]C1=CC(C3=C(C)ON=C3C)=C(OC)C=C12

>  <Kd (nM)>


>  <Assay (Kd)>


>  <Ki (nM)>
82.1/42.4

>  <Assay (Ki)>
FP in BRD3 BD1/2

>  <IC50 (nM)>
294/189

>  <Assay (IC50)>
Displacement of a FAM-labeled fluorescent probe based upon ZBA248 from BRD3 BD1/2 domain by fluorescence polarization based competitive binding affinity assay

>  <EC50 (nM)>


>  <Assay (EC50)>


>  <Article DOI>
10.1021/acs.jmedchem.6b01816

>  <Molecular Weight>
351.366

>  <Exact Mass>
351.1331394

>  <XLogP3>
2.46

>  <Heavy Atom Count>
26

>  <Ring Count>
4

>  <Hydrogen Bond Acceptor Count>
6

>  <Hydrogen Bond Donor Count>
2

>  <Rotatable Bond Count>
3

>  <Topological Polar Surface Area>
105.93

>  <Molecular Formula>
C18H17N5O3

>  <InChI>
InChI=1S/C18H17N5O3/c1-8-15(9(2)26-23-8)11-5-13-10(6-14(11)25-4)12-7-20-17(18(24)19-3)22-16(12)21-13/h5-7H,1-4H3,(H,19,24)(H,20,21,22)

>  <InChI Key>
SMYWDSZXWMKRLF-UHFFFAOYSA-N

>  <BindingDB>
50459820

>  <PubChem>
145988169

>  <ChEMBL>
CHEMBL4228904

$$$$
17
Actelion Java MolfileCreator 2.0

  0  0  0  0  0  0              0 V3000
M  V30 BEGIN CTAB
M  V30 COUNTS 26 29 0 0 0
M  V30 BEGIN ATOM
M  V30 1 O 2.598 0.0 0.0 0
M  V30 2 C 1.732 -0.5 0.0 0
M  V30 3 N 0.866 0.0 0.0 0
M  V30 4 C 1.732 -1.5 0.0 0
M  V30 5 C 0.0 -0.5 0.0 0
M  V30 6 N 0.866 -2.0 0.0 0
M  V30 7 N 2.598 -1.9999 0.0 0
M  V30 8 C 0.866 -3.0 0.0 0
M  V30 9 C 2.598 -2.9999 0.0 0
M  V30 10 N 0.1228 -3.6691 0.0 0
M  V30 11 C 1.732 -3.5 0.0 0
M  V30 12 C 0.5296 -4.5826 0.0 0
M  V30 13 C 1.5241 -4.4781 0.0 0
M  V30 14 C 0.1228 -5.4962 0.0 0
M  V30 15 C 2.1119 -5.2871 0.0 0
M  V30 16 C 0.7106 -6.3052 0.0 0
M  V30 17 C 1.7051 -6.2007 0.0 0
M  V30 18 C 0.3039 -7.2187 0.0 0
M  V30 19 O 2.2929 -7.0097 0.0 0
M  V30 20 C -0.6742 -7.4266 0.0 0
M  V30 21 C 0.8039 -8.0848 0.0 0
M  V30 22 C 3.2874 -6.9051 0.0 0
M  V30 23 O -0.7787 -8.4212 0.0 0
M  V30 24 C -1.4173 -6.7575 0.0 0
M  V30 25 N 0.1347 -8.8279 0.0 0
M  V30 26 C 1.7984 -8.1893 0.0 0
M  V30 END ATOM
M  V30 BEGIN BOND
M  V30 1 2 1 2
M  V30 2 1 2 3
M  V30 3 1 2 4
M  V30 4 1 3 5
M  V30 5 2 4 6
M  V30 6 1 4 7
M  V30 7 1 6 8
M  V30 8 2 7 9
M  V30 9 1 8 10
M  V30 10 2 8 11
M  V30 11 1 10 12
M  V30 12 1 11 13
M  V30 13 1 12 14
M  V30 14 1 13 15
M  V30 15 2 14 16
M  V30 16 2 15 17
M  V30 17 1 16 18
M  V30 18 1 17 19
M  V30 19 2 18 20
M  V30 20 1 18 21
M  V30 21 1 19 22
M  V30 22 1 20 23
M  V30 23 1 20 24
M  V30 24 2 21 25
M  V30 25 1 21 26
M  V30 26 1 9 11
M  V30 27 2 12 13
M  V30 28 1 16 17
M  V30 29 1 23 25
M  V30 END BOND
M  V30 END CTAB
M  END
>  <Molecule Name>
Compound 23

>  <Molecule Name 2>
Compound 23

>  <Compound ID>
17

>  <Name>


>  <Uniprot>
O60885

>  <Target>
BRD4

>  <Smiles>
CNC(=O)C1=NC=C2C(=N1)[NH]C1=CC(C3=C(C)ON=C3C)=C(OC)C=C12

>  <Kd (nM)>


>  <Assay (Kd)>


>  <Ki (nM)>
152/205

>  <Assay (Ki)>
FP in BRD4 BD1/2

>  <IC50 (nM)>
484/630

>  <Assay (IC50)>
Displacement of a FAM-labeled fluorescent probe based upon ZBA248 from BRD4 BD1/2 domain by fluorescence polarization based competitive binding affinity assay

>  <EC50 (nM)>


>  <Assay (EC50)>


>  <Article DOI>
10.1021/acs.jmedchem.6b01816

>  <Molecular Weight>
351.366

>  <Exact Mass>
351.1331394

>  <XLogP3>
2.46

>  <Heavy Atom Count>
26

>  <Ring Count>
4

>  <Hydrogen Bond Acceptor Count>
6

>  <Hydrogen Bond Donor Count>
2

>  <Rotatable Bond Count>
3

>  <Topological Polar Surface Area>
105.93

>  <Molecular Formula>
C18H17N5O3

>  <InChI>
InChI=1S/C18H17N5O3/c1-8-15(9(2)26-23-8)11-5-13-10(6-14(11)25-4)12-7-20-17(18(24)19-3)22-16(12)21-13/h5-7H,1-4H3,(H,19,24)(H,20,21,22)

>  <InChI Key>
SMYWDSZXWMKRLF-UHFFFAOYSA-N

>  <BindingDB>
50459820

>  <PubChem>
145988169

>  <ChEMBL>
CHEMBL4228904

$$$$
18
Actelion Java MolfileCreator 2.0

  0  0  0  0  0  0              0 V3000
M  V30 BEGIN CTAB
M  V30 COUNTS 31 34 0 0 0
M  V30 BEGIN ATOM
M  V30 1 Cl 2.9434 -5.9996 0.0 0
M  V30 2 C 3.2381 -5.044 0.0 0
M  V30 3 C 4.213 -4.8215 0.0 0
M  V30 4 C 2.5579 -4.311 0.0 0
M  V30 5 C 4.5078 -3.866 0.0 0
M  V30 6 C 2.8527 -3.3554 0.0 0
M  V30 7 C 3.8276 -3.1329 0.0 0
M  V30 8 C 4.1224 -2.1773 0.0 0
M  V30 9 N 3.3893 -1.4972 0.0 0
M  V30 10 C 5.1112 -2.0283 0.0 0
M  V30 11 C 3.4641 -0.5 0.0 0 CFG=2
M  V30 12 C 5.6112 -1.1623 0.0 0
M  V30 13 C 5.7803 -2.7714 0.0 0
M  V30 14 C 4.2903 0.0633 0.0 0
M  V30 15 C 2.598 0.0 0.0 0
M  V30 16 S 6.5894 -1.3702 0.0 0
M  V30 17 N 5.2459 -0.2314 0.0 0
M  V30 18 C 6.6939 -2.3647 0.0 0
M  V30 19 C 5.5724 -3.7496 0.0 0
M  V30 20 N 4.2753 1.0632 0.0 0
M  V30 21 C 1.732 -0.5 0.0 0
M  V30 22 C 5.8215 0.5862 0.0 0
M  V30 23 C 7.5599 -2.8647 0.0 0
M  V30 24 N 5.2217 1.3864 0.0 0
M  V30 25 O 1.732 -1.5 0.0 0
M  V30 26 O 0.866 0.0 0.0 0
M  V30 27 C 6.8214 0.6012 0.0 0
M  V30 28 C 0.0 -0.5 0.0 0
M  V30 29 C 0.4999 -1.366 0.0 0
M  V30 30 C -0.866 -0.9999 0.0 0
M  V30 31 C -0.4999 0.366 0.0 0
M  V30 END ATOM
M  V30 BEGIN BOND
M  V30 1 1 1 2
M  V30 2 2 2 3
M  V30 3 1 2 4
M  V30 4 1 3 5
M  V30 5 2 4 6
M  V30 6 2 5 7
M  V30 7 1 7 8
M  V30 8 2 8 9
M  V30 9 1 8 10
M  V30 10 1 11 9
M  V30 11 2 10 12
M  V30 12 1 10 13
M  V30 13 1 11 14
M  V30 14 1 11 15 CFG=1
M  V30 15 1 12 16
M  V30 16 1 12 17
M  V30 17 2 13 18
M  V30 18 1 13 19
M  V30 19 2 14 20
M  V30 20 1 15 21
M  V30 21 1 17 22
M  V30 22 1 18 23
M  V30 23 1 20 24
M  V30 24 2 21 25
M  V30 25 1 21 26
M  V30 26 1 22 27
M  V30 27 1 26 28
M  V30 28 1 28 29
M  V30 29 1 28 30
M  V30 30 1 28 31
M  V30 31 1 6 7
M  V30 32 1 14 17
M  V30 33 1 16 18
M  V30 34 2 22 24
M  V30 END BOND
M  V30 BEGIN COLLECTION
M  V30 MDLV30/STEABS ATOMS=(1 11)
M  V30 END COLLECTION
M  V30 END CTAB
M  END
>  <Molecule Name>
Compound 24

>  <Molecule Name 2>
Compound 24

>  <Compound ID>
18

>  <Name>
JQ1

>  <Uniprot>
P25440

>  <Target>
BRD2

>  <Smiles>
CC1=C(C)C2=C(S1)N1C(C)=NN=C1[C@H](CC(=O)OC(C)(C)C)N=C2C1=CC=C(Cl)C=C1

>  <Kd (nM)>
128.4

>  <Assay (Kd)>
ITC in BRD2 BD1

>  <Ki (nM)>


>  <Assay (Ki)>


>  <IC50 (nM)>


>  <Assay (IC50)>


>  <EC50 (nM)>


>  <Assay (EC50)>


>  <Article DOI>
10.1038/nature09504

>  <Molecular Weight>
456.999

>  <Exact Mass>
456.1386747

>  <XLogP3>
4.85

>  <Heavy Atom Count>
31

>  <Ring Count>
4

>  <Hydrogen Bond Acceptor Count>
7

>  <Hydrogen Bond Donor Count>
0

>  <Rotatable Bond Count>
3

>  <Topological Polar Surface Area>
69.37

>  <Molecular Formula>
C23H25ClN4O2S

>  <InChI>
InChI=1S/C23H25ClN4O2S/c1-12-13(2)31-22-19(12)20(15-7-9-16(24)10-8-15)25-17(11-18(29)30-23(4,5)6)21-27-26-14(3)28(21)22/h7-10,17H,11H2,1-6H3/t17-/m0/s1

>  <InChI Key>
DNVXATUJJDPFDM-KRWDZBQOSA-N

>  <BindingDB>
50365262

>  <PubChem>
46907787

>  <ChEMBL>
CHEMBL1957266

$$$$
18
Actelion Java MolfileCreator 2.0

  0  0  0  0  0  0              0 V3000
M  V30 BEGIN CTAB
M  V30 COUNTS 31 34 0 0 0
M  V30 BEGIN ATOM
M  V30 1 Cl 2.9434 -5.9996 0.0 0
M  V30 2 C 3.2381 -5.044 0.0 0
M  V30 3 C 4.213 -4.8215 0.0 0
M  V30 4 C 2.5579 -4.311 0.0 0
M  V30 5 C 4.5078 -3.866 0.0 0
M  V30 6 C 2.8527 -3.3554 0.0 0
M  V30 7 C 3.8276 -3.1329 0.0 0
M  V30 8 C 4.1224 -2.1773 0.0 0
M  V30 9 N 3.3893 -1.4972 0.0 0
M  V30 10 C 5.1112 -2.0283 0.0 0
M  V30 11 C 3.4641 -0.5 0.0 0 CFG=2
M  V30 12 C 5.6112 -1.1623 0.0 0
M  V30 13 C 5.7803 -2.7714 0.0 0
M  V30 14 C 4.2903 0.0633 0.0 0
M  V30 15 C 2.598 0.0 0.0 0
M  V30 16 S 6.5894 -1.3702 0.0 0
M  V30 17 N 5.2459 -0.2314 0.0 0
M  V30 18 C 6.6939 -2.3647 0.0 0
M  V30 19 C 5.5724 -3.7496 0.0 0
M  V30 20 N 4.2753 1.0632 0.0 0
M  V30 21 C 1.732 -0.5 0.0 0
M  V30 22 C 5.8215 0.5862 0.0 0
M  V30 23 C 7.5599 -2.8647 0.0 0
M  V30 24 N 5.2217 1.3864 0.0 0
M  V30 25 O 1.732 -1.5 0.0 0
M  V30 26 O 0.866 0.0 0.0 0
M  V30 27 C 6.8214 0.6012 0.0 0
M  V30 28 C 0.0 -0.5 0.0 0
M  V30 29 C 0.4999 -1.366 0.0 0
M  V30 30 C -0.866 -0.9999 0.0 0
M  V30 31 C -0.4999 0.366 0.0 0
M  V30 END ATOM
M  V30 BEGIN BOND
M  V30 1 1 1 2
M  V30 2 2 2 3
M  V30 3 1 2 4
M  V30 4 1 3 5
M  V30 5 2 4 6
M  V30 6 2 5 7
M  V30 7 1 7 8
M  V30 8 2 8 9
M  V30 9 1 8 10
M  V30 10 1 11 9
M  V30 11 2 10 12
M  V30 12 1 10 13
M  V30 13 1 11 14
M  V30 14 1 11 15 CFG=1
M  V30 15 1 12 16
M  V30 16 1 12 17
M  V30 17 2 13 18
M  V30 18 1 13 19
M  V30 19 2 14 20
M  V30 20 1 15 21
M  V30 21 1 17 22
M  V30 22 1 18 23
M  V30 23 1 20 24
M  V30 24 2 21 25
M  V30 25 1 21 26
M  V30 26 1 22 27
M  V30 27 1 26 28
M  V30 28 1 28 29
M  V30 29 1 28 30
M  V30 30 1 28 31
M  V30 31 1 6 7
M  V30 32 1 14 17
M  V30 33 1 16 18
M  V30 34 2 22 24
M  V30 END BOND
M  V30 BEGIN COLLECTION
M  V30 MDLV30/STEABS ATOMS=(1 11)
M  V30 END COLLECTION
M  V30 END CTAB
M  END
>  <Molecule Name>
Compound 25

>  <Molecule Name 2>
Compound 25

>  <Compound ID>
18

>  <Name>
JQ1

>  <Uniprot>
Q15059

>  <Target>
BRD3

>  <Smiles>
CC1=C(C)C2=C(S1)N1C(C)=NN=C1[C@H](CC(=O)OC(C)(C)C)N=C2C1=CC=C(Cl)C=C1

>  <Kd (nM)>
59.5/82

>  <Assay (Kd)>
ITC in BRD3 BD1/2

>  <Ki (nM)>


>  <Assay (Ki)>


>  <IC50 (nM)>


>  <Assay (IC50)>


>  <EC50 (nM)>


>  <Assay (EC50)>


>  <Article DOI>
10.1038/nature09504

>  <Molecular Weight>
456.999

>  <Exact Mass>
456.1386747

>  <XLogP3>
4.85

>  <Heavy Atom Count>
31

>  <Ring Count>
4

>  <Hydrogen Bond Acceptor Count>
7

>  <Hydrogen Bond Donor Count>
0

>  <Rotatable Bond Count>
3

>  <Topological Polar Surface Area>
69.37

>  <Molecular Formula>
C23H25ClN4O2S

>  <InChI>
InChI=1S/C23H25ClN4O2S/c1-12-13(2)31-22-19(12)20(15-7-9-16(24)10-8-15)25-17(11-18(29)30-23(4,5)6)21-27-26-14(3)28(21)22/h7-10,17H,11H2,1-6H3/t17-/m0/s1

>  <InChI Key>
DNVXATUJJDPFDM-KRWDZBQOSA-N

>  <BindingDB>
50365262

>  <PubChem>
46907787

>  <ChEMBL>
CHEMBL1957266

$$$$
18
Actelion Java MolfileCreator 2.0

  0  0  0  0  0  0              0 V3000
M  V30 BEGIN CTAB
M  V30 COUNTS 31 34 0 0 0
M  V30 BEGIN ATOM
M  V30 1 Cl 2.9434 -5.9996 0.0 0
M  V30 2 C 3.2381 -5.044 0.0 0
M  V30 3 C 4.213 -4.8215 0.0 0
M  V30 4 C 2.5579 -4.311 0.0 0
M  V30 5 C 4.5078 -3.866 0.0 0
M  V30 6 C 2.8527 -3.3554 0.0 0
M  V30 7 C 3.8276 -3.1329 0.0 0
M  V30 8 C 4.1224 -2.1773 0.0 0
M  V30 9 N 3.3893 -1.4972 0.0 0
M  V30 10 C 5.1112 -2.0283 0.0 0
M  V30 11 C 3.4641 -0.5 0.0 0 CFG=2
M  V30 12 C 5.6112 -1.1623 0.0 0
M  V30 13 C 5.7803 -2.7714 0.0 0
M  V30 14 C 4.2903 0.0633 0.0 0
M  V30 15 C 2.598 0.0 0.0 0
M  V30 16 S 6.5894 -1.3702 0.0 0
M  V30 17 N 5.2459 -0.2314 0.0 0
M  V30 18 C 6.6939 -2.3647 0.0 0
M  V30 19 C 5.5724 -3.7496 0.0 0
M  V30 20 N 4.2753 1.0632 0.0 0
M  V30 21 C 1.732 -0.5 0.0 0
M  V30 22 C 5.8215 0.5862 0.0 0
M  V30 23 C 7.5599 -2.8647 0.0 0
M  V30 24 N 5.2217 1.3864 0.0 0
M  V30 25 O 1.732 -1.5 0.0 0
M  V30 26 O 0.866 0.0 0.0 0
M  V30 27 C 6.8214 0.6012 0.0 0
M  V30 28 C 0.0 -0.5 0.0 0
M  V30 29 C 0.4999 -1.366 0.0 0
M  V30 30 C -0.866 -0.9999 0.0 0
M  V30 31 C -0.4999 0.366 0.0 0
M  V30 END ATOM
M  V30 BEGIN BOND
M  V30 1 1 1 2
M  V30 2 2 2 3
M  V30 3 1 2 4
M  V30 4 1 3 5
M  V30 5 2 4 6
M  V30 6 2 5 7
M  V30 7 1 7 8
M  V30 8 2 8 9
M  V30 9 1 8 10
M  V30 10 1 11 9
M  V30 11 2 10 12
M  V30 12 1 10 13
M  V30 13 1 11 14
M  V30 14 1 11 15 CFG=1
M  V30 15 1 12 16
M  V30 16 1 12 17
M  V30 17 2 13 18
M  V30 18 1 13 19
M  V30 19 2 14 20
M  V30 20 1 15 21
M  V30 21 1 17 22
M  V30 22 1 18 23
M  V30 23 1 20 24
M  V30 24 2 21 25
M  V30 25 1 21 26
M  V30 26 1 22 27
M  V30 27 1 26 28
M  V30 28 1 28 29
M  V30 29 1 28 30
M  V30 30 1 28 31
M  V30 31 1 6 7
M  V30 32 1 14 17
M  V30 33 1 16 18
M  V30 34 2 22 24
M  V30 END BOND
M  V30 BEGIN COLLECTION
M  V30 MDLV30/STEABS ATOMS=(1 11)
M  V30 END COLLECTION
M  V30 END CTAB
M  END
>  <Molecule Name>
Compound 26

>  <Molecule Name 2>
Compound 26

>  <Compound ID>
18

>  <Name>
JQ1

>  <Uniprot>
O60885

>  <Target>
BRD4

>  <Smiles>
CC1=C(C)C2=C(S1)N1C(C)=NN=C1[C@H](CC(=O)OC(C)(C)C)N=C2C1=CC=C(Cl)C=C1

>  <Kd (nM)>
49/90.1

>  <Assay (Kd)>
ITC in BRD4 BD1/2

>  <Ki (nM)>


>  <Assay (Ki)>


>  <IC50 (nM)>


>  <Assay (IC50)>


>  <EC50 (nM)>


>  <Assay (EC50)>


>  <Article DOI>
10.1038/nature09504

>  <Molecular Weight>
456.999

>  <Exact Mass>
456.1386747

>  <XLogP3>
4.85

>  <Heavy Atom Count>
31

>  <Ring Count>
4

>  <Hydrogen Bond Acceptor Count>
7

>  <Hydrogen Bond Donor Count>
0

>  <Rotatable Bond Count>
3

>  <Topological Polar Surface Area>
69.37

>  <Molecular Formula>
C23H25ClN4O2S

>  <InChI>
InChI=1S/C23H25ClN4O2S/c1-12-13(2)31-22-19(12)20(15-7-9-16(24)10-8-15)25-17(11-18(29)30-23(4,5)6)21-27-26-14(3)28(21)22/h7-10,17H,11H2,1-6H3/t17-/m0/s1

>  <InChI Key>
DNVXATUJJDPFDM-KRWDZBQOSA-N

>  <BindingDB>
50365262

>  <PubChem>
46907787

>  <ChEMBL>
CHEMBL1957266

$$$$
19
Actelion Java MolfileCreator 2.0

  0  0  0  0  0  0              0 V3000
M  V30 BEGIN CTAB
M  V30 COUNTS 36 39 0 0 0
M  V30 BEGIN ATOM
M  V30 1 S 4.4346 0.9945 0.0 0
M  V30 2 C 4.3301 0.0 0.0 0
M  V30 3 C 5.4128 1.2024 0.0 0
M  V30 4 N 5.2436 -0.4067 0.0 0
M  V30 5 N 3.4641 -0.5 0.0 0
M  V30 6 C 5.9128 0.3364 0.0 0
M  V30 7 C 5.8195 2.1159 0.0 0
M  V30 8 C 2.598 0.0 0.0 0
M  V30 9 C 5.2317 2.9249 0.0 0
M  V30 10 O 2.598 1.0 0.0 0
M  V30 11 C 1.732 -0.5 0.0 0
M  V30 12 C 5.6384 3.8385 0.0 0
M  V30 13 C 4.2372 2.8204 0.0 0
M  V30 14 S 0.866 0.0 0.0 0
M  V30 15 C 5.0507 4.6475 0.0 0
M  V30 16 C 3.6494 3.6294 0.0 0
M  V30 17 C 0.0 -0.5 0.0 0
M  V30 18 O 5.4574 5.5611 0.0 0
M  V30 19 C 4.0561 4.543 0.0 0
M  V30 20 N -0.866 0.0 0.0 0
M  V30 21 N 0.0 -1.4999 0.0 0
M  V30 22 C 6.4519 5.6656 0.0 0
M  V30 23 C -1.732 -0.4999 0.0 0
M  V30 24 C -0.866 -1.9999 0.0 0
M  V30 25 C 6.8587 6.5791 0.0 0
M  V30 26 C -1.732 -1.4999 0.0 0
M  V30 27 C -2.598 0.0 0.0 0
M  V30 28 C -0.866 -2.9999 0.0 0
M  V30 29 N 7.8368 6.787 0.0 0
M  V30 30 C 6.3587 7.4452 0.0 0
M  V30 31 N 7.9413 7.7816 0.0 0
M  V30 32 N 7.0278 8.1883 0.0 0
M  V30 33 C 6.8199 9.1664 0.0 0
M  V30 34 C 5.8688 9.4755 0.0 0
M  V30 35 O 5.6609 10.4536 0.0 0
M  V30 36 C 4.7098 10.7626 0.0 0
M  V30 END ATOM
M  V30 BEGIN BOND
M  V30 1 1 1 2
M  V30 2 1 1 3
M  V30 3 2 2 4
M  V30 4 1 2 5
M  V30 5 2 3 6
M  V30 6 1 3 7
M  V30 7 1 5 8
M  V30 8 1 7 9
M  V30 9 2 8 10
M  V30 10 1 8 11
M  V30 11 2 9 12
M  V30 12 1 9 13
M  V30 13 1 11 14
M  V30 14 1 12 15
M  V30 15 2 13 16
M  V30 16 1 14 17
M  V30 17 1 15 18
M  V30 18 2 15 19
M  V30 19 2 17 20
M  V30 20 1 17 21
M  V30 21 1 18 22
M  V30 22 1 20 23
M  V30 23 2 21 24
M  V30 24 1 22 25
M  V30 25 2 23 26
M  V30 26 1 23 27
M  V30 27 1 24 28
M  V30 28 1 25 29
M  V30 29 2 25 30
M  V30 30 2 29 31
M  V30 31 1 30 32
M  V30 32 1 32 33
M  V30 33 1 33 34
M  V30 34 1 34 35
M  V30 35 1 35 36
M  V30 36 1 4 6
M  V30 37 1 16 19
M  V30 38 1 24 26
M  V30 39 1 31 32
M  V30 END BOND
M  V30 END CTAB
M  END
>  <Molecule Name>
Compound 27

>  <Molecule Name 2>
Compound 27

>  <Compound ID>
19

>  <Name>


>  <Uniprot>
Q8IXJ6

>  <Target>
SIRT2

>  <Smiles>
COCCN1C=C(COC2=CC=CC(CC3=CN=C(NC(=O)CSC4=NC(C)=CC(C)=N4)S3)=C2)N=N1

>  <Kd (nM)>


>  <Assay (Kd)>


>  <Ki (nM)>


>  <Assay (Ki)>


>  <IC50 (nM)>
12

>  <Assay (IC50)>
IC50 of Sirt2 was assessed by a fluorescence-based deacetylase activity assay

>  <EC50 (nM)>


>  <Assay (EC50)>


>  <Article DOI>
10.1021/acs.jmedchem.6b01872

>  <Molecular Weight>
525.66

>  <Exact Mass>
525.1616797

>  <XLogP3>
3.13

>  <Heavy Atom Count>
36

>  <Ring Count>
4

>  <Hydrogen Bond Acceptor Count>
11

>  <Hydrogen Bond Donor Count>
1

>  <Rotatable Bond Count>
12

>  <Topological Polar Surface Area>
116.94

>  <Molecular Formula>
C24H27N7O3S2

>  <InChI>
InChI=1S/C24H27N7O3S2/c1-16-9-17(2)27-24(26-16)35-15-22(32)28-23-25-12-21(36-23)11-18-5-4-6-20(10-18)34-14-19-13-31(30-29-19)7-8-33-3/h4-6,9-10,12-13H,7-8,11,14-15H2,1-3H3,(H,25,28,32)

>  <InChI Key>
MAUGCLAAQLDMTD-UHFFFAOYSA-N

>  <BindingDB>
50459845

>  <PubChem>
135397680

>  <ChEMBL>
CHEMBL4227437

$$$$
20
Actelion Java MolfileCreator 2.0

  0  0  0  0  0  0              0 V3000
M  V30 BEGIN CTAB
M  V30 COUNTS 29 33 0 0 0
M  V30 BEGIN ATOM
M  V30 1 S 2.8147 -1.7024 0.0 0
M  V30 2 C 3.3147 -0.8364 0.0 0
M  V30 3 C 1.8365 -1.4945 0.0 0
M  V30 4 N 4.3129 -0.7766 0.0 0
M  V30 5 C 2.6455 -0.0932 0.0 0
M  V30 6 C 1.0934 -2.1636 0.0 0
M  V30 7 C 1.732 -0.5 0.0 0
M  V30 8 C 4.8885 0.0411 0.0 0
M  V30 9 C 4.9127 -1.5767 0.0 0
M  V30 10 C 2.8094 0.8932 0.0 0
M  V30 11 C 0.3502 -2.8327 0.0 0
M  V30 12 C 0.866 0.0 0.0 0
M  V30 13 N 5.8441 -0.2536 0.0 0
M  V30 14 C 4.6081 1.0009 0.0 0
M  V30 15 N 5.859 -1.2535 0.0 0
M  V30 16 C 4.618 -2.5323 0.0 0
M  V30 17 O 3.6828 1.3802 0.0 0
M  V30 18 C -0.3928 -3.5019 0.0 0
M  V30 19 C 0.0 -0.5 0.0 0
M  V30 20 C -1.371 -3.294 0.0 0
M  V30 21 C -0.2883 -4.4964 0.0 0
M  V30 22 C -0.866 0.0 0.0 0
M  V30 23 C 0.0 -1.4999 0.0 0
M  V30 24 N -1.871 -4.16 0.0 0
M  V30 25 N -1.2018 -4.9031 0.0 0
M  V30 26 C -1.732 -0.4999 0.0 0
M  V30 27 C -0.866 -1.9999 0.0 0
M  V30 28 C -1.4097 -5.8813 0.0 0
M  V30 29 C -1.732 -1.4999 0.0 0
M  V30 END ATOM
M  V30 BEGIN BOND
M  V30 1 1 1 2
M  V30 2 1 1 3
M  V30 3 1 2 4
M  V30 4 2 2 5
M  V30 5 1 3 6
M  V30 6 2 3 7
M  V30 7 1 4 8
M  V30 8 1 4 9
M  V30 9 1 5 10
M  V30 10 3 6 11
M  V30 11 1 7 12
M  V30 12 2 8 13
M  V30 13 1 8 14
M  V30 14 2 9 15
M  V30 15 1 9 16
M  V30 16 1 10 17
M  V30 17 1 11 18
M  V30 18 1 12 19
M  V30 19 1 18 20
M  V30 20 2 18 21
M  V30 21 2 19 22
M  V30 22 1 19 23
M  V30 23 2 20 24
M  V30 24 1 21 25
M  V30 25 1 22 26
M  V30 26 2 23 27
M  V30 27 1 25 28
M  V30 28 2 26 29
M  V30 29 1 5 7
M  V30 30 1 13 15
M  V30 31 1 14 17
M  V30 32 1 24 25
M  V30 33 1 27 29
M  V30 END BOND
M  V30 END CTAB
M  END
>  <Molecule Name>
Compound 28

>  <Molecule Name 2>
Compound 28

>  <Compound ID>
20

>  <Name>
QCA276

>  <Uniprot>
P25440

>  <Target>
BRD2

>  <Smiles>
CC1=NN=C2COCC3=C(SC(C#CC4=CN(C)N=C4)=C3CC3=CC=CC=C3)N12

>  <Kd (nM)>


>  <Assay (Kd)>


>  <Ki (nM)>
1.7/8.5

>  <Assay (Ki)>
FP in BRD2 BD1/2

>  <IC50 (nM)>
3.5/40.6

>  <Assay (IC50)>
Displacement of a FAM-labeled fluorescent probe based upon ZBA248 from BRD2 BD1/2 domain by fluorescence polarization based competitive binding affinity assay

>  <EC50 (nM)>


>  <Assay (EC50)>


>  <Article DOI>
10.1021/acs.jmedchem.8b00506

>  <Molecular Weight>
401.495

>  <Exact Mass>
401.1310312

>  <XLogP3>
3.05

>  <Heavy Atom Count>
29

>  <Ring Count>
5

>  <Hydrogen Bond Acceptor Count>
7

>  <Hydrogen Bond Donor Count>
0

>  <Rotatable Bond Count>
2

>  <Topological Polar Surface Area>
57.76

>  <Molecular Formula>
C22H19N5OS

>  <InChI>
InChI=1S/C22H19N5OS/c1-15-24-25-21-14-28-13-19-18(10-16-6-4-3-5-7-16)20(29-22(19)27(15)21)9-8-17-11-23-26(2)12-17/h3-7,11-12H,10,13-14H2,1-2H3

>  <InChI Key>
RPBWYZZANXCAJX-UHFFFAOYSA-N

>  <BindingDB>


>  <PubChem>
130345579

>  <ChEMBL>


$$$$
20
Actelion Java MolfileCreator 2.0

  0  0  0  0  0  0              0 V3000
M  V30 BEGIN CTAB
M  V30 COUNTS 29 33 0 0 0
M  V30 BEGIN ATOM
M  V30 1 S 2.8147 -1.7024 0.0 0
M  V30 2 C 3.3147 -0.8364 0.0 0
M  V30 3 C 1.8365 -1.4945 0.0 0
M  V30 4 N 4.3129 -0.7766 0.0 0
M  V30 5 C 2.6455 -0.0932 0.0 0
M  V30 6 C 1.0934 -2.1636 0.0 0
M  V30 7 C 1.732 -0.5 0.0 0
M  V30 8 C 4.8885 0.0411 0.0 0
M  V30 9 C 4.9127 -1.5767 0.0 0
M  V30 10 C 2.8094 0.8932 0.0 0
M  V30 11 C 0.3502 -2.8327 0.0 0
M  V30 12 C 0.866 0.0 0.0 0
M  V30 13 N 5.8441 -0.2536 0.0 0
M  V30 14 C 4.6081 1.0009 0.0 0
M  V30 15 N 5.859 -1.2535 0.0 0
M  V30 16 C 4.618 -2.5323 0.0 0
M  V30 17 O 3.6828 1.3802 0.0 0
M  V30 18 C -0.3928 -3.5019 0.0 0
M  V30 19 C 0.0 -0.5 0.0 0
M  V30 20 C -1.371 -3.294 0.0 0
M  V30 21 C -0.2883 -4.4964 0.0 0
M  V30 22 C -0.866 0.0 0.0 0
M  V30 23 C 0.0 -1.4999 0.0 0
M  V30 24 N -1.871 -4.16 0.0 0
M  V30 25 N -1.2018 -4.9031 0.0 0
M  V30 26 C -1.732 -0.4999 0.0 0
M  V30 27 C -0.866 -1.9999 0.0 0
M  V30 28 C -1.4097 -5.8813 0.0 0
M  V30 29 C -1.732 -1.4999 0.0 0
M  V30 END ATOM
M  V30 BEGIN BOND
M  V30 1 1 1 2
M  V30 2 1 1 3
M  V30 3 1 2 4
M  V30 4 2 2 5
M  V30 5 1 3 6
M  V30 6 2 3 7
M  V30 7 1 4 8
M  V30 8 1 4 9
M  V30 9 1 5 10
M  V30 10 3 6 11
M  V30 11 1 7 12
M  V30 12 2 8 13
M  V30 13 1 8 14
M  V30 14 2 9 15
M  V30 15 1 9 16
M  V30 16 1 10 17
M  V30 17 1 11 18
M  V30 18 1 12 19
M  V30 19 1 18 20
M  V30 20 2 18 21
M  V30 21 2 19 22
M  V30 22 1 19 23
M  V30 23 2 20 24
M  V30 24 1 21 25
M  V30 25 1 22 26
M  V30 26 2 23 27
M  V30 27 1 25 28
M  V30 28 2 26 29
M  V30 29 1 5 7
M  V30 30 1 13 15
M  V30 31 1 14 17
M  V30 32 1 24 25
M  V30 33 1 27 29
M  V30 END BOND
M  V30 END CTAB
M  END
>  <Molecule Name>
Compound 29

>  <Molecule Name 2>
Compound 29

>  <Compound ID>
20

>  <Name>
QCA276

>  <Uniprot>
Q15059

>  <Target>
BRD3

>  <Smiles>
CC1=NN=C2COCC3=C(SC(C#CC4=CN(C)N=C4)=C3CC3=CC=CC=C3)N12

>  <Kd (nM)>


>  <Assay (Kd)>


>  <Ki (nM)>
2.5/6.5

>  <Assay (Ki)>
FP in BRD3 BD1/2

>  <IC50 (nM)>
16.4/35.1

>  <Assay (IC50)>
Displacement of a FAM-labeled fluorescent probe based upon ZBA248 from BRD3 BD1/2 domain by fluorescence polarization based competitive binding affinity assay

>  <EC50 (nM)>


>  <Assay (EC50)>


>  <Article DOI>
10.1021/acs.jmedchem.8b00506

>  <Molecular Weight>
401.495

>  <Exact Mass>
401.1310312

>  <XLogP3>
3.05

>  <Heavy Atom Count>
29

>  <Ring Count>
5

>  <Hydrogen Bond Acceptor Count>
7

>  <Hydrogen Bond Donor Count>
0

>  <Rotatable Bond Count>
2

>  <Topological Polar Surface Area>
57.76

>  <Molecular Formula>
C22H19N5OS

>  <InChI>
InChI=1S/C22H19N5OS/c1-15-24-25-21-14-28-13-19-18(10-16-6-4-3-5-7-16)20(29-22(19)27(15)21)9-8-17-11-23-26(2)12-17/h3-7,11-12H,10,13-14H2,1-2H3

>  <InChI Key>
RPBWYZZANXCAJX-UHFFFAOYSA-N

>  <BindingDB>


>  <PubChem>
130345579

>  <ChEMBL>


$$$$
20
Actelion Java MolfileCreator 2.0

  0  0  0  0  0  0              0 V3000
M  V30 BEGIN CTAB
M  V30 COUNTS 29 33 0 0 0
M  V30 BEGIN ATOM
M  V30 1 S 2.8147 -1.7024 0.0 0
M  V30 2 C 3.3147 -0.8364 0.0 0
M  V30 3 C 1.8365 -1.4945 0.0 0
M  V30 4 N 4.3129 -0.7766 0.0 0
M  V30 5 C 2.6455 -0.0932 0.0 0
M  V30 6 C 1.0934 -2.1636 0.0 0
M  V30 7 C 1.732 -0.5 0.0 0
M  V30 8 C 4.8885 0.0411 0.0 0
M  V30 9 C 4.9127 -1.5767 0.0 0
M  V30 10 C 2.8094 0.8932 0.0 0
M  V30 11 C 0.3502 -2.8327 0.0 0
M  V30 12 C 0.866 0.0 0.0 0
M  V30 13 N 5.8441 -0.2536 0.0 0
M  V30 14 C 4.6081 1.0009 0.0 0
M  V30 15 N 5.859 -1.2535 0.0 0
M  V30 16 C 4.618 -2.5323 0.0 0
M  V30 17 O 3.6828 1.3802 0.0 0
M  V30 18 C -0.3928 -3.5019 0.0 0
M  V30 19 C 0.0 -0.5 0.0 0
M  V30 20 C -1.371 -3.294 0.0 0
M  V30 21 C -0.2883 -4.4964 0.0 0
M  V30 22 C -0.866 0.0 0.0 0
M  V30 23 C 0.0 -1.4999 0.0 0
M  V30 24 N -1.871 -4.16 0.0 0
M  V30 25 N -1.2018 -4.9031 0.0 0
M  V30 26 C -1.732 -0.4999 0.0 0
M  V30 27 C -0.866 -1.9999 0.0 0
M  V30 28 C -1.4097 -5.8813 0.0 0
M  V30 29 C -1.732 -1.4999 0.0 0
M  V30 END ATOM
M  V30 BEGIN BOND
M  V30 1 1 1 2
M  V30 2 1 1 3
M  V30 3 1 2 4
M  V30 4 2 2 5
M  V30 5 1 3 6
M  V30 6 2 3 7
M  V30 7 1 4 8
M  V30 8 1 4 9
M  V30 9 1 5 10
M  V30 10 3 6 11
M  V30 11 1 7 12
M  V30 12 2 8 13
M  V30 13 1 8 14
M  V30 14 2 9 15
M  V30 15 1 9 16
M  V30 16 1 10 17
M  V30 17 1 11 18
M  V30 18 1 12 19
M  V30 19 1 18 20
M  V30 20 2 18 21
M  V30 21 2 19 22
M  V30 22 1 19 23
M  V30 23 2 20 24
M  V30 24 1 21 25
M  V30 25 1 22 26
M  V30 26 2 23 27
M  V30 27 1 25 28
M  V30 28 2 26 29
M  V30 29 1 5 7
M  V30 30 1 13 15
M  V30 31 1 14 17
M  V30 32 1 24 25
M  V30 33 1 27 29
M  V30 END BOND
M  V30 END CTAB
M  END
>  <Molecule Name>
Compound 30

>  <Molecule Name 2>
Compound 30

>  <Compound ID>
20

>  <Name>
QCA276

>  <Uniprot>
O60885

>  <Target>
BRD4

>  <Smiles>
CC1=NN=C2COCC3=C(SC(C#CC4=CN(C)N=C4)=C3CC3=CC=CC=C3)N12

>  <Kd (nM)>


>  <Assay (Kd)>


>  <Ki (nM)>
2.3/18.5

>  <Assay (Ki)>
FP in BRD4 BD1/2

>  <IC50 (nM)>
10.7/66.6

>  <Assay (IC50)>
Displacement of a FAM-labeled fluorescent probe based upon ZBA248 from BRD4 BD1/2 domain by fluorescence polarization based competitive binding affinity assay

>  <EC50 (nM)>


>  <Assay (EC50)>


>  <Article DOI>
10.1021/acs.jmedchem.8b00506

>  <Molecular Weight>
401.495

>  <Exact Mass>
401.1310312

>  <XLogP3>
3.05

>  <Heavy Atom Count>
29

>  <Ring Count>
5

>  <Hydrogen Bond Acceptor Count>
7

>  <Hydrogen Bond Donor Count>
0

>  <Rotatable Bond Count>
2

>  <Topological Polar Surface Area>
57.76

>  <Molecular Formula>
C22H19N5OS

>  <InChI>
InChI=1S/C22H19N5OS/c1-15-24-25-21-14-28-13-19-18(10-16-6-4-3-5-7-16)20(29-22(19)27(15)21)9-8-17-11-23-26(2)12-17/h3-7,11-12H,10,13-14H2,1-2H3

>  <InChI Key>
RPBWYZZANXCAJX-UHFFFAOYSA-N

>  <BindingDB>


>  <PubChem>
130345579

>  <ChEMBL>


$$$$
21
Actelion Java MolfileCreator 2.0

  0  0  0  0  0  0              0 V3000
M  V30 BEGIN CTAB
M  V30 COUNTS 24 27 0 0 0
M  V30 BEGIN ATOM
M  V30 1 O 1.732 -0.5 0.0 0
M  V30 2 C 0.866 0.0 0.0 0
M  V30 3 N 0.866 1.0 0.0 0
M  V30 4 C 0.0 -0.5 0.0 0
M  V30 5 C -0.866 0.0 0.0 0
M  V30 6 C 0.0 -1.4999 0.0 0
M  V30 7 N -1.0739 0.9781 0.0 0
M  V30 8 C -1.732 -0.4999 0.0 0
M  V30 9 C -0.866 -1.9999 0.0 0
M  V30 10 N -2.0684 1.0826 0.0 0
M  V30 11 C -1.732 -1.4999 0.0 0
M  V30 12 C -2.4751 0.1691 0.0 0
M  V30 13 C -2.5684 1.9487 0.0 0
M  V30 14 C -2.0684 2.8147 0.0 0
M  V30 15 C -3.5684 1.9487 0.0 0
M  V30 16 C -2.5684 3.6807 0.0 0
M  V30 17 C -4.0684 2.8147 0.0 0
M  V30 18 C -3.5684 3.6807 0.0 0
M  V30 19 C -4.0684 4.5467 0.0 0 CFG=1
M  V30 20 C -3.5684 5.4128 0.0 0
M  V30 21 C -5.0684 4.5467 0.0 0
M  V30 22 N -4.0684 6.2788 0.0 0
M  V30 23 C -5.5684 5.4128 0.0 0
M  V30 24 C -5.0684 6.2788 0.0 0
M  V30 END ATOM
M  V30 BEGIN BOND
M  V30 1 2 1 2
M  V30 2 1 2 3
M  V30 3 1 2 4
M  V30 4 1 4 5
M  V30 5 2 4 6
M  V30 6 2 5 7
M  V30 7 1 5 8
M  V30 8 1 6 9
M  V30 9 1 7 10
M  V30 10 1 8 11
M  V30 11 2 8 12
M  V30 12 1 10 13
M  V30 13 2 13 14
M  V30 14 1 13 15
M  V30 15 1 14 16
M  V30 16 2 15 17
M  V30 17 2 16 18
M  V30 18 1 19 18 CFG=3
M  V30 19 1 19 20
M  V30 20 1 19 21
M  V30 21 1 20 22
M  V30 22 1 21 23
M  V30 23 1 22 24
M  V30 24 2 9 11
M  V30 25 1 10 12
M  V30 26 1 17 18
M  V30 27 1 23 24
M  V30 END BOND
M  V30 BEGIN COLLECTION
M  V30 MDLV30/STEABS ATOMS=(1 19)
M  V30 END COLLECTION
M  V30 END CTAB
M  END
>  <Molecule Name>
Compound 31

>  <Molecule Name 2>
Compound 31

>  <Compound ID>
21

>  <Name>
NIRAPARIB

>  <Uniprot>
P09874

>  <Target>
PARP1

>  <Smiles>
NC(=O)C1=CC=CC2=CN(C3=CC=C([C@@H]4CCCNC4)C=C3)N=C12

>  <Kd (nM)>


>  <Assay (Kd)>


>  <Ki (nM)>


>  <Assay (Ki)>


>  <IC50 (nM)>
3.2

>  <Assay (IC50)>
IC50 of human PARP1 was assessed by SPA

>  <EC50 (nM)>


>  <Assay (EC50)>


>  <Article DOI>
10.1021/jm901188v

>  <Molecular Weight>
320.396

>  <Exact Mass>
320.1637113

>  <XLogP3>
2.22

>  <Heavy Atom Count>
24

>  <Ring Count>
4

>  <Hydrogen Bond Acceptor Count>
4

>  <Hydrogen Bond Donor Count>
2

>  <Rotatable Bond Count>
3

>  <Topological Polar Surface Area>
72.94

>  <Molecular Formula>
C19H20N4O

>  <InChI>
InChI=1S/C19H20N4O/c20-19(24)17-5-1-3-15-12-23(22-18(15)17)16-8-6-13(7-9-16)14-4-2-10-21-11-14/h1,3,5-9,12,14,21H,2,4,10-11H2,(H2,20,24)/t14-/m1/s1

>  <InChI Key>
PCHKPVIQAHNQLW-CQSZACIVSA-N

>  <BindingDB>
50316226

>  <PubChem>
24958200

>  <ChEMBL>
CHEMBL1094636

$$$$
22
Actelion Java MolfileCreator 2.0

  0  0  0  0  0  0              0 V3000
M  V30 BEGIN CTAB
M  V30 COUNTS 32 36 0 0 0
M  V30 BEGIN ATOM
M  V30 1 F 2.598 1.0 0.0 0
M  V30 2 C 2.598 0.0 0.0 0
M  V30 3 C 1.732 -0.5 0.0 0
M  V30 4 C 3.4641 -0.4999 0.0 0
M  V30 5 C 0.866 0.0 0.0 0
M  V30 6 C 1.732 -1.5 0.0 0
M  V30 7 C 3.4641 -1.4999 0.0 0
M  V30 8 O 0.866 1.0 0.0 0
M  V30 9 N 0.0 -0.5 0.0 0
M  V30 10 C 2.598 -1.9999 0.0 0
M  V30 11 C -0.866 0.0 0.0 0
M  V30 12 C 0.0 -1.4999 0.0 0
M  V30 13 C 2.598 -2.9999 0.0 0
M  V30 14 C -1.732 -0.4999 0.0 0
M  V30 15 C -0.866 -1.9999 0.0 0
M  V30 16 C 3.4641 -3.4999 0.0 0
M  V30 17 N -1.732 -1.4999 0.0 0
M  V30 18 N 3.4641 -4.4999 0.0 0
M  V30 19 C 4.3301 -2.9999 0.0 0
M  V30 20 C -2.598 -1.9999 0.0 0
M  V30 21 N 4.3301 -4.9999 0.0 0
M  V30 22 C 5.1961 -3.4999 0.0 0
M  V30 23 C 4.3301 -1.9999 0.0 0
M  V30 24 O -3.4641 -1.4999 0.0 0
M  V30 25 C -2.598 -2.9999 0.0 0
M  V30 26 C 5.1961 -4.4999 0.0 0
M  V30 27 C 6.0621 -2.9999 0.0 0
M  V30 28 C 5.1961 -1.4999 0.0 0
M  V30 29 C -3.098 -3.866 0.0 0
M  V30 30 C -2.098 -3.866 0.0 0
M  V30 31 O 6.0621 -4.9999 0.0 0
M  V30 32 C 6.0621 -1.9999 0.0 0
M  V30 END ATOM
M  V30 BEGIN BOND
M  V30 1 1 1 2
M  V30 2 2 2 3
M  V30 3 1 2 4
M  V30 4 1 3 5
M  V30 5 1 3 6
M  V30 6 2 4 7
M  V30 7 2 5 8
M  V30 8 1 5 9
M  V30 9 2 6 10
M  V30 10 1 9 11
M  V30 11 1 9 12
M  V30 12 1 10 13
M  V30 13 1 11 14
M  V30 14 1 12 15
M  V30 15 1 13 16
M  V30 16 1 14 17
M  V30 17 2 16 18
M  V30 18 1 16 19
M  V30 19 1 17 20
M  V30 20 1 18 21
M  V30 21 2 19 22
M  V30 22 1 19 23
M  V30 23 2 20 24
M  V30 24 1 20 25
M  V30 25 1 21 26
M  V30 26 1 22 27
M  V30 27 2 23 28
M  V30 28 1 25 29
M  V30 29 1 25 30
M  V30 30 2 26 31
M  V30 31 2 27 32
M  V30 32 1 7 10
M  V30 33 1 15 17
M  V30 34 1 22 26
M  V30 35 1 28 32
M  V30 36 1 29 30
M  V30 END BOND
M  V30 END CTAB
M  END
>  <Molecule Name>
Compound 32

>  <Molecule Name 2>
Compound 32

>  <Compound ID>
22

>  <Name>
Olaparib

>  <Uniprot>
P09874

>  <Target>
PARP1

>  <Smiles>
O=C(C1=CC(CC2=N[NH]C(=O)C3=CC=CC=C23)=CC=C1F)N1CCN(C(=O)C2CC2)CC1

>  <Kd (nM)>


>  <Assay (Kd)>


>  <Ki (nM)>


>  <Assay (Ki)>


>  <IC50 (nM)>
4.1

>  <Assay (IC50)>
IC50 of human recombinant PARP1 was assessed by ELISA

>  <EC50 (nM)>


>  <Assay (EC50)>


>  <Article DOI>
10.1021/jm301825t

>  <Molecular Weight>
434.471

>  <Exact Mass>
434.1754188

>  <XLogP3>
1.9

>  <Heavy Atom Count>
32

>  <Ring Count>
5

>  <Hydrogen Bond Acceptor Count>
4

>  <Hydrogen Bond Donor Count>
1

>  <Rotatable Bond Count>
4

>  <Topological Polar Surface Area>
86.37

>  <Molecular Formula>
C24H23FN4O3

>  <InChI>
InChI=1S/C24H23FN4O3/c25-20-8-5-15(14-21-17-3-1-2-4-18(17)22(30)27-26-21)13-19(20)24(32)29-11-9-28(10-12-29)23(31)16-6-7-16/h1-5,8,13,16H,6-7,9-12,14H2,(H,27,30)

>  <InChI Key>
FDLYAMZZIXQODN-UHFFFAOYSA-N

>  <BindingDB>
27566

>  <PubChem>
23725625

>  <ChEMBL>
CHEMBL521686

$$$$
23
Actelion Java MolfileCreator 2.0

  0  0  0  0  0  0              0 V3000
M  V30 BEGIN CTAB
M  V30 COUNTS 20 22 0 0 0
M  V30 BEGIN ATOM
M  V30 1 O 1.732 -1.5 0.0 0
M  V30 2 C 1.732 -0.5 0.0 0
M  V30 3 N 2.598 0.0 0.0 0
M  V30 4 C 0.866 0.0 0.0 0 CFG=1
M  V30 5 C 2.598 0.9999 0.0 0
M  V30 6 N 0.0 -0.5 0.0 0
M  V30 7 C 0.866 1.0 0.0 0
M  V30 8 O 3.4641 1.4999 0.0 0
M  V30 9 C 1.732 1.4999 0.0 0
M  V30 10 C -0.9135 -0.0932 0.0 0
M  V30 11 C -0.1045 -1.4945 0.0 0
M  V30 12 O -1.1214 0.8848 0.0 0
M  V30 13 C -1.5826 -0.8364 0.0 0
M  V30 14 O 0.6386 -2.1636 0.0 0
M  V30 15 C -1.0826 -1.7024 0.0 0
M  V30 16 C -2.5826 -0.8364 0.0 0
M  V30 17 C -1.5826 -2.5684 0.0 0
M  V30 18 N -3.0826 0.0296 0.0 0
M  V30 19 C -3.0826 -1.7024 0.0 0
M  V30 20 C -2.5826 -2.5684 0.0 0
M  V30 END ATOM
M  V30 BEGIN BOND
M  V30 1 2 1 2
M  V30 2 1 2 3
M  V30 3 1 4 2
M  V30 4 1 3 5
M  V30 5 1 4 6 CFG=1
M  V30 6 1 4 7
M  V30 7 2 5 8
M  V30 8 1 5 9
M  V30 9 1 6 10
M  V30 10 1 6 11
M  V30 11 2 10 12
M  V30 12 1 10 13
M  V30 13 2 11 14
M  V30 14 1 11 15
M  V30 15 1 13 16
M  V30 16 1 15 17
M  V30 17 1 16 18
M  V30 18 2 16 19
M  V30 19 2 17 20
M  V30 20 1 7 9
M  V30 21 2 13 15
M  V30 22 1 19 20
M  V30 END BOND
M  V30 BEGIN COLLECTION
M  V30 MDLV30/STERAC1 ATOMS=(1 4)
M  V30 END COLLECTION
M  V30 END CTAB
M  END
>  <Molecule Name>
Compound 33

>  <Molecule Name 2>
Compound 33

>  <Compound ID>
23

>  <Name>
pomalidomide

>  <Uniprot>
Q96SW2

>  <Target>
CRBN

>  <Smiles>
NC1=CC=CC2=C1C(=O)N(C1CCC(=O)NC1=O)C2=O

>  <Kd (nM)>
157

>  <Assay (Kd)>
FP

>  <Ki (nM)>


>  <Assay (Ki)>


>  <IC50 (nM)>


>  <Assay (IC50)>


>  <EC50 (nM)>


>  <Assay (EC50)>


>  <Article DOI>
10.1038/nature13527

>  <Molecular Weight>
273.248

>  <Exact Mass>
273.0749558

>  <XLogP3>
0.2

>  <Heavy Atom Count>
20

>  <Ring Count>
3

>  <Hydrogen Bond Acceptor Count>
5

>  <Hydrogen Bond Donor Count>
2

>  <Rotatable Bond Count>
1

>  <Topological Polar Surface Area>
109.57

>  <Molecular Formula>
C13H11N3O4

>  <InChI>
InChI=1S/C13H11N3O4/c14-7-3-1-2-6-10(7)13(20)16(12(6)19)8-4-5-9(17)15-11(8)18/h1-3,8H,4-5,14H2,(H,15,17,18)

>  <InChI Key>
UVSMNLNDYGZFPF-UHFFFAOYSA-N

>  <BindingDB>
65456

>  <PubChem>
134780

>  <ChEMBL>
CHEMBL43452

$$$$
24
Actelion Java MolfileCreator 2.0

  0  0  0  0  0  0              0 V3000
M  V30 BEGIN CTAB
M  V30 COUNTS 29 33 0 0 0
M  V30 BEGIN ATOM
M  V30 1 O 0.866 0.0 0.0 0
M  V30 2 C 1.732 -0.5 0.0 0
M  V30 3 C 0.0 -0.5 0.0 0
M  V30 4 C 1.732 -1.5 0.0 0
M  V30 5 C 2.598 0.0 0.0 0
M  V30 6 C -0.866 0.0 0.0 0
M  V30 7 C 0.0 -1.4999 0.0 0
M  V30 8 C 2.598 -2.0 0.0 0
M  V30 9 C 3.4641 -0.5 0.0 0
M  V30 10 C -1.732 -0.4999 0.0 0
M  V30 11 C -0.866 -1.9999 0.0 0
M  V30 12 C 3.4641 -1.5 0.0 0
M  V30 13 C -1.732 -1.4999 0.0 0
M  V30 14 C 4.3301 -2.0 0.0 0
M  V30 15 N 4.4346 -2.9945 0.0 0
M  V30 16 C 5.2436 -1.5932 0.0 0
M  V30 17 N 5.4128 -3.2024 0.0 0
M  V30 18 C 5.5526 -0.6422 0.0 0
M  V30 19 C 5.9128 -2.3364 0.0 0
M  V30 20 C 5.8195 -4.1159 0.0 0
M  V30 21 N 6.5308 -0.4342 0.0 0
M  V30 22 N 4.8835 0.1009 0.0 0
M  V30 23 N 6.8909 -2.1284 0.0 0
M  V30 24 C 5.2317 -4.9249 0.0 0
M  V30 25 C 6.814 -4.2205 0.0 0
M  V30 26 C 7.1999 -1.1774 0.0 0
M  V30 27 C 5.6384 -5.8385 0.0 0
M  V30 28 C 7.2207 -5.134 0.0 0
M  V30 29 N 6.633 -5.943 0.0 0
M  V30 END ATOM
M  V30 BEGIN BOND
M  V30 1 1 1 2
M  V30 2 1 1 3
M  V30 3 2 2 4
M  V30 4 1 2 5
M  V30 5 2 3 6
M  V30 6 1 3 7
M  V30 7 1 4 8
M  V30 8 2 5 9
M  V30 9 1 6 10
M  V30 10 2 7 11
M  V30 11 2 8 12
M  V30 12 2 10 13
M  V30 13 1 12 14
M  V30 14 2 14 15
M  V30 15 1 14 16
M  V30 16 1 15 17
M  V30 17 2 16 18
M  V30 18 1 16 19
M  V30 19 1 17 20
M  V30 20 1 18 21
M  V30 21 1 18 22
M  V30 22 2 19 23
M  V30 23 1 20 24
M  V30 24 1 20 25
M  V30 25 2 21 26
M  V30 26 1 24 27
M  V30 27 1 25 28
M  V30 28 1 27 29
M  V30 29 1 9 12
M  V30 30 1 11 13
M  V30 31 1 17 19
M  V30 32 1 23 26
M  V30 33 1 28 29
M  V30 END BOND
M  V30 END CTAB
M  END
>  <Molecule Name>
Compound 34

>  <Molecule Name 2>
Compound 34

>  <Compound ID>
24

>  <Name>


>  <Uniprot>
Q06187

>  <Target>
BTK

>  <Smiles>
NC1=NC=NC2=C1C(C1=CC=C(OC3=CC=CC=C3)C=C1)=NN2C1CCNCC1

>  <Kd (nM)>


>  <Assay (Kd)>


>  <Ki (nM)>


>  <Assay (Ki)>


>  <IC50 (nM)>
51/30.7

>  <Assay (IC50)>
IC50 of WT/C481S BTK

>  <EC50 (nM)>


>  <Assay (EC50)>


>  <Article DOI>
10.1021/acs.biochem.8b00391

>  <Molecular Weight>
386.459

>  <Exact Mass>
386.1855093

>  <XLogP3>
3.06

>  <Heavy Atom Count>
29

>  <Ring Count>
5

>  <Hydrogen Bond Acceptor Count>
7

>  <Hydrogen Bond Donor Count>
2

>  <Rotatable Bond Count>
4

>  <Topological Polar Surface Area>
90.88

>  <Molecular Formula>
C22H22N6O

>  <InChI>
InChI=1S/C22H22N6O/c23-21-19-20(15-6-8-18(9-7-15)29-17-4-2-1-3-5-17)27-28(22(19)26-14-25-21)16-10-12-24-13-11-16/h1-9,14,16,24H,10-13H2,(H2,23,25,26)

>  <InChI Key>
LGWZZMCTBPCKHR-UHFFFAOYSA-N

>  <BindingDB>


>  <PubChem>
22347262

>  <ChEMBL>


$$$$
25
Actelion Java MolfileCreator 2.0

  0  0  0  0  0  0              0 V3000
M  V30 BEGIN CTAB
M  V30 COUNTS 31 32 0 0 0
M  V30 BEGIN ATOM
M  V30 1 F 10.5932 -4.5 0.0 0
M  V30 2 C 9.0932 -4.5 0.0 0
M  V30 3 F 9.0932 -6.0 0.0 0
M  V30 4 F 7.5932 -4.5 0.0 0
M  V30 5 C 9.0932 -3.0 0.0 0
M  V30 6 C 10.3923 -2.25 0.0 0
M  V30 7 C 7.7942 -2.25 0.0 0
M  V30 8 N 11.6913 -3.0 0.0 0 CHG=1
M  V30 9 C 10.3923 -0.75 0.0 0
M  V30 10 C 7.7942 -0.75 0.0 0
M  V30 11 O 11.6913 -4.5 0.0 0
M  V30 12 O 12.9903 -2.25 0.0 0 CHG=-1
M  V30 13 C 9.0932 0.0 0.0 0
M  V30 14 N 6.4951 0.0 0.0 0
M  V30 15 C 5.1961 -0.75 0.0 0
M  V30 16 O 5.1961 -2.25 0.0 0
M  V30 17 C 3.8971 0.0 0.0 0 CFG=1
M  V30 18 O 4.6471 1.299 0.0 0
M  V30 19 C 2.598 -0.75 0.0 0
M  V30 20 C 3.1471 1.299 0.0 0
M  V30 21 O 1.299 0.0 0.0 0
M  V30 22 C 0.0 -0.75 0.0 0
M  V30 23 C -1.299 0.0 0.0 0
M  V30 24 C 0.0 -2.25 0.0 0
M  V30 25 C -2.598 -0.75 0.0 0
M  V30 26 C -1.299 -3.0 0.0 0
M  V30 27 C -2.598 -2.25 0.0 0
M  V30 28 N -3.8971 -3.0 0.0 0
M  V30 29 C -5.1961 -2.25 0.0 0
M  V30 30 O -5.1961 -0.75 0.0 0
M  V30 31 C -6.4951 -3.0 0.0 0
M  V30 END ATOM
M  V30 BEGIN BOND
M  V30 1 1 1 2
M  V30 2 1 2 3
M  V30 3 1 2 4
M  V30 4 1 2 5
M  V30 5 2 5 6
M  V30 6 1 5 7
M  V30 7 1 6 8
M  V30 8 1 6 9
M  V30 9 2 7 10
M  V30 10 2 8 11
M  V30 11 1 8 12
M  V30 12 2 9 13
M  V30 13 1 10 14
M  V30 14 1 14 15
M  V30 15 2 15 16
M  V30 16 1 17 15
M  V30 17 1 17 18 CFG=3
M  V30 18 1 17 19
M  V30 19 1 17 20
M  V30 20 1 19 21
M  V30 21 1 21 22
M  V30 22 2 22 23
M  V30 23 1 22 24
M  V30 24 1 23 25
M  V30 25 2 24 26
M  V30 26 2 25 27
M  V30 27 1 27 28
M  V30 28 1 28 29
M  V30 29 2 29 30
M  V30 30 1 29 31
M  V30 31 1 10 13
M  V30 32 1 26 27
M  V30 END BOND
M  V30 BEGIN COLLECTION
M  V30 MDLV30/STEABS ATOMS=(1 17)
M  V30 END COLLECTION
M  V30 END CTAB
M  END
>  <Molecule Name>
Compound 35

>  <Molecule Name 2>
Compound 35

>  <Compound ID>
25

>  <Name>


>  <Uniprot>
P10275

>  <Target>
AR

>  <Smiles>
CC(=O)NC1=CC=C(OC[C@](C)(O)C(=O)NC2=CC=C([N+](=O)[O-])C(C(F)(F)F)=C2)C=C1

>  <Kd (nM)>


>  <Assay (Kd)>


>  <Ki (nM)>
3.98

>  <Assay (Ki)>
Competition binding assays

>  <IC50 (nM)>


>  <Assay (IC50)>


>  <EC50 (nM)>


>  <Assay (EC50)>


>  <Article DOI>
10.1021/jm030336u

>  <Molecular Weight>
441.362

>  <Exact Mass>
441.11477

>  <XLogP3>
3.18

>  <Heavy Atom Count>
31

>  <Ring Count>
2

>  <Hydrogen Bond Acceptor Count>
6

>  <Hydrogen Bond Donor Count>
3

>  <Rotatable Bond Count>
7

>  <Topological Polar Surface Area>
130.8

>  <Molecular Formula>
C19H18F3N3O6

>  <InChI>
InChI=1S/C19H18F3N3O6/c1-11(26)23-12-3-6-14(7-4-12)31-10-18(2,28)17(27)24-13-5-8-16(25(29)30)15(9-13)19(20,21)22/h3-9,28H,10H2,1-2H3,(H,23,26)(H,24,27)/t18-/m0/s1

>  <InChI Key>
YVXVTLGIDOACBJ-SFHVURJKSA-N

>  <BindingDB>
18665

>  <PubChem>
9824562

>  <ChEMBL>
CHEMBL125236

$$$$
26
Actelion Java MolfileCreator 2.0

  0  0  0  0  0  0              0 V3000
M  V30 BEGIN CTAB
M  V30 COUNTS 31 32 0 0 0
M  V30 BEGIN ATOM
M  V30 1 F 2.4641 -1.4999 0.0 0
M  V30 2 C 3.4641 -1.4999 0.0 0
M  V30 3 F 3.4641 -2.4999 0.0 0
M  V30 4 F 4.4641 -1.4999 0.0 0
M  V30 5 C 3.4641 -0.4999 0.0 0
M  V30 6 C 2.598 0.0 0.0 0
M  V30 7 C 4.3301 0.0 0.0 0
M  V30 8 C 2.598 1.0 0.0 0
M  V30 9 C 1.732 -0.5 0.0 0
M  V30 10 C 4.3301 1.0 0.0 0
M  V30 11 C 3.4641 1.5 0.0 0
M  V30 12 O 0.866 0.0 0.0 0
M  V30 13 C 5.1961 1.5 0.0 0
M  V30 14 C 0.0 -0.5 0.0 0
M  V30 15 F 5.6961 0.6339 0.0 0
M  V30 16 F 6.0621 2.0 0.0 0
M  V30 17 F 4.6961 2.366 0.0 0
M  V30 18 C -0.866 0.0 0.0 0
M  V30 19 C 0.0 -1.4999 0.0 0
M  V30 20 O -0.866 1.0 0.0 0
M  V30 21 C -1.732 -0.4999 0.0 0
M  V30 22 C -0.866 -1.9999 0.0 0
M  V30 23 C -1.732 1.5 0.0 0
M  V30 24 C -1.732 -1.4999 0.0 0
M  V30 25 C -2.598 -1.9999 0.0 0
M  V30 26 C -2.598 -2.9999 0.0 0
M  V30 27 C -1.732 -3.4999 0.0 0
M  V30 28 C -3.4641 -3.4999 0.0 0
M  V30 29 N -0.866 -3.9999 0.0 0
M  V30 30 O -3.4641 -4.4999 0.0 0
M  V30 31 N -4.3301 -2.9999 0.0 0
M  V30 END ATOM
M  V30 BEGIN BOND
M  V30 1 1 1 2
M  V30 2 1 2 3
M  V30 3 1 2 4
M  V30 4 1 2 5
M  V30 5 2 5 6
M  V30 6 1 5 7
M  V30 7 1 6 8
M  V30 8 1 6 9
M  V30 9 2 7 10
M  V30 10 2 8 11
M  V30 11 1 9 12
M  V30 12 1 10 13
M  V30 13 1 12 14
M  V30 14 1 13 15
M  V30 15 1 13 16
M  V30 16 1 13 17
M  V30 17 2 14 18
M  V30 18 1 14 19
M  V30 19 1 18 20
M  V30 20 1 18 21
M  V30 21 2 19 22
M  V30 22 1 20 23
M  V30 23 2 21 24
M  V30 24 1 24 25
M  V30 25 2 25 26
M  V30 26 1 26 27
M  V30 27 1 26 28
M  V30 28 3 27 29
M  V30 29 2 28 30
M  V30 30 1 28 31
M  V30 31 1 10 11
M  V30 32 1 22 24
M  V30 END BOND
M  V30 END CTAB
M  END
>  <Molecule Name>
Compound 36

>  <Molecule Name 2>
Compound 36

>  <Compound ID>
26

>  <Name>


>  <Uniprot>
P11474

>  <Target>
ERRalpha

>  <Smiles>
COC1=CC(/C=C(\C#N)C(N)=O)=CC=C1OCC1=CC=C(C(F)(F)F)C=C1C(F)(F)F

>  <Kd (nM)>


>  <Assay (Kd)>


>  <Ki (nM)>


>  <Assay (Ki)>


>  <IC50 (nM)>
4.33

>  <Assay (IC50)>
IC50 of ERRalpha was assessed by a time resolved fluorescence resonance energy transfer assay

>  <EC50 (nM)>


>  <Assay (EC50)>


>  <Article DOI>
10.1021/acsmedchemlett.9b00025

>  <Molecular Weight>
444.331

>  <Exact Mass>
444.0908616

>  <XLogP3>
4.36

>  <Heavy Atom Count>
31

>  <Ring Count>
2

>  <Hydrogen Bond Acceptor Count>
4

>  <Hydrogen Bond Donor Count>
1

>  <Rotatable Bond Count>
6

>  <Topological Polar Surface Area>
85.34

>  <Molecular Formula>
C20H14F6N2O3

>  <InChI>
InChI=1S/C20H14F6N2O3/c1-30-17-7-11(6-13(9-27)18(28)29)2-5-16(17)31-10-12-3-4-14(19(21,22)23)8-15(12)20(24,25)26/h2-8H,10H2,1H3,(H2,28,29)/b13-6+

>  <InChI Key>
AFDDUGFHZUJENJ-AWNIVKPZSA-N

>  <BindingDB>
50501982

>  <PubChem>
149631187

>  <ChEMBL>
CHEMBL4533857

$$$$
27
Actelion Java MolfileCreator 2.0

  0  0  0  0  0  0              0 V3000
M  V30 BEGIN CTAB
M  V30 COUNTS 29 33 0 0 0
M  V30 BEGIN ATOM
M  V30 1 O 0.866 0.0 0.0 0
M  V30 2 C 1.732 -0.5 0.0 0
M  V30 3 C 0.0 -0.5 0.0 0
M  V30 4 C 1.732 -1.5 0.0 0
M  V30 5 C 2.598 0.0 0.0 0
M  V30 6 C -0.866 0.0 0.0 0
M  V30 7 C 0.0 -1.4999 0.0 0
M  V30 8 C 2.598 -2.0 0.0 0
M  V30 9 C 3.4641 -0.5 0.0 0
M  V30 10 C -1.732 -0.4999 0.0 0
M  V30 11 C -0.866 -1.9999 0.0 0
M  V30 12 C 3.4641 -1.5 0.0 0
M  V30 13 C -1.732 -1.4999 0.0 0
M  V30 14 C 4.3301 -2.0 0.0 0
M  V30 15 N 4.4346 -2.9945 0.0 0
M  V30 16 C 5.2436 -1.5932 0.0 0
M  V30 17 N 5.4128 -3.2024 0.0 0
M  V30 18 C 5.5526 -0.6422 0.0 0
M  V30 19 C 5.9128 -2.3364 0.0 0
M  V30 20 C 5.8195 -4.1159 0.0 0 CFG=1
M  V30 21 N 6.5308 -0.4342 0.0 0
M  V30 22 N 4.8835 0.1009 0.0 0
M  V30 23 N 6.8909 -2.1284 0.0 0
M  V30 24 C 5.2317 -4.9249 0.0 0
M  V30 25 C 6.814 -4.2205 0.0 0
M  V30 26 C 7.1999 -1.1774 0.0 0
M  V30 27 N 5.6384 -5.8385 0.0 0
M  V30 28 C 7.2207 -5.134 0.0 0
M  V30 29 C 6.633 -5.943 0.0 0
M  V30 END ATOM
M  V30 BEGIN BOND
M  V30 1 1 1 2
M  V30 2 1 1 3
M  V30 3 2 2 4
M  V30 4 1 2 5
M  V30 5 2 3 6
M  V30 6 1 3 7
M  V30 7 1 4 8
M  V30 8 2 5 9
M  V30 9 1 6 10
M  V30 10 2 7 11
M  V30 11 2 8 12
M  V30 12 2 10 13
M  V30 13 1 12 14
M  V30 14 2 14 15
M  V30 15 1 14 16
M  V30 16 1 15 17
M  V30 17 2 16 18
M  V30 18 1 16 19
M  V30 19 1 20 17 CFG=3
M  V30 20 1 18 21
M  V30 21 1 18 22
M  V30 22 2 19 23
M  V30 23 1 20 24
M  V30 24 1 20 25
M  V30 25 2 21 26
M  V30 26 1 24 27
M  V30 27 1 25 28
M  V30 28 1 27 29
M  V30 29 1 9 12
M  V30 30 1 11 13
M  V30 31 1 17 19
M  V30 32 1 23 26
M  V30 33 1 28 29
M  V30 END BOND
M  V30 BEGIN COLLECTION
M  V30 MDLV30/STEABS ATOMS=(1 20)
M  V30 END COLLECTION
M  V30 END CTAB
M  END
>  <Molecule Name>
Compound 37

>  <Molecule Name 2>
Compound 37

>  <Compound ID>
27

>  <Name>
Despropenoylibrutinib

>  <Uniprot>
Q06187

>  <Target>
BTK

>  <Smiles>
NC1=NC=NC2=C1C(C1=CC=C(OC3=CC=CC=C3)C=C1)=NN2[C@@H]1CCCNC1

>  <Kd (nM)>


>  <Assay (Kd)>


>  <Ki (nM)>


>  <Assay (Ki)>


>  <IC50 (nM)>
65

>  <Assay (IC50)>
IC50 of BTK

>  <EC50 (nM)>


>  <Assay (EC50)>


>  <Article DOI>
10.1039/c8cc08716d

>  <Molecular Weight>
386.459

>  <Exact Mass>
386.1855093

>  <XLogP3>
3.06

>  <Heavy Atom Count>
29

>  <Ring Count>
5

>  <Hydrogen Bond Acceptor Count>
7

>  <Hydrogen Bond Donor Count>
2

>  <Rotatable Bond Count>
4

>  <Topological Polar Surface Area>
90.88

>  <Molecular Formula>
C22H22N6O

>  <InChI>
InChI=1S/C22H22N6O/c23-21-19-20(15-8-10-18(11-9-15)29-17-6-2-1-3-7-17)27-28(22(19)26-14-25-21)16-5-4-12-24-13-16/h1-3,6-11,14,16,24H,4-5,12-13H2,(H2,23,25,26)/t16-/m1/s1

>  <InChI Key>
GPSQYTDPBDNDGI-MRXNPFEDSA-N

>  <BindingDB>


>  <PubChem>
58223272

>  <ChEMBL>


$$$$
28
Actelion Java MolfileCreator 2.0

  0  0  0  0  0  0              0 V3000
M  V30 BEGIN CTAB
M  V30 COUNTS 33 36 0 0 0
M  V30 BEGIN ATOM
M  V30 1 F 2.598 1.0 0.0 0
M  V30 2 C 2.598 0.0 0.0 0
M  V30 3 C 1.732 -0.5 0.0 0
M  V30 4 C 3.4641 -0.4999 0.0 0
M  V30 5 O 0.866 0.0 0.0 0
M  V30 6 C 1.732 -1.5 0.0 0
M  V30 7 C 3.4641 -1.4999 0.0 0
M  V30 8 C 0.0 -0.5 0.0 0
M  V30 9 C 2.598 -1.9999 0.0 0
M  V30 10 F 4.3301 -1.9999 0.0 0
M  V30 11 C -0.866 0.0 0.0 0
M  V30 12 C 0.0 -1.4999 0.0 0
M  V30 13 C -1.732 -0.4999 0.0 0
M  V30 14 C -0.866 -1.9999 0.0 0
M  V30 15 C -1.732 -1.4999 0.0 0
M  V30 16 C -2.598 -1.9999 0.0 0
M  V30 17 N -3.5116 -1.5932 0.0 0
M  V30 18 C -2.7026 -2.9945 0.0 0
M  V30 19 N -4.1807 -2.3364 0.0 0
M  V30 20 C -3.6807 -3.2024 0.0 0
M  V30 21 C -1.9594 -3.6636 0.0 0
M  V30 22 C -5.1752 -2.2318 0.0 0 CFG=1
M  V30 23 N -4.0874 -4.1159 0.0 0
M  V30 24 O -2.1673 -4.6418 0.0 0
M  V30 25 N -1.0084 -3.3546 0.0 0
M  V30 26 C -5.582 -1.3183 0.0 0
M  V30 27 C -5.763 -3.0408 0.0 0
M  V30 28 N -6.5765 -1.2138 0.0 0
M  V30 29 C -6.7575 -2.9363 0.0 0
M  V30 30 C -6.9832 -0.3002 0.0 0
M  V30 31 C -7.1643 -2.0228 0.0 0
M  V30 32 O -6.3954 0.5087 0.0 0
M  V30 33 C -7.9777 -0.1957 0.0 0
M  V30 END ATOM
M  V30 BEGIN BOND
M  V30 1 1 1 2
M  V30 2 2 2 3
M  V30 3 1 2 4
M  V30 4 1 3 5
M  V30 5 1 3 6
M  V30 6 2 4 7
M  V30 7 1 5 8
M  V30 8 2 6 9
M  V30 9 1 7 10
M  V30 10 2 8 11
M  V30 11 1 8 12
M  V30 12 1 11 13
M  V30 13 2 12 14
M  V30 14 2 13 15
M  V30 15 1 15 16
M  V30 16 2 16 17
M  V30 17 1 16 18
M  V30 18 1 17 19
M  V30 19 2 18 20
M  V30 20 1 18 21
M  V30 21 1 22 19 CFG=3
M  V30 22 1 20 23
M  V30 23 2 21 24
M  V30 24 1 21 25
M  V30 25 1 22 26
M  V30 26 1 22 27
M  V30 27 1 26 28
M  V30 28 1 27 29
M  V30 29 1 28 30
M  V30 30 1 28 31
M  V30 31 2 30 32
M  V30 32 1 30 33
M  V30 33 1 7 9
M  V30 34 1 14 15
M  V30 35 1 19 20
M  V30 36 1 29 31
M  V30 END BOND
M  V30 BEGIN COLLECTION
M  V30 MDLV30/STEABS ATOMS=(1 22)
M  V30 END COLLECTION
M  V30 END CTAB
M  END
>  <Molecule Name>
Compound 38

>  <Molecule Name 2>
Compound 38

>  <Compound ID>
28

>  <Name>


>  <Uniprot>
Q06187

>  <Target>
BTK

>  <Smiles>
CC(=O)N1CCC[C@@H](N2N=C(C3=CC=C(OC4=CC=C(F)C=C4F)C=C3)C(C(N)=O)=C2N)C1

>  <Kd (nM)>
66

>  <Assay (Kd)>
Kd was assessed by a Biacore SA Chip

>  <Ki (nM)>


>  <Assay (Ki)>


>  <IC50 (nM)>


>  <Assay (IC50)>


>  <EC50 (nM)>


>  <Assay (EC50)>


>  <Article DOI>
10.1073/pnas.1803662115

>  <Molecular Weight>
455.465

>  <Exact Mass>
455.176896

>  <XLogP3>
2.66

>  <Heavy Atom Count>
33

>  <Ring Count>
4

>  <Hydrogen Bond Acceptor Count>
6

>  <Hydrogen Bond Donor Count>
2

>  <Rotatable Bond Count>
5

>  <Topological Polar Surface Area>
116.47

>  <Molecular Formula>
C23H23F2N5O3

>  <InChI>
InChI=1S/C23H23F2N5O3/c1-13(31)29-10-2-3-16(12-29)30-22(26)20(23(27)32)21(28-30)14-4-7-17(8-5-14)33-19-9-6-15(24)11-18(19)25/h4-9,11,16H,2-3,10,12,26H2,1H3,(H2,27,32)/t16-/m1/s1

>  <InChI Key>
LUINACBFHZLHCO-MRXNPFEDSA-N

>  <BindingDB>


>  <PubChem>


>  <ChEMBL>


$$$$
29
Actelion Java MolfileCreator 2.0

  0  0  0  0  0  0              0 V3000
M  V30 BEGIN CTAB
M  V30 COUNTS 38 41 0 0 0
M  V30 BEGIN ATOM
M  V30 1 Cl 0.0 3.75 0.0 0
M  V30 2 C 1.299 4.5 0.0 0
M  V30 3 C 2.598 3.75 0.0 0
M  V30 4 C 1.299 6.0 0.0 0
M  V30 5 N 3.8971 4.5 0.0 0
M  V30 6 N 2.598 2.25 0.0 0
M  V30 7 N 2.598 6.75 0.0 0
M  V30 8 C 3.8971 6.0 0.0 0
M  V30 9 C 3.8971 1.5 0.0 0
M  V30 10 N 5.1961 6.75 0.0 0
M  V30 11 C 3.8971 0.0 0.0 0
M  V30 12 C 5.1961 2.25 0.0 0
M  V30 13 C 5.1961 8.25 0.0 0
M  V30 14 S 2.598 -0.75 0.0 0
M  V30 15 C 5.1961 -0.75 0.0 0
M  V30 16 C 6.4951 1.5 0.0 0
M  V30 17 C 6.4951 9.0 0.0 0
M  V30 18 C 3.8971 9.0 0.0 0
M  V30 19 O 1.848 -2.049 0.0 0
M  V30 20 O 3.348 -2.049 0.0 0
M  V30 21 C 1.299 0.0 0.0 0
M  V30 22 C 6.4951 0.0 0.0 0
M  V30 23 O 7.7942 8.25 0.0 0
M  V30 24 C 6.4951 10.5 0.0 0
M  V30 25 C 3.8971 10.5 0.0 0
M  V30 26 C 1.299 1.5 0.0 0
M  V30 27 C 0.0 -0.75 0.0 0
M  V30 28 C 7.7942 6.75 0.0 0
M  V30 29 C 5.1961 11.25 0.0 0
M  V30 30 C 2.598 11.25 0.0 0
M  V30 31 C 6.4951 6.0 0.0 0
M  V30 32 C 9.0932 6.0 0.0 0
M  V30 33 C 5.1961 12.75 0.0 0
M  V30 34 C 6.4951 13.5 0.0 0
M  V30 35 C 3.8971 13.5 0.0 0
M  V30 36 C 6.4951 15.0 0.0 0
M  V30 37 C 3.8971 15.0 0.0 0
M  V30 38 N 5.1961 15.75 0.0 0
M  V30 END ATOM
M  V30 BEGIN BOND
M  V30 1 1 1 2
M  V30 2 2 2 3
M  V30 3 1 2 4
M  V30 4 1 3 5
M  V30 5 1 3 6
M  V30 6 2 4 7
M  V30 7 2 5 8
M  V30 8 1 6 9
M  V30 9 1 8 10
M  V30 10 2 9 11
M  V30 11 1 9 12
M  V30 12 1 10 13
M  V30 13 1 11 14
M  V30 14 1 11 15
M  V30 15 2 12 16
M  V30 16 2 13 17
M  V30 17 1 13 18
M  V30 18 2 14 19
M  V30 19 2 14 20
M  V30 20 1 14 21
M  V30 21 2 15 22
M  V30 22 1 17 23
M  V30 23 1 17 24
M  V30 24 2 18 25
M  V30 25 1 21 26
M  V30 26 1 21 27
M  V30 27 1 23 28
M  V30 28 2 24 29
M  V30 29 1 25 30
M  V30 30 1 28 31
M  V30 31 1 28 32
M  V30 32 1 29 33
M  V30 33 1 33 34
M  V30 34 1 33 35
M  V30 35 1 34 36
M  V30 36 1 35 37
M  V30 37 1 36 38
M  V30 38 1 7 8
M  V30 39 1 16 22
M  V30 40 1 25 29
M  V30 41 1 37 38
M  V30 END BOND
M  V30 END CTAB
M  END
>  <Molecule Name>
Compound 39

>  <Molecule Name 2>
Compound 39

>  <Compound ID>
29

>  <Name>
Ceritinib

>  <Uniprot>
Q9UM73

>  <Target>
ALK

>  <Smiles>
CC1=CC(NC2=NC=C(Cl)C(NC3=CC=CC=C3S(=O)(=O)C(C)C)=N2)=C(OC(C)C)C=C1C1CCNCC1

>  <Kd (nM)>
1.3

>  <Assay (Kd)>
A competitive binding assay using DNA tag labeled ALK

>  <Ki (nM)>


>  <Assay (Ki)>


>  <IC50 (nM)>


>  <Assay (IC50)>


>  <EC50 (nM)>


>  <Assay (EC50)>


>  <Article DOI>
10.1016/j.ejmech.2018.03.071

>  <Molecular Weight>
558.148

>  <Exact Mass>
557.2227387

>  <XLogP3>
6.42

>  <Heavy Atom Count>
38

>  <Ring Count>
4

>  <Hydrogen Bond Acceptor Count>
8

>  <Hydrogen Bond Donor Count>
3

>  <Rotatable Bond Count>
9

>  <Topological Polar Surface Area>
105.24

>  <Molecular Formula>
C28H36ClN5O3S

>  <InChI>
InChI=1S/C28H36ClN5O3S/c1-17(2)37-25-15-21(20-10-12-30-13-11-20)19(5)14-24(25)33-28-31-16-22(29)27(34-28)32-23-8-6-7-9-26(23)38(35,36)18(3)4/h6-9,14-18,20,30H,10-13H2,1-5H3,(H2,31,32,33,34)

>  <InChI Key>
VERWOWGGCGHDQE-UHFFFAOYSA-N

>  <BindingDB>
50436850

>  <PubChem>
57379345

>  <ChEMBL>
CHEMBL2403108

$$$$
29
Actelion Java MolfileCreator 2.0

  0  0  0  0  0  0              0 V3000
M  V30 BEGIN CTAB
M  V30 COUNTS 38 41 0 0 0
M  V30 BEGIN ATOM
M  V30 1 Cl 0.0 3.75 0.0 0
M  V30 2 C 1.299 4.5 0.0 0
M  V30 3 C 2.598 3.75 0.0 0
M  V30 4 C 1.299 6.0 0.0 0
M  V30 5 N 3.8971 4.5 0.0 0
M  V30 6 N 2.598 2.25 0.0 0
M  V30 7 N 2.598 6.75 0.0 0
M  V30 8 C 3.8971 6.0 0.0 0
M  V30 9 C 3.8971 1.5 0.0 0
M  V30 10 N 5.1961 6.75 0.0 0
M  V30 11 C 3.8971 0.0 0.0 0
M  V30 12 C 5.1961 2.25 0.0 0
M  V30 13 C 5.1961 8.25 0.0 0
M  V30 14 S 2.598 -0.75 0.0 0
M  V30 15 C 5.1961 -0.75 0.0 0
M  V30 16 C 6.4951 1.5 0.0 0
M  V30 17 C 6.4951 9.0 0.0 0
M  V30 18 C 3.8971 9.0 0.0 0
M  V30 19 O 1.848 -2.049 0.0 0
M  V30 20 O 3.348 -2.049 0.0 0
M  V30 21 C 1.299 0.0 0.0 0
M  V30 22 C 6.4951 0.0 0.0 0
M  V30 23 O 7.7942 8.25 0.0 0
M  V30 24 C 6.4951 10.5 0.0 0
M  V30 25 C 3.8971 10.5 0.0 0
M  V30 26 C 1.299 1.5 0.0 0
M  V30 27 C 0.0 -0.75 0.0 0
M  V30 28 C 7.7942 6.75 0.0 0
M  V30 29 C 5.1961 11.25 0.0 0
M  V30 30 C 2.598 11.25 0.0 0
M  V30 31 C 6.4951 6.0 0.0 0
M  V30 32 C 9.0932 6.0 0.0 0
M  V30 33 C 5.1961 12.75 0.0 0
M  V30 34 C 6.4951 13.5 0.0 0
M  V30 35 C 3.8971 13.5 0.0 0
M  V30 36 C 6.4951 15.0 0.0 0
M  V30 37 C 3.8971 15.0 0.0 0
M  V30 38 N 5.1961 15.75 0.0 0
M  V30 END ATOM
M  V30 BEGIN BOND
M  V30 1 1 1 2
M  V30 2 2 2 3
M  V30 3 1 2 4
M  V30 4 1 3 5
M  V30 5 1 3 6
M  V30 6 2 4 7
M  V30 7 2 5 8
M  V30 8 1 6 9
M  V30 9 1 8 10
M  V30 10 2 9 11
M  V30 11 1 9 12
M  V30 12 1 10 13
M  V30 13 1 11 14
M  V30 14 1 11 15
M  V30 15 2 12 16
M  V30 16 2 13 17
M  V30 17 1 13 18
M  V30 18 2 14 19
M  V30 19 2 14 20
M  V30 20 1 14 21
M  V30 21 2 15 22
M  V30 22 1 17 23
M  V30 23 1 17 24
M  V30 24 2 18 25
M  V30 25 1 21 26
M  V30 26 1 21 27
M  V30 27 1 23 28
M  V30 28 2 24 29
M  V30 29 1 25 30
M  V30 30 1 28 31
M  V30 31 1 28 32
M  V30 32 1 29 33
M  V30 33 1 33 34
M  V30 34 1 33 35
M  V30 35 1 34 36
M  V30 36 1 35 37
M  V30 37 1 36 38
M  V30 38 1 7 8
M  V30 39 1 16 22
M  V30 40 1 25 29
M  V30 41 1 37 38
M  V30 END BOND
M  V30 END CTAB
M  END
>  <Molecule Name>
Compound 40

>  <Molecule Name 2>
Compound 40

>  <Compound ID>
29

>  <Name>
Ceritinib

>  <Uniprot>
O14965

>  <Target>
AURKA

>  <Smiles>
CC1=CC(NC2=NC=C(Cl)C(NC3=CC=CC=C3S(=O)(=O)C(C)C)=N2)=C(OC(C)C)C=C1C1CCNCC1

>  <Kd (nM)>


>  <Assay (Kd)>


>  <Ki (nM)>


>  <Assay (Ki)>


>  <IC50 (nM)>
6550

>  <Assay (IC50)>
IC50 was assessed by Z'LYTE Assay

>  <EC50 (nM)>


>  <Assay (EC50)>


>  <Article DOI>
10.1021/acs.jmedchem.7b01655

>  <Molecular Weight>
558.148

>  <Exact Mass>
557.2227387

>  <XLogP3>
6.42

>  <Heavy Atom Count>
38

>  <Ring Count>
4

>  <Hydrogen Bond Acceptor Count>
8

>  <Hydrogen Bond Donor Count>
3

>  <Rotatable Bond Count>
9

>  <Topological Polar Surface Area>
105.24

>  <Molecular Formula>
C28H36ClN5O3S

>  <InChI>
InChI=1S/C28H36ClN5O3S/c1-17(2)37-25-15-21(20-10-12-30-13-11-20)19(5)14-24(25)33-28-31-16-22(29)27(34-28)32-23-8-6-7-9-26(23)38(35,36)18(3)4/h6-9,14-18,20,30H,10-13H2,1-5H3,(H2,31,32,33,34)

>  <InChI Key>
VERWOWGGCGHDQE-UHFFFAOYSA-N

>  <BindingDB>
50436850

>  <PubChem>
57379345

>  <ChEMBL>
CHEMBL2403108

$$$$
29
Actelion Java MolfileCreator 2.0

  0  0  0  0  0  0              0 V3000
M  V30 BEGIN CTAB
M  V30 COUNTS 38 41 0 0 0
M  V30 BEGIN ATOM
M  V30 1 Cl 0.0 3.75 0.0 0
M  V30 2 C 1.299 4.5 0.0 0
M  V30 3 C 2.598 3.75 0.0 0
M  V30 4 C 1.299 6.0 0.0 0
M  V30 5 N 3.8971 4.5 0.0 0
M  V30 6 N 2.598 2.25 0.0 0
M  V30 7 N 2.598 6.75 0.0 0
M  V30 8 C 3.8971 6.0 0.0 0
M  V30 9 C 3.8971 1.5 0.0 0
M  V30 10 N 5.1961 6.75 0.0 0
M  V30 11 C 3.8971 0.0 0.0 0
M  V30 12 C 5.1961 2.25 0.0 0
M  V30 13 C 5.1961 8.25 0.0 0
M  V30 14 S 2.598 -0.75 0.0 0
M  V30 15 C 5.1961 -0.75 0.0 0
M  V30 16 C 6.4951 1.5 0.0 0
M  V30 17 C 6.4951 9.0 0.0 0
M  V30 18 C 3.8971 9.0 0.0 0
M  V30 19 O 1.848 -2.049 0.0 0
M  V30 20 O 3.348 -2.049 0.0 0
M  V30 21 C 1.299 0.0 0.0 0
M  V30 22 C 6.4951 0.0 0.0 0
M  V30 23 O 7.7942 8.25 0.0 0
M  V30 24 C 6.4951 10.5 0.0 0
M  V30 25 C 3.8971 10.5 0.0 0
M  V30 26 C 1.299 1.5 0.0 0
M  V30 27 C 0.0 -0.75 0.0 0
M  V30 28 C 7.7942 6.75 0.0 0
M  V30 29 C 5.1961 11.25 0.0 0
M  V30 30 C 2.598 11.25 0.0 0
M  V30 31 C 6.4951 6.0 0.0 0
M  V30 32 C 9.0932 6.0 0.0 0
M  V30 33 C 5.1961 12.75 0.0 0
M  V30 34 C 6.4951 13.5 0.0 0
M  V30 35 C 3.8971 13.5 0.0 0
M  V30 36 C 6.4951 15.0 0.0 0
M  V30 37 C 3.8971 15.0 0.0 0
M  V30 38 N 5.1961 15.75 0.0 0
M  V30 END ATOM
M  V30 BEGIN BOND
M  V30 1 1 1 2
M  V30 2 2 2 3
M  V30 3 1 2 4
M  V30 4 1 3 5
M  V30 5 1 3 6
M  V30 6 2 4 7
M  V30 7 2 5 8
M  V30 8 1 6 9
M  V30 9 1 8 10
M  V30 10 2 9 11
M  V30 11 1 9 12
M  V30 12 1 10 13
M  V30 13 1 11 14
M  V30 14 1 11 15
M  V30 15 2 12 16
M  V30 16 2 13 17
M  V30 17 1 13 18
M  V30 18 2 14 19
M  V30 19 2 14 20
M  V30 20 1 14 21
M  V30 21 2 15 22
M  V30 22 1 17 23
M  V30 23 1 17 24
M  V30 24 2 18 25
M  V30 25 1 21 26
M  V30 26 1 21 27
M  V30 27 1 23 28
M  V30 28 2 24 29
M  V30 29 1 25 30
M  V30 30 1 28 31
M  V30 31 1 28 32
M  V30 32 1 29 33
M  V30 33 1 33 34
M  V30 34 1 33 35
M  V30 35 1 34 36
M  V30 36 1 35 37
M  V30 37 1 36 38
M  V30 38 1 7 8
M  V30 39 1 16 22
M  V30 40 1 25 29
M  V30 41 1 37 38
M  V30 END BOND
M  V30 END CTAB
M  END
>  <Molecule Name>
Compound 41

>  <Molecule Name 2>
Compound 41

>  <Compound ID>
29

>  <Name>
Ceritinib

>  <Uniprot>
Q05397

>  <Target>
FAK

>  <Smiles>
CC1=CC(NC2=NC=C(Cl)C(NC3=CC=CC=C3S(=O)(=O)C(C)C)=N2)=C(OC(C)C)C=C1C1CCNCC1

>  <Kd (nM)>


>  <Assay (Kd)>


>  <Ki (nM)>


>  <Assay (Ki)>


>  <IC50 (nM)>
27.9

>  <Assay (IC50)>
IC50 was assessed by Z'LYTE Assay

>  <EC50 (nM)>


>  <Assay (EC50)>


>  <Article DOI>
10.1021/acs.jmedchem.7b01655

>  <Molecular Weight>
558.148

>  <Exact Mass>
557.2227387

>  <XLogP3>
6.42

>  <Heavy Atom Count>
38

>  <Ring Count>
4

>  <Hydrogen Bond Acceptor Count>
8

>  <Hydrogen Bond Donor Count>
3

>  <Rotatable Bond Count>
9

>  <Topological Polar Surface Area>
105.24

>  <Molecular Formula>
C28H36ClN5O3S

>  <InChI>
InChI=1S/C28H36ClN5O3S/c1-17(2)37-25-15-21(20-10-12-30-13-11-20)19(5)14-24(25)33-28-31-16-22(29)27(34-28)32-23-8-6-7-9-26(23)38(35,36)18(3)4/h6-9,14-18,20,30H,10-13H2,1-5H3,(H2,31,32,33,34)

>  <InChI Key>
VERWOWGGCGHDQE-UHFFFAOYSA-N

>  <BindingDB>
50436850

>  <PubChem>
57379345

>  <ChEMBL>
CHEMBL2403108

$$$$
29
Actelion Java MolfileCreator 2.0

  0  0  0  0  0  0              0 V3000
M  V30 BEGIN CTAB
M  V30 COUNTS 38 41 0 0 0
M  V30 BEGIN ATOM
M  V30 1 Cl 0.0 3.75 0.0 0
M  V30 2 C 1.299 4.5 0.0 0
M  V30 3 C 2.598 3.75 0.0 0
M  V30 4 C 1.299 6.0 0.0 0
M  V30 5 N 3.8971 4.5 0.0 0
M  V30 6 N 2.598 2.25 0.0 0
M  V30 7 N 2.598 6.75 0.0 0
M  V30 8 C 3.8971 6.0 0.0 0
M  V30 9 C 3.8971 1.5 0.0 0
M  V30 10 N 5.1961 6.75 0.0 0
M  V30 11 C 3.8971 0.0 0.0 0
M  V30 12 C 5.1961 2.25 0.0 0
M  V30 13 C 5.1961 8.25 0.0 0
M  V30 14 S 2.598 -0.75 0.0 0
M  V30 15 C 5.1961 -0.75 0.0 0
M  V30 16 C 6.4951 1.5 0.0 0
M  V30 17 C 6.4951 9.0 0.0 0
M  V30 18 C 3.8971 9.0 0.0 0
M  V30 19 O 1.848 -2.049 0.0 0
M  V30 20 O 3.348 -2.049 0.0 0
M  V30 21 C 1.299 0.0 0.0 0
M  V30 22 C 6.4951 0.0 0.0 0
M  V30 23 O 7.7942 8.25 0.0 0
M  V30 24 C 6.4951 10.5 0.0 0
M  V30 25 C 3.8971 10.5 0.0 0
M  V30 26 C 1.299 1.5 0.0 0
M  V30 27 C 0.0 -0.75 0.0 0
M  V30 28 C 7.7942 6.75 0.0 0
M  V30 29 C 5.1961 11.25 0.0 0
M  V30 30 C 2.598 11.25 0.0 0
M  V30 31 C 6.4951 6.0 0.0 0
M  V30 32 C 9.0932 6.0 0.0 0
M  V30 33 C 5.1961 12.75 0.0 0
M  V30 34 C 6.4951 13.5 0.0 0
M  V30 35 C 3.8971 13.5 0.0 0
M  V30 36 C 6.4951 15.0 0.0 0
M  V30 37 C 3.8971 15.0 0.0 0
M  V30 38 N 5.1961 15.75 0.0 0
M  V30 END ATOM
M  V30 BEGIN BOND
M  V30 1 1 1 2
M  V30 2 2 2 3
M  V30 3 1 2 4
M  V30 4 1 3 5
M  V30 5 1 3 6
M  V30 6 2 4 7
M  V30 7 2 5 8
M  V30 8 1 6 9
M  V30 9 1 8 10
M  V30 10 2 9 11
M  V30 11 1 9 12
M  V30 12 1 10 13
M  V30 13 1 11 14
M  V30 14 1 11 15
M  V30 15 2 12 16
M  V30 16 2 13 17
M  V30 17 1 13 18
M  V30 18 2 14 19
M  V30 19 2 14 20
M  V30 20 1 14 21
M  V30 21 2 15 22
M  V30 22 1 17 23
M  V30 23 1 17 24
M  V30 24 2 18 25
M  V30 25 1 21 26
M  V30 26 1 21 27
M  V30 27 1 23 28
M  V30 28 2 24 29
M  V30 29 1 25 30
M  V30 30 1 28 31
M  V30 31 1 28 32
M  V30 32 1 29 33
M  V30 33 1 33 34
M  V30 34 1 33 35
M  V30 35 1 34 36
M  V30 36 1 35 37
M  V30 37 1 36 38
M  V30 38 1 7 8
M  V30 39 1 16 22
M  V30 40 1 25 29
M  V30 41 1 37 38
M  V30 END BOND
M  V30 END CTAB
M  END
>  <Molecule Name>
Compound 42

>  <Molecule Name 2>
Compound 42

>  <Compound ID>
29

>  <Name>
Ceritinib

>  <Uniprot>
P16591

>  <Target>
FER

>  <Smiles>
CC1=CC(NC2=NC=C(Cl)C(NC3=CC=CC=C3S(=O)(=O)C(C)C)=N2)=C(OC(C)C)C=C1C1CCNCC1

>  <Kd (nM)>


>  <Assay (Kd)>


>  <Ki (nM)>


>  <Assay (Ki)>


>  <IC50 (nM)>
15.8

>  <Assay (IC50)>
IC50 was assessed by Z'LYTE Assay

>  <EC50 (nM)>


>  <Assay (EC50)>


>  <Article DOI>
10.1021/acs.jmedchem.7b01655

>  <Molecular Weight>
558.148

>  <Exact Mass>
557.2227387

>  <XLogP3>
6.42

>  <Heavy Atom Count>
38

>  <Ring Count>
4

>  <Hydrogen Bond Acceptor Count>
8

>  <Hydrogen Bond Donor Count>
3

>  <Rotatable Bond Count>
9

>  <Topological Polar Surface Area>
105.24

>  <Molecular Formula>
C28H36ClN5O3S

>  <InChI>
InChI=1S/C28H36ClN5O3S/c1-17(2)37-25-15-21(20-10-12-30-13-11-20)19(5)14-24(25)33-28-31-16-22(29)27(34-28)32-23-8-6-7-9-26(23)38(35,36)18(3)4/h6-9,14-18,20,30H,10-13H2,1-5H3,(H2,31,32,33,34)

>  <InChI Key>
VERWOWGGCGHDQE-UHFFFAOYSA-N

>  <BindingDB>
50436850

>  <PubChem>
57379345

>  <ChEMBL>
CHEMBL2403108

$$$$
29
Actelion Java MolfileCreator 2.0

  0  0  0  0  0  0              0 V3000
M  V30 BEGIN CTAB
M  V30 COUNTS 38 41 0 0 0
M  V30 BEGIN ATOM
M  V30 1 Cl 0.0 3.75 0.0 0
M  V30 2 C 1.299 4.5 0.0 0
M  V30 3 C 2.598 3.75 0.0 0
M  V30 4 C 1.299 6.0 0.0 0
M  V30 5 N 3.8971 4.5 0.0 0
M  V30 6 N 2.598 2.25 0.0 0
M  V30 7 N 2.598 6.75 0.0 0
M  V30 8 C 3.8971 6.0 0.0 0
M  V30 9 C 3.8971 1.5 0.0 0
M  V30 10 N 5.1961 6.75 0.0 0
M  V30 11 C 3.8971 0.0 0.0 0
M  V30 12 C 5.1961 2.25 0.0 0
M  V30 13 C 5.1961 8.25 0.0 0
M  V30 14 S 2.598 -0.75 0.0 0
M  V30 15 C 5.1961 -0.75 0.0 0
M  V30 16 C 6.4951 1.5 0.0 0
M  V30 17 C 6.4951 9.0 0.0 0
M  V30 18 C 3.8971 9.0 0.0 0
M  V30 19 O 1.848 -2.049 0.0 0
M  V30 20 O 3.348 -2.049 0.0 0
M  V30 21 C 1.299 0.0 0.0 0
M  V30 22 C 6.4951 0.0 0.0 0
M  V30 23 O 7.7942 8.25 0.0 0
M  V30 24 C 6.4951 10.5 0.0 0
M  V30 25 C 3.8971 10.5 0.0 0
M  V30 26 C 1.299 1.5 0.0 0
M  V30 27 C 0.0 -0.75 0.0 0
M  V30 28 C 7.7942 6.75 0.0 0
M  V30 29 C 5.1961 11.25 0.0 0
M  V30 30 C 2.598 11.25 0.0 0
M  V30 31 C 6.4951 6.0 0.0 0
M  V30 32 C 9.0932 6.0 0.0 0
M  V30 33 C 5.1961 12.75 0.0 0
M  V30 34 C 6.4951 13.5 0.0 0
M  V30 35 C 3.8971 13.5 0.0 0
M  V30 36 C 6.4951 15.0 0.0 0
M  V30 37 C 3.8971 15.0 0.0 0
M  V30 38 N 5.1961 15.75 0.0 0
M  V30 END ATOM
M  V30 BEGIN BOND
M  V30 1 1 1 2
M  V30 2 2 2 3
M  V30 3 1 2 4
M  V30 4 1 3 5
M  V30 5 1 3 6
M  V30 6 2 4 7
M  V30 7 2 5 8
M  V30 8 1 6 9
M  V30 9 1 8 10
M  V30 10 2 9 11
M  V30 11 1 9 12
M  V30 12 1 10 13
M  V30 13 1 11 14
M  V30 14 1 11 15
M  V30 15 2 12 16
M  V30 16 2 13 17
M  V30 17 1 13 18
M  V30 18 2 14 19
M  V30 19 2 14 20
M  V30 20 1 14 21
M  V30 21 2 15 22
M  V30 22 1 17 23
M  V30 23 1 17 24
M  V30 24 2 18 25
M  V30 25 1 21 26
M  V30 26 1 21 27
M  V30 27 1 23 28
M  V30 28 2 24 29
M  V30 29 1 25 30
M  V30 30 1 28 31
M  V30 31 1 28 32
M  V30 32 1 29 33
M  V30 33 1 33 34
M  V30 34 1 33 35
M  V30 35 1 34 36
M  V30 36 1 35 37
M  V30 37 1 36 38
M  V30 38 1 7 8
M  V30 39 1 16 22
M  V30 40 1 25 29
M  V30 41 1 37 38
M  V30 END BOND
M  V30 END CTAB
M  END
>  <Molecule Name>
Compound 43

>  <Molecule Name 2>
Compound 43

>  <Compound ID>
29

>  <Name>
Ceritinib

>  <Uniprot>
Q15418

>  <Target>
RPS6KA1

>  <Smiles>
CC1=CC(NC2=NC=C(Cl)C(NC3=CC=CC=C3S(=O)(=O)C(C)C)=N2)=C(OC(C)C)C=C1C1CCNCC1

>  <Kd (nM)>


>  <Assay (Kd)>


>  <Ki (nM)>


>  <Assay (Ki)>


>  <IC50 (nM)>
316

>  <Assay (IC50)>
IC50 was assessed by Z'LYTE Assay

>  <EC50 (nM)>


>  <Assay (EC50)>


>  <Article DOI>
10.1021/acs.jmedchem.7b01655

>  <Molecular Weight>
558.148

>  <Exact Mass>
557.2227387

>  <XLogP3>
6.42

>  <Heavy Atom Count>
38

>  <Ring Count>
4

>  <Hydrogen Bond Acceptor Count>
8

>  <Hydrogen Bond Donor Count>
3

>  <Rotatable Bond Count>
9

>  <Topological Polar Surface Area>
105.24

>  <Molecular Formula>
C28H36ClN5O3S

>  <InChI>
InChI=1S/C28H36ClN5O3S/c1-17(2)37-25-15-21(20-10-12-30-13-11-20)19(5)14-24(25)33-28-31-16-22(29)27(34-28)32-23-8-6-7-9-26(23)38(35,36)18(3)4/h6-9,14-18,20,30H,10-13H2,1-5H3,(H2,31,32,33,34)

>  <InChI Key>
VERWOWGGCGHDQE-UHFFFAOYSA-N

>  <BindingDB>
50436850

>  <PubChem>
57379345

>  <ChEMBL>
CHEMBL2403108

$$$$
30
Actelion Java MolfileCreator 2.0

  0  0  0  0  0  0              0 V3000
M  V30 BEGIN CTAB
M  V30 COUNTS 23 23 0 0 0
M  V30 BEGIN ATOM
M  V30 1 O 9.5262 1.0 0.0 0
M  V30 2 C 9.5262 0.0 0.0 0
M  V30 3 N 10.3923 -0.5 0.0 0
M  V30 4 C 8.6602 -0.5 0.0 0
M  V30 5 O 11.2583 0.0 0.0 0
M  V30 6 C 7.7942 0.0 0.0 0
M  V30 7 C 6.9282 -0.5 0.0 0
M  V30 8 C 6.0621 0.0 0.0 0
M  V30 9 C 5.1961 -0.5 0.0 0
M  V30 10 C 4.3301 0.0 0.0 0
M  V30 11 C 3.4641 -0.5 0.0 0
M  V30 12 O 3.4641 -1.5 0.0 0
M  V30 13 N 2.598 0.0 0.0 0
M  V30 14 N 1.732 -0.5 0.0 0
M  V30 15 C 0.866 0.0 0.0 0
M  V30 16 C 0.0 -0.5 0.0 0
M  V30 17 C -0.866 0.0 0.0 0
M  V30 18 C 0.0 -1.4999 0.0 0
M  V30 19 C -1.732 -0.4999 0.0 0
M  V30 20 C -0.866 -1.9999 0.0 0
M  V30 21 C -1.732 -1.4999 0.0 0
M  V30 22 O -2.598 -1.9999 0.0 0
M  V30 23 C -2.598 -2.9999 0.0 0
M  V30 END ATOM
M  V30 BEGIN BOND
M  V30 1 2 1 2
M  V30 2 1 2 3
M  V30 3 1 2 4
M  V30 4 1 3 5
M  V30 5 1 4 6
M  V30 6 1 6 7
M  V30 7 1 7 8
M  V30 8 1 8 9
M  V30 9 1 9 10
M  V30 10 1 10 11
M  V30 11 2 11 12
M  V30 12 1 11 13
M  V30 13 1 13 14
M  V30 14 2 14 15
M  V30 15 1 15 16
M  V30 16 2 16 17
M  V30 17 1 16 18
M  V30 18 1 17 19
M  V30 19 2 18 20
M  V30 20 2 19 21
M  V30 21 1 21 22
M  V30 22 1 22 23
M  V30 23 1 20 21
M  V30 END BOND
M  V30 END CTAB
M  END
>  <Molecule Name>
Compound 44

>  <Molecule Name 2>
Compound 44

>  <Compound ID>
30

>  <Name>


>  <Uniprot>
Q9UBN7

>  <Target>
HDAC6

>  <Smiles>
COC1=CC=C(/C=N/NC(=O)CCCCCCC(=O)NO)C=C1

>  <Kd (nM)>


>  <Assay (Kd)>


>  <Ki (nM)>


>  <Assay (Ki)>


>  <IC50 (nM)>
35.8

>  <Assay (IC50)>
IC50 of human recombinant HDAC6 was assessed by the HDAC-Glo I/II Assay

>  <EC50 (nM)>


>  <Assay (EC50)>


>  <Article DOI>
10.1158/1535-7163.MCT-14-0073

>  <Molecular Weight>
321.377

>  <Exact Mass>
321.1688562

>  <XLogP3>
1.63

>  <Heavy Atom Count>
23

>  <Ring Count>
1

>  <Hydrogen Bond Acceptor Count>
5

>  <Hydrogen Bond Donor Count>
3

>  <Rotatable Bond Count>
10

>  <Topological Polar Surface Area>
100.02

>  <Molecular Formula>
C16H23N3O4

>  <InChI>
InChI=1S/C16H23N3O4/c1-23-14-10-8-13(9-11-14)12-17-18-15(20)6-4-2-3-5-7-16(21)19-22/h8-12,22H,2-7H2,1H3,(H,18,20)(H,19,21)/b17-12+

>  <InChI Key>
BSNPAQAXSJBCQS-SFQUDFHCSA-N

>  <BindingDB>


>  <PubChem>


>  <ChEMBL>


$$$$
31
Actelion Java MolfileCreator 2.0

  0  0  0  0  0  0              0 V3000
M  V30 BEGIN CTAB
M  V30 COUNTS 31 32 0 0 0
M  V30 BEGIN ATOM
M  V30 1 S 3.8971 0.0 0.0 0
M  V30 2 O 4.6471 1.299 0.0 0
M  V30 3 O 3.1471 1.299 0.0 0
M  V30 4 C 2.598 -0.75 0.0 0
M  V30 5 C 5.1961 -0.75 0.0 0
M  V30 6 C 1.299 0.0 0.0 0
M  V30 7 C 6.4951 0.0 0.0 0
M  V30 8 C 0.0 -0.75 0.0 0
M  V30 9 C 7.7942 -0.75 0.0 0
M  V30 10 C 6.4951 1.5 0.0 0
M  V30 11 C -1.299 0.0 0.0 0
M  V30 12 C 0.0 -2.25 0.0 0
M  V30 13 C 9.0932 0.0 0.0 0
M  V30 14 C 7.7942 2.25 0.0 0
M  V30 15 O -1.299 1.5 0.0 0
M  V30 16 C -2.598 -0.75 0.0 0
M  V30 17 O 1.299 -3.0 0.0 0
M  V30 18 C -1.299 -3.0 0.0 0
M  V30 19 N 10.3923 -0.75 0.0 0
M  V30 20 C 9.0932 1.5 0.0 0
M  V30 21 C -2.598 2.25 0.0 0
M  V30 22 C -2.598 -2.25 0.0 0
M  V30 23 C 2.598 -2.25 0.0 0
M  V30 24 C 11.6913 0.0 0.0 0
M  V30 25 O 10.3923 2.25 0.0 0
M  V30 26 O -3.8971 -3.0 0.0 0
M  V30 27 C 12.9903 -0.75 0.0 0
M  V30 28 C 10.3923 3.75 0.0 0
M  V30 29 C -3.8971 -4.5 0.0 0
M  V30 30 O 12.9903 -2.25 0.0 0
M  V30 31 O 14.2894 0.0 0.0 0
M  V30 END ATOM
M  V30 BEGIN BOND
M  V30 1 2 1 2
M  V30 2 2 1 3
M  V30 3 1 1 4
M  V30 4 1 1 5
M  V30 5 2 4 6
M  V30 6 1 5 7
M  V30 7 1 6 8
M  V30 8 2 7 9
M  V30 9 1 7 10
M  V30 10 2 8 11
M  V30 11 1 8 12
M  V30 12 1 9 13
M  V30 13 2 10 14
M  V30 14 1 11 15
M  V30 15 1 11 16
M  V30 16 1 12 17
M  V30 17 2 12 18
M  V30 18 1 13 19
M  V30 19 2 13 20
M  V30 20 1 15 21
M  V30 21 2 16 22
M  V30 22 1 17 23
M  V30 23 1 19 24
M  V30 24 1 20 25
M  V30 25 1 22 26
M  V30 26 1 24 27
M  V30 27 1 25 28
M  V30 28 1 26 29
M  V30 29 2 27 30
M  V30 30 1 27 31
M  V30 31 1 14 20
M  V30 32 1 18 22
M  V30 END BOND
M  V30 END CTAB
M  END
>  <Molecule Name>
Compound 45

>  <Molecule Name 2>
Compound 45

>  <Compound ID>
31

>  <Name>
RIGOSERTIB

>  <Uniprot>
P15056

>  <Target>
BRAF

>  <Smiles>
COC1=CC(OC)=C(/C=C/S(=O)(=O)CC2=CC=C(OC)C(NCC(=O)O)=C2)C(OC)=C1

>  <Kd (nM)>
0.71

>  <Assay (Kd)>
Microscale thermophoresis

>  <Ki (nM)>


>  <Assay (Ki)>


>  <IC50 (nM)>


>  <Assay (IC50)>


>  <EC50 (nM)>


>  <Assay (EC50)>


>  <Article DOI>
10.1016/j.cell.2016.03.045

>  <Molecular Weight>
451.497

>  <Exact Mass>
451.1300878

>  <XLogP3>
2.54

>  <Heavy Atom Count>
31

>  <Ring Count>
2

>  <Hydrogen Bond Acceptor Count>
8

>  <Hydrogen Bond Donor Count>
2

>  <Rotatable Bond Count>
11

>  <Topological Polar Surface Area>
120.39

>  <Molecular Formula>
C21H25NO8S

>  <InChI>
InChI=1S/C21H25NO8S/c1-27-15-10-19(29-3)16(20(11-15)30-4)7-8-31(25,26)13-14-5-6-18(28-2)17(9-14)22-12-21(23)24/h5-11,22H,12-13H2,1-4H3,(H,23,24)/b8-7+

>  <InChI Key>
OWBFCJROIKNMGD-BQYQJAHWSA-N

>  <BindingDB>
50060917

>  <PubChem>
6918736

>  <ChEMBL>
CHEMBL1241855

$$$$
32
Actelion Java MolfileCreator 2.0

  0  0  0  0  0  0              0 V3000
M  V30 BEGIN CTAB
M  V30 COUNTS 33 37 0 0 0
M  V30 BEGIN ATOM
M  V30 1 O 0.866 -1.9999 0.0 0
M  V30 2 C 1.732 -1.4999 0.0 0
M  V30 3 N 2.598 -1.9999 0.0 0
M  V30 4 C 1.732 -0.5 0.0 0
M  V30 5 C 3.4641 -1.4999 0.0 0
M  V30 6 C 2.598 -3.0 0.0 0
M  V30 7 C 2.598 0.0 0.0 0
M  V30 8 C 0.866 0.0 0.0 0
M  V30 9 N 4.3301 -1.9999 0.0 0
M  V30 10 C 3.4641 -0.5 0.0 0
M  V30 11 C 1.789 -3.5877 0.0 0
M  V30 12 C 3.407 -3.5877 0.0 0
M  V30 13 C 2.598 1.0 0.0 0
M  V30 14 O 0.866 1.0 0.0 0
M  V30 15 C 0.0 -0.5 0.0 0
M  V30 16 C 5.1961 -1.4999 0.0 0
M  V30 17 C 4.3301 0.0 0.0 0
M  V30 18 C 2.098 -4.5388 0.0 0
M  V30 19 C 3.098 -4.5388 0.0 0
M  V30 20 N 5.1961 -0.5 0.0 0
M  V30 21 N 6.0621 -1.9999 0.0 0
M  V30 22 C 6.9282 -1.5 0.0 0
M  V30 23 N 7.7942 -2.0 0.0 0
M  V30 24 C 6.9282 -0.5 0.0 0
M  V30 25 C 8.6602 -1.5 0.0 0
M  V30 26 C 7.7942 0.0 0.0 0
M  V30 27 C 8.6602 -0.5 0.0 0
M  V30 28 N 9.5262 0.0 0.0 0
M  V30 29 C 10.3923 -0.5 0.0 0
M  V30 30 C 9.5262 0.9999 0.0 0
M  V30 31 C 11.2583 0.0 0.0 0
M  V30 32 C 10.3923 1.4999 0.0 0
M  V30 33 N 11.2583 0.9999 0.0 0
M  V30 END ATOM
M  V30 BEGIN BOND
M  V30 1 2 1 2
M  V30 2 1 2 3
M  V30 3 1 2 4
M  V30 4 1 3 5
M  V30 5 1 3 6
M  V30 6 2 4 7
M  V30 7 1 4 8
M  V30 8 2 5 9
M  V30 9 1 5 10
M  V30 10 1 6 11
M  V30 11 1 6 12
M  V30 12 1 7 13
M  V30 13 2 8 14
M  V30 14 1 8 15
M  V30 15 1 9 16
M  V30 16 2 10 17
M  V30 17 1 11 18
M  V30 18 1 12 19
M  V30 19 2 16 20
M  V30 20 1 16 21
M  V30 21 1 21 22
M  V30 22 2 22 23
M  V30 23 1 22 24
M  V30 24 1 23 25
M  V30 25 2 24 26
M  V30 26 2 25 27
M  V30 27 1 27 28
M  V30 28 1 28 29
M  V30 29 1 28 30
M  V30 30 1 29 31
M  V30 31 1 30 32
M  V30 32 1 31 33
M  V30 33 1 7 10
M  V30 34 1 17 20
M  V30 35 1 18 19
M  V30 36 1 26 27
M  V30 37 1 32 33
M  V30 END BOND
M  V30 END CTAB
M  END
>  <Molecule Name>
Compound 46

>  <Molecule Name 2>
Compound 46

>  <Compound ID>
32

>  <Name>
Palbociclib

>  <Uniprot>
O14874

>  <Target>
BCKDK

>  <Smiles>
CC(=O)C1=C(C)C2=CN=C(NC3=CC=C(N4CCNCC4)C=N3)N=C2N(C2CCCC2)C1=O

>  <Kd (nM)>


>  <Assay (Kd)>


>  <Ki (nM)>


>  <Assay (Ki)>


>  <IC50 (nM)>


>  <Assay (IC50)>


>  <EC50 (nM)>


>  <Assay (EC50)>


>  <Article DOI>
10.1016/j.cell.2020.10.038

>  <Molecular Weight>
447.543

>  <Exact Mass>
447.2382732

>  <XLogP3>
1.81

>  <Heavy Atom Count>
33

>  <Ring Count>
5

>  <Hydrogen Bond Acceptor Count>
9

>  <Hydrogen Bond Donor Count>
2

>  <Rotatable Bond Count>
5

>  <Topological Polar Surface Area>
105.04

>  <Molecular Formula>
C24H29N7O2

>  <InChI>
InChI=1S/C24H29N7O2/c1-15-19-14-27-24(28-20-8-7-18(13-26-20)30-11-9-25-10-12-30)29-22(19)31(17-5-3-4-6-17)23(33)21(15)16(2)32/h7-8,13-14,17,25H,3-6,9-12H2,1-2H3,(H,26,27,28,29)

>  <InChI Key>
AHJRHEGDXFFMBM-UHFFFAOYSA-N

>  <BindingDB>
6309

>  <PubChem>
5330286

>  <ChEMBL>
CHEMBL189963

$$$$
32
Actelion Java MolfileCreator 2.0

  0  0  0  0  0  0              0 V3000
M  V30 BEGIN CTAB
M  V30 COUNTS 33 37 0 0 0
M  V30 BEGIN ATOM
M  V30 1 O 0.866 -1.9999 0.0 0
M  V30 2 C 1.732 -1.4999 0.0 0
M  V30 3 N 2.598 -1.9999 0.0 0
M  V30 4 C 1.732 -0.5 0.0 0
M  V30 5 C 3.4641 -1.4999 0.0 0
M  V30 6 C 2.598 -3.0 0.0 0
M  V30 7 C 2.598 0.0 0.0 0
M  V30 8 C 0.866 0.0 0.0 0
M  V30 9 N 4.3301 -1.9999 0.0 0
M  V30 10 C 3.4641 -0.5 0.0 0
M  V30 11 C 1.789 -3.5877 0.0 0
M  V30 12 C 3.407 -3.5877 0.0 0
M  V30 13 C 2.598 1.0 0.0 0
M  V30 14 O 0.866 1.0 0.0 0
M  V30 15 C 0.0 -0.5 0.0 0
M  V30 16 C 5.1961 -1.4999 0.0 0
M  V30 17 C 4.3301 0.0 0.0 0
M  V30 18 C 2.098 -4.5388 0.0 0
M  V30 19 C 3.098 -4.5388 0.0 0
M  V30 20 N 5.1961 -0.5 0.0 0
M  V30 21 N 6.0621 -1.9999 0.0 0
M  V30 22 C 6.9282 -1.5 0.0 0
M  V30 23 N 7.7942 -2.0 0.0 0
M  V30 24 C 6.9282 -0.5 0.0 0
M  V30 25 C 8.6602 -1.5 0.0 0
M  V30 26 C 7.7942 0.0 0.0 0
M  V30 27 C 8.6602 -0.5 0.0 0
M  V30 28 N 9.5262 0.0 0.0 0
M  V30 29 C 10.3923 -0.5 0.0 0
M  V30 30 C 9.5262 0.9999 0.0 0
M  V30 31 C 11.2583 0.0 0.0 0
M  V30 32 C 10.3923 1.4999 0.0 0
M  V30 33 N 11.2583 0.9999 0.0 0
M  V30 END ATOM
M  V30 BEGIN BOND
M  V30 1 2 1 2
M  V30 2 1 2 3
M  V30 3 1 2 4
M  V30 4 1 3 5
M  V30 5 1 3 6
M  V30 6 2 4 7
M  V30 7 1 4 8
M  V30 8 2 5 9
M  V30 9 1 5 10
M  V30 10 1 6 11
M  V30 11 1 6 12
M  V30 12 1 7 13
M  V30 13 2 8 14
M  V30 14 1 8 15
M  V30 15 1 9 16
M  V30 16 2 10 17
M  V30 17 1 11 18
M  V30 18 1 12 19
M  V30 19 2 16 20
M  V30 20 1 16 21
M  V30 21 1 21 22
M  V30 22 2 22 23
M  V30 23 1 22 24
M  V30 24 1 23 25
M  V30 25 2 24 26
M  V30 26 2 25 27
M  V30 27 1 27 28
M  V30 28 1 28 29
M  V30 29 1 28 30
M  V30 30 1 29 31
M  V30 31 1 30 32
M  V30 32 1 31 33
M  V30 33 1 7 10
M  V30 34 1 17 20
M  V30 35 1 18 19
M  V30 36 1 26 27
M  V30 37 1 32 33
M  V30 END BOND
M  V30 END CTAB
M  END
>  <Molecule Name>
Compound 47

>  <Molecule Name 2>
Compound 47

>  <Compound ID>
32

>  <Name>
Palbociclib

>  <Uniprot>
P11802

>  <Target>
CDK4

>  <Smiles>
CC(=O)C1=C(C)C2=CN=C(NC3=CC=C(N4CCNCC4)C=N3)N=C2N(C2CCCC2)C1=O

>  <Kd (nM)>


>  <Assay (Kd)>


>  <Ki (nM)>


>  <Assay (Ki)>


>  <IC50 (nM)>


>  <Assay (IC50)>


>  <EC50 (nM)>


>  <Assay (EC50)>


>  <Article DOI>
10.1016/j.cell.2020.10.038

>  <Molecular Weight>
447.543

>  <Exact Mass>
447.2382732

>  <XLogP3>
1.81

>  <Heavy Atom Count>
33

>  <Ring Count>
5

>  <Hydrogen Bond Acceptor Count>
9

>  <Hydrogen Bond Donor Count>
2

>  <Rotatable Bond Count>
5

>  <Topological Polar Surface Area>
105.04

>  <Molecular Formula>
C24H29N7O2

>  <InChI>
InChI=1S/C24H29N7O2/c1-15-19-14-27-24(28-20-8-7-18(13-26-20)30-11-9-25-10-12-30)29-22(19)31(17-5-3-4-6-17)23(33)21(15)16(2)32/h7-8,13-14,17,25H,3-6,9-12H2,1-2H3,(H,26,27,28,29)

>  <InChI Key>
AHJRHEGDXFFMBM-UHFFFAOYSA-N

>  <BindingDB>
6309

>  <PubChem>
5330286

>  <ChEMBL>
CHEMBL189963

$$$$
32
Actelion Java MolfileCreator 2.0

  0  0  0  0  0  0              0 V3000
M  V30 BEGIN CTAB
M  V30 COUNTS 33 37 0 0 0
M  V30 BEGIN ATOM
M  V30 1 O 0.866 -1.9999 0.0 0
M  V30 2 C 1.732 -1.4999 0.0 0
M  V30 3 N 2.598 -1.9999 0.0 0
M  V30 4 C 1.732 -0.5 0.0 0
M  V30 5 C 3.4641 -1.4999 0.0 0
M  V30 6 C 2.598 -3.0 0.0 0
M  V30 7 C 2.598 0.0 0.0 0
M  V30 8 C 0.866 0.0 0.0 0
M  V30 9 N 4.3301 -1.9999 0.0 0
M  V30 10 C 3.4641 -0.5 0.0 0
M  V30 11 C 1.789 -3.5877 0.0 0
M  V30 12 C 3.407 -3.5877 0.0 0
M  V30 13 C 2.598 1.0 0.0 0
M  V30 14 O 0.866 1.0 0.0 0
M  V30 15 C 0.0 -0.5 0.0 0
M  V30 16 C 5.1961 -1.4999 0.0 0
M  V30 17 C 4.3301 0.0 0.0 0
M  V30 18 C 2.098 -4.5388 0.0 0
M  V30 19 C 3.098 -4.5388 0.0 0
M  V30 20 N 5.1961 -0.5 0.0 0
M  V30 21 N 6.0621 -1.9999 0.0 0
M  V30 22 C 6.9282 -1.5 0.0 0
M  V30 23 N 7.7942 -2.0 0.0 0
M  V30 24 C 6.9282 -0.5 0.0 0
M  V30 25 C 8.6602 -1.5 0.0 0
M  V30 26 C 7.7942 0.0 0.0 0
M  V30 27 C 8.6602 -0.5 0.0 0
M  V30 28 N 9.5262 0.0 0.0 0
M  V30 29 C 10.3923 -0.5 0.0 0
M  V30 30 C 9.5262 0.9999 0.0 0
M  V30 31 C 11.2583 0.0 0.0 0
M  V30 32 C 10.3923 1.4999 0.0 0
M  V30 33 N 11.2583 0.9999 0.0 0
M  V30 END ATOM
M  V30 BEGIN BOND
M  V30 1 2 1 2
M  V30 2 1 2 3
M  V30 3 1 2 4
M  V30 4 1 3 5
M  V30 5 1 3 6
M  V30 6 2 4 7
M  V30 7 1 4 8
M  V30 8 2 5 9
M  V30 9 1 5 10
M  V30 10 1 6 11
M  V30 11 1 6 12
M  V30 12 1 7 13
M  V30 13 2 8 14
M  V30 14 1 8 15
M  V30 15 1 9 16
M  V30 16 2 10 17
M  V30 17 1 11 18
M  V30 18 1 12 19
M  V30 19 2 16 20
M  V30 20 1 16 21
M  V30 21 1 21 22
M  V30 22 2 22 23
M  V30 23 1 22 24
M  V30 24 1 23 25
M  V30 25 2 24 26
M  V30 26 2 25 27
M  V30 27 1 27 28
M  V30 28 1 28 29
M  V30 29 1 28 30
M  V30 30 1 29 31
M  V30 31 1 30 32
M  V30 32 1 31 33
M  V30 33 1 7 10
M  V30 34 1 17 20
M  V30 35 1 18 19
M  V30 36 1 26 27
M  V30 37 1 32 33
M  V30 END BOND
M  V30 END CTAB
M  END
>  <Molecule Name>
Compound 48

>  <Molecule Name 2>
Compound 48

>  <Compound ID>
32

>  <Name>
Palbociclib

>  <Uniprot>
Q00534

>  <Target>
CDK6

>  <Smiles>
CC(=O)C1=C(C)C2=CN=C(NC3=CC=C(N4CCNCC4)C=N3)N=C2N(C2CCCC2)C1=O

>  <Kd (nM)>


>  <Assay (Kd)>


>  <Ki (nM)>


>  <Assay (Ki)>


>  <IC50 (nM)>
6.2/30.7

>  <Assay (IC50)>
IC50 of CDK6-cyclin D1/CDK6-cyclin D3

>  <EC50 (nM)>


>  <Assay (EC50)>


>  <Article DOI>
10.1016/j.chembiol.2018.11.006

>  <Molecular Weight>
447.543

>  <Exact Mass>
447.2382732

>  <XLogP3>
1.81

>  <Heavy Atom Count>
33

>  <Ring Count>
5

>  <Hydrogen Bond Acceptor Count>
9

>  <Hydrogen Bond Donor Count>
2

>  <Rotatable Bond Count>
5

>  <Topological Polar Surface Area>
105.04

>  <Molecular Formula>
C24H29N7O2

>  <InChI>
InChI=1S/C24H29N7O2/c1-15-19-14-27-24(28-20-8-7-18(13-26-20)30-11-9-25-10-12-30)29-22(19)31(17-5-3-4-6-17)23(33)21(15)16(2)32/h7-8,13-14,17,25H,3-6,9-12H2,1-2H3,(H,26,27,28,29)

>  <InChI Key>
AHJRHEGDXFFMBM-UHFFFAOYSA-N

>  <BindingDB>
6309

>  <PubChem>
5330286

>  <ChEMBL>
CHEMBL189963

$$$$
32
Actelion Java MolfileCreator 2.0

  0  0  0  0  0  0              0 V3000
M  V30 BEGIN CTAB
M  V30 COUNTS 33 37 0 0 0
M  V30 BEGIN ATOM
M  V30 1 O 0.866 -1.9999 0.0 0
M  V30 2 C 1.732 -1.4999 0.0 0
M  V30 3 N 2.598 -1.9999 0.0 0
M  V30 4 C 1.732 -0.5 0.0 0
M  V30 5 C 3.4641 -1.4999 0.0 0
M  V30 6 C 2.598 -3.0 0.0 0
M  V30 7 C 2.598 0.0 0.0 0
M  V30 8 C 0.866 0.0 0.0 0
M  V30 9 N 4.3301 -1.9999 0.0 0
M  V30 10 C 3.4641 -0.5 0.0 0
M  V30 11 C 1.789 -3.5877 0.0 0
M  V30 12 C 3.407 -3.5877 0.0 0
M  V30 13 C 2.598 1.0 0.0 0
M  V30 14 O 0.866 1.0 0.0 0
M  V30 15 C 0.0 -0.5 0.0 0
M  V30 16 C 5.1961 -1.4999 0.0 0
M  V30 17 C 4.3301 0.0 0.0 0
M  V30 18 C 2.098 -4.5388 0.0 0
M  V30 19 C 3.098 -4.5388 0.0 0
M  V30 20 N 5.1961 -0.5 0.0 0
M  V30 21 N 6.0621 -1.9999 0.0 0
M  V30 22 C 6.9282 -1.5 0.0 0
M  V30 23 N 7.7942 -2.0 0.0 0
M  V30 24 C 6.9282 -0.5 0.0 0
M  V30 25 C 8.6602 -1.5 0.0 0
M  V30 26 C 7.7942 0.0 0.0 0
M  V30 27 C 8.6602 -0.5 0.0 0
M  V30 28 N 9.5262 0.0 0.0 0
M  V30 29 C 10.3923 -0.5 0.0 0
M  V30 30 C 9.5262 0.9999 0.0 0
M  V30 31 C 11.2583 0.0 0.0 0
M  V30 32 C 10.3923 1.4999 0.0 0
M  V30 33 N 11.2583 0.9999 0.0 0
M  V30 END ATOM
M  V30 BEGIN BOND
M  V30 1 2 1 2
M  V30 2 1 2 3
M  V30 3 1 2 4
M  V30 4 1 3 5
M  V30 5 1 3 6
M  V30 6 2 4 7
M  V30 7 1 4 8
M  V30 8 2 5 9
M  V30 9 1 5 10
M  V30 10 1 6 11
M  V30 11 1 6 12
M  V30 12 1 7 13
M  V30 13 2 8 14
M  V30 14 1 8 15
M  V30 15 1 9 16
M  V30 16 2 10 17
M  V30 17 1 11 18
M  V30 18 1 12 19
M  V30 19 2 16 20
M  V30 20 1 16 21
M  V30 21 1 21 22
M  V30 22 2 22 23
M  V30 23 1 22 24
M  V30 24 1 23 25
M  V30 25 2 24 26
M  V30 26 2 25 27
M  V30 27 1 27 28
M  V30 28 1 28 29
M  V30 29 1 28 30
M  V30 30 1 29 31
M  V30 31 1 30 32
M  V30 32 1 31 33
M  V30 33 1 7 10
M  V30 34 1 17 20
M  V30 35 1 18 19
M  V30 36 1 26 27
M  V30 37 1 32 33
M  V30 END BOND
M  V30 END CTAB
M  END
>  <Molecule Name>
Compound 49

>  <Molecule Name 2>
Compound 49

>  <Compound ID>
32

>  <Name>
Palbociclib

>  <Uniprot>
Q8NI60

>  <Target>
COQ8A

>  <Smiles>
CC(=O)C1=C(C)C2=CN=C(NC3=CC=C(N4CCNCC4)C=N3)N=C2N(C2CCCC2)C1=O

>  <Kd (nM)>


>  <Assay (Kd)>


>  <Ki (nM)>


>  <Assay (Ki)>


>  <IC50 (nM)>


>  <Assay (IC50)>


>  <EC50 (nM)>


>  <Assay (EC50)>


>  <Article DOI>
10.1016/j.cell.2020.10.038

>  <Molecular Weight>
447.543

>  <Exact Mass>
447.2382732

>  <XLogP3>
1.81

>  <Heavy Atom Count>
33

>  <Ring Count>
5

>  <Hydrogen Bond Acceptor Count>
9

>  <Hydrogen Bond Donor Count>
2

>  <Rotatable Bond Count>
5

>  <Topological Polar Surface Area>
105.04

>  <Molecular Formula>
C24H29N7O2

>  <InChI>
InChI=1S/C24H29N7O2/c1-15-19-14-27-24(28-20-8-7-18(13-26-20)30-11-9-25-10-12-30)29-22(19)31(17-5-3-4-6-17)23(33)21(15)16(2)32/h7-8,13-14,17,25H,3-6,9-12H2,1-2H3,(H,26,27,28,29)

>  <InChI Key>
AHJRHEGDXFFMBM-UHFFFAOYSA-N

>  <BindingDB>
6309

>  <PubChem>
5330286

>  <ChEMBL>
CHEMBL189963

$$$$
32
Actelion Java MolfileCreator 2.0

  0  0  0  0  0  0              0 V3000
M  V30 BEGIN CTAB
M  V30 COUNTS 33 37 0 0 0
M  V30 BEGIN ATOM
M  V30 1 O 0.866 -1.9999 0.0 0
M  V30 2 C 1.732 -1.4999 0.0 0
M  V30 3 N 2.598 -1.9999 0.0 0
M  V30 4 C 1.732 -0.5 0.0 0
M  V30 5 C 3.4641 -1.4999 0.0 0
M  V30 6 C 2.598 -3.0 0.0 0
M  V30 7 C 2.598 0.0 0.0 0
M  V30 8 C 0.866 0.0 0.0 0
M  V30 9 N 4.3301 -1.9999 0.0 0
M  V30 10 C 3.4641 -0.5 0.0 0
M  V30 11 C 1.789 -3.5877 0.0 0
M  V30 12 C 3.407 -3.5877 0.0 0
M  V30 13 C 2.598 1.0 0.0 0
M  V30 14 O 0.866 1.0 0.0 0
M  V30 15 C 0.0 -0.5 0.0 0
M  V30 16 C 5.1961 -1.4999 0.0 0
M  V30 17 C 4.3301 0.0 0.0 0
M  V30 18 C 2.098 -4.5388 0.0 0
M  V30 19 C 3.098 -4.5388 0.0 0
M  V30 20 N 5.1961 -0.5 0.0 0
M  V30 21 N 6.0621 -1.9999 0.0 0
M  V30 22 C 6.9282 -1.5 0.0 0
M  V30 23 N 7.7942 -2.0 0.0 0
M  V30 24 C 6.9282 -0.5 0.0 0
M  V30 25 C 8.6602 -1.5 0.0 0
M  V30 26 C 7.7942 0.0 0.0 0
M  V30 27 C 8.6602 -0.5 0.0 0
M  V30 28 N 9.5262 0.0 0.0 0
M  V30 29 C 10.3923 -0.5 0.0 0
M  V30 30 C 9.5262 0.9999 0.0 0
M  V30 31 C 11.2583 0.0 0.0 0
M  V30 32 C 10.3923 1.4999 0.0 0
M  V30 33 N 11.2583 0.9999 0.0 0
M  V30 END ATOM
M  V30 BEGIN BOND
M  V30 1 2 1 2
M  V30 2 1 2 3
M  V30 3 1 2 4
M  V30 4 1 3 5
M  V30 5 1 3 6
M  V30 6 2 4 7
M  V30 7 1 4 8
M  V30 8 2 5 9
M  V30 9 1 5 10
M  V30 10 1 6 11
M  V30 11 1 6 12
M  V30 12 1 7 13
M  V30 13 2 8 14
M  V30 14 1 8 15
M  V30 15 1 9 16
M  V30 16 2 10 17
M  V30 17 1 11 18
M  V30 18 1 12 19
M  V30 19 2 16 20
M  V30 20 1 16 21
M  V30 21 1 21 22
M  V30 22 2 22 23
M  V30 23 1 22 24
M  V30 24 1 23 25
M  V30 25 2 24 26
M  V30 26 2 25 27
M  V30 27 1 27 28
M  V30 28 1 28 29
M  V30 29 1 28 30
M  V30 30 1 29 31
M  V30 31 1 30 32
M  V30 32 1 31 33
M  V30 33 1 7 10
M  V30 34 1 17 20
M  V30 35 1 18 19
M  V30 36 1 26 27
M  V30 37 1 32 33
M  V30 END BOND
M  V30 END CTAB
M  END
>  <Molecule Name>
Compound 50

>  <Molecule Name 2>
Compound 50

>  <Compound ID>
32

>  <Name>
Palbociclib

>  <Uniprot>
Q15118

>  <Target>
PDK1

>  <Smiles>
CC(=O)C1=C(C)C2=CN=C(NC3=CC=C(N4CCNCC4)C=N3)N=C2N(C2CCCC2)C1=O

>  <Kd (nM)>


>  <Assay (Kd)>


>  <Ki (nM)>


>  <Assay (Ki)>


>  <IC50 (nM)>


>  <Assay (IC50)>


>  <EC50 (nM)>


>  <Assay (EC50)>


>  <Article DOI>
10.1016/j.cell.2020.10.038

>  <Molecular Weight>
447.543

>  <Exact Mass>
447.2382732

>  <XLogP3>
1.81

>  <Heavy Atom Count>
33

>  <Ring Count>
5

>  <Hydrogen Bond Acceptor Count>
9

>  <Hydrogen Bond Donor Count>
2

>  <Rotatable Bond Count>
5

>  <Topological Polar Surface Area>
105.04

>  <Molecular Formula>
C24H29N7O2

>  <InChI>
InChI=1S/C24H29N7O2/c1-15-19-14-27-24(28-20-8-7-18(13-26-20)30-11-9-25-10-12-30)29-22(19)31(17-5-3-4-6-17)23(33)21(15)16(2)32/h7-8,13-14,17,25H,3-6,9-12H2,1-2H3,(H,26,27,28,29)

>  <InChI Key>
AHJRHEGDXFFMBM-UHFFFAOYSA-N

>  <BindingDB>
6309

>  <PubChem>
5330286

>  <ChEMBL>
CHEMBL189963

$$$$
32
Actelion Java MolfileCreator 2.0

  0  0  0  0  0  0              0 V3000
M  V30 BEGIN CTAB
M  V30 COUNTS 33 37 0 0 0
M  V30 BEGIN ATOM
M  V30 1 O 0.866 -1.9999 0.0 0
M  V30 2 C 1.732 -1.4999 0.0 0
M  V30 3 N 2.598 -1.9999 0.0 0
M  V30 4 C 1.732 -0.5 0.0 0
M  V30 5 C 3.4641 -1.4999 0.0 0
M  V30 6 C 2.598 -3.0 0.0 0
M  V30 7 C 2.598 0.0 0.0 0
M  V30 8 C 0.866 0.0 0.0 0
M  V30 9 N 4.3301 -1.9999 0.0 0
M  V30 10 C 3.4641 -0.5 0.0 0
M  V30 11 C 1.789 -3.5877 0.0 0
M  V30 12 C 3.407 -3.5877 0.0 0
M  V30 13 C 2.598 1.0 0.0 0
M  V30 14 O 0.866 1.0 0.0 0
M  V30 15 C 0.0 -0.5 0.0 0
M  V30 16 C 5.1961 -1.4999 0.0 0
M  V30 17 C 4.3301 0.0 0.0 0
M  V30 18 C 2.098 -4.5388 0.0 0
M  V30 19 C 3.098 -4.5388 0.0 0
M  V30 20 N 5.1961 -0.5 0.0 0
M  V30 21 N 6.0621 -1.9999 0.0 0
M  V30 22 C 6.9282 -1.5 0.0 0
M  V30 23 N 7.7942 -2.0 0.0 0
M  V30 24 C 6.9282 -0.5 0.0 0
M  V30 25 C 8.6602 -1.5 0.0 0
M  V30 26 C 7.7942 0.0 0.0 0
M  V30 27 C 8.6602 -0.5 0.0 0
M  V30 28 N 9.5262 0.0 0.0 0
M  V30 29 C 10.3923 -0.5 0.0 0
M  V30 30 C 9.5262 0.9999 0.0 0
M  V30 31 C 11.2583 0.0 0.0 0
M  V30 32 C 10.3923 1.4999 0.0 0
M  V30 33 N 11.2583 0.9999 0.0 0
M  V30 END ATOM
M  V30 BEGIN BOND
M  V30 1 2 1 2
M  V30 2 1 2 3
M  V30 3 1 2 4
M  V30 4 1 3 5
M  V30 5 1 3 6
M  V30 6 2 4 7
M  V30 7 1 4 8
M  V30 8 2 5 9
M  V30 9 1 5 10
M  V30 10 1 6 11
M  V30 11 1 6 12
M  V30 12 1 7 13
M  V30 13 2 8 14
M  V30 14 1 8 15
M  V30 15 1 9 16
M  V30 16 2 10 17
M  V30 17 1 11 18
M  V30 18 1 12 19
M  V30 19 2 16 20
M  V30 20 1 16 21
M  V30 21 1 21 22
M  V30 22 2 22 23
M  V30 23 1 22 24
M  V30 24 1 23 25
M  V30 25 2 24 26
M  V30 26 2 25 27
M  V30 27 1 27 28
M  V30 28 1 28 29
M  V30 29 1 28 30
M  V30 30 1 29 31
M  V30 31 1 30 32
M  V30 32 1 31 33
M  V30 33 1 7 10
M  V30 34 1 17 20
M  V30 35 1 18 19
M  V30 36 1 26 27
M  V30 37 1 32 33
M  V30 END BOND
M  V30 END CTAB
M  END
>  <Molecule Name>
Compound 51

>  <Molecule Name 2>
Compound 51

>  <Compound ID>
32

>  <Name>
Palbociclib

>  <Uniprot>
Q15119

>  <Target>
PDK2

>  <Smiles>
CC(=O)C1=C(C)C2=CN=C(NC3=CC=C(N4CCNCC4)C=N3)N=C2N(C2CCCC2)C1=O

>  <Kd (nM)>


>  <Assay (Kd)>


>  <Ki (nM)>


>  <Assay (Ki)>


>  <IC50 (nM)>


>  <Assay (IC50)>


>  <EC50 (nM)>


>  <Assay (EC50)>


>  <Article DOI>
10.1016/j.cell.2020.10.038

>  <Molecular Weight>
447.543

>  <Exact Mass>
447.2382732

>  <XLogP3>
1.81

>  <Heavy Atom Count>
33

>  <Ring Count>
5

>  <Hydrogen Bond Acceptor Count>
9

>  <Hydrogen Bond Donor Count>
2

>  <Rotatable Bond Count>
5

>  <Topological Polar Surface Area>
105.04

>  <Molecular Formula>
C24H29N7O2

>  <InChI>
InChI=1S/C24H29N7O2/c1-15-19-14-27-24(28-20-8-7-18(13-26-20)30-11-9-25-10-12-30)29-22(19)31(17-5-3-4-6-17)23(33)21(15)16(2)32/h7-8,13-14,17,25H,3-6,9-12H2,1-2H3,(H,26,27,28,29)

>  <InChI Key>
AHJRHEGDXFFMBM-UHFFFAOYSA-N

>  <BindingDB>
6309

>  <PubChem>
5330286

>  <ChEMBL>
CHEMBL189963

$$$$
32
Actelion Java MolfileCreator 2.0

  0  0  0  0  0  0              0 V3000
M  V30 BEGIN CTAB
M  V30 COUNTS 33 37 0 0 0
M  V30 BEGIN ATOM
M  V30 1 O 0.866 -1.9999 0.0 0
M  V30 2 C 1.732 -1.4999 0.0 0
M  V30 3 N 2.598 -1.9999 0.0 0
M  V30 4 C 1.732 -0.5 0.0 0
M  V30 5 C 3.4641 -1.4999 0.0 0
M  V30 6 C 2.598 -3.0 0.0 0
M  V30 7 C 2.598 0.0 0.0 0
M  V30 8 C 0.866 0.0 0.0 0
M  V30 9 N 4.3301 -1.9999 0.0 0
M  V30 10 C 3.4641 -0.5 0.0 0
M  V30 11 C 1.789 -3.5877 0.0 0
M  V30 12 C 3.407 -3.5877 0.0 0
M  V30 13 C 2.598 1.0 0.0 0
M  V30 14 O 0.866 1.0 0.0 0
M  V30 15 C 0.0 -0.5 0.0 0
M  V30 16 C 5.1961 -1.4999 0.0 0
M  V30 17 C 4.3301 0.0 0.0 0
M  V30 18 C 2.098 -4.5388 0.0 0
M  V30 19 C 3.098 -4.5388 0.0 0
M  V30 20 N 5.1961 -0.5 0.0 0
M  V30 21 N 6.0621 -1.9999 0.0 0
M  V30 22 C 6.9282 -1.5 0.0 0
M  V30 23 N 7.7942 -2.0 0.0 0
M  V30 24 C 6.9282 -0.5 0.0 0
M  V30 25 C 8.6602 -1.5 0.0 0
M  V30 26 C 7.7942 0.0 0.0 0
M  V30 27 C 8.6602 -0.5 0.0 0
M  V30 28 N 9.5262 0.0 0.0 0
M  V30 29 C 10.3923 -0.5 0.0 0
M  V30 30 C 9.5262 0.9999 0.0 0
M  V30 31 C 11.2583 0.0 0.0 0
M  V30 32 C 10.3923 1.4999 0.0 0
M  V30 33 N 11.2583 0.9999 0.0 0
M  V30 END ATOM
M  V30 BEGIN BOND
M  V30 1 2 1 2
M  V30 2 1 2 3
M  V30 3 1 2 4
M  V30 4 1 3 5
M  V30 5 1 3 6
M  V30 6 2 4 7
M  V30 7 1 4 8
M  V30 8 2 5 9
M  V30 9 1 5 10
M  V30 10 1 6 11
M  V30 11 1 6 12
M  V30 12 1 7 13
M  V30 13 2 8 14
M  V30 14 1 8 15
M  V30 15 1 9 16
M  V30 16 2 10 17
M  V30 17 1 11 18
M  V30 18 1 12 19
M  V30 19 2 16 20
M  V30 20 1 16 21
M  V30 21 1 21 22
M  V30 22 2 22 23
M  V30 23 1 22 24
M  V30 24 1 23 25
M  V30 25 2 24 26
M  V30 26 2 25 27
M  V30 27 1 27 28
M  V30 28 1 28 29
M  V30 29 1 28 30
M  V30 30 1 29 31
M  V30 31 1 30 32
M  V30 32 1 31 33
M  V30 33 1 7 10
M  V30 34 1 17 20
M  V30 35 1 18 19
M  V30 36 1 26 27
M  V30 37 1 32 33
M  V30 END BOND
M  V30 END CTAB
M  END
>  <Molecule Name>
Compound 52

>  <Molecule Name 2>
Compound 52

>  <Compound ID>
32

>  <Name>
Palbociclib

>  <Uniprot>
Q15120

>  <Target>
PDK3

>  <Smiles>
CC(=O)C1=C(C)C2=CN=C(NC3=CC=C(N4CCNCC4)C=N3)N=C2N(C2CCCC2)C1=O

>  <Kd (nM)>


>  <Assay (Kd)>


>  <Ki (nM)>


>  <Assay (Ki)>


>  <IC50 (nM)>


>  <Assay (IC50)>


>  <EC50 (nM)>


>  <Assay (EC50)>


>  <Article DOI>
10.1016/j.cell.2020.10.038

>  <Molecular Weight>
447.543

>  <Exact Mass>
447.2382732

>  <XLogP3>
1.81

>  <Heavy Atom Count>
33

>  <Ring Count>
5

>  <Hydrogen Bond Acceptor Count>
9

>  <Hydrogen Bond Donor Count>
2

>  <Rotatable Bond Count>
5

>  <Topological Polar Surface Area>
105.04

>  <Molecular Formula>
C24H29N7O2

>  <InChI>
InChI=1S/C24H29N7O2/c1-15-19-14-27-24(28-20-8-7-18(13-26-20)30-11-9-25-10-12-30)29-22(19)31(17-5-3-4-6-17)23(33)21(15)16(2)32/h7-8,13-14,17,25H,3-6,9-12H2,1-2H3,(H,26,27,28,29)

>  <InChI Key>
AHJRHEGDXFFMBM-UHFFFAOYSA-N

>  <BindingDB>
6309

>  <PubChem>
5330286

>  <ChEMBL>
CHEMBL189963

$$$$
32
Actelion Java MolfileCreator 2.0

  0  0  0  0  0  0              0 V3000
M  V30 BEGIN CTAB
M  V30 COUNTS 33 37 0 0 0
M  V30 BEGIN ATOM
M  V30 1 O 0.866 -1.9999 0.0 0
M  V30 2 C 1.732 -1.4999 0.0 0
M  V30 3 N 2.598 -1.9999 0.0 0
M  V30 4 C 1.732 -0.5 0.0 0
M  V30 5 C 3.4641 -1.4999 0.0 0
M  V30 6 C 2.598 -3.0 0.0 0
M  V30 7 C 2.598 0.0 0.0 0
M  V30 8 C 0.866 0.0 0.0 0
M  V30 9 N 4.3301 -1.9999 0.0 0
M  V30 10 C 3.4641 -0.5 0.0 0
M  V30 11 C 1.789 -3.5877 0.0 0
M  V30 12 C 3.407 -3.5877 0.0 0
M  V30 13 C 2.598 1.0 0.0 0
M  V30 14 O 0.866 1.0 0.0 0
M  V30 15 C 0.0 -0.5 0.0 0
M  V30 16 C 5.1961 -1.4999 0.0 0
M  V30 17 C 4.3301 0.0 0.0 0
M  V30 18 C 2.098 -4.5388 0.0 0
M  V30 19 C 3.098 -4.5388 0.0 0
M  V30 20 N 5.1961 -0.5 0.0 0
M  V30 21 N 6.0621 -1.9999 0.0 0
M  V30 22 C 6.9282 -1.5 0.0 0
M  V30 23 N 7.7942 -2.0 0.0 0
M  V30 24 C 6.9282 -0.5 0.0 0
M  V30 25 C 8.6602 -1.5 0.0 0
M  V30 26 C 7.7942 0.0 0.0 0
M  V30 27 C 8.6602 -0.5 0.0 0
M  V30 28 N 9.5262 0.0 0.0 0
M  V30 29 C 10.3923 -0.5 0.0 0
M  V30 30 C 9.5262 0.9999 0.0 0
M  V30 31 C 11.2583 0.0 0.0 0
M  V30 32 C 10.3923 1.4999 0.0 0
M  V30 33 N 11.2583 0.9999 0.0 0
M  V30 END ATOM
M  V30 BEGIN BOND
M  V30 1 2 1 2
M  V30 2 1 2 3
M  V30 3 1 2 4
M  V30 4 1 3 5
M  V30 5 1 3 6
M  V30 6 2 4 7
M  V30 7 1 4 8
M  V30 8 2 5 9
M  V30 9 1 5 10
M  V30 10 1 6 11
M  V30 11 1 6 12
M  V30 12 1 7 13
M  V30 13 2 8 14
M  V30 14 1 8 15
M  V30 15 1 9 16
M  V30 16 2 10 17
M  V30 17 1 11 18
M  V30 18 1 12 19
M  V30 19 2 16 20
M  V30 20 1 16 21
M  V30 21 1 21 22
M  V30 22 2 22 23
M  V30 23 1 22 24
M  V30 24 1 23 25
M  V30 25 2 24 26
M  V30 26 2 25 27
M  V30 27 1 27 28
M  V30 28 1 28 29
M  V30 29 1 28 30
M  V30 30 1 29 31
M  V30 31 1 30 32
M  V30 32 1 31 33
M  V30 33 1 7 10
M  V30 34 1 17 20
M  V30 35 1 18 19
M  V30 36 1 26 27
M  V30 37 1 32 33
M  V30 END BOND
M  V30 END CTAB
M  END
>  <Molecule Name>
Compound 53

>  <Molecule Name 2>
Compound 53

>  <Compound ID>
32

>  <Name>
Palbociclib

>  <Uniprot>
P30291

>  <Target>
Wee1

>  <Smiles>
CC(=O)C1=C(C)C2=CN=C(NC3=CC=C(N4CCNCC4)C=N3)N=C2N(C2CCCC2)C1=O

>  <Kd (nM)>
>30000

>  <Assay (Kd)>
Kd apparent of Wee1

>  <Ki (nM)>


>  <Assay (Ki)>


>  <IC50 (nM)>


>  <Assay (IC50)>


>  <EC50 (nM)>


>  <Assay (EC50)>


>  <Article DOI>
10.1126/science.aan4368

>  <Molecular Weight>
447.543

>  <Exact Mass>
447.2382732

>  <XLogP3>
1.81

>  <Heavy Atom Count>
33

>  <Ring Count>
5

>  <Hydrogen Bond Acceptor Count>
9

>  <Hydrogen Bond Donor Count>
2

>  <Rotatable Bond Count>
5

>  <Topological Polar Surface Area>
105.04

>  <Molecular Formula>
C24H29N7O2

>  <InChI>
InChI=1S/C24H29N7O2/c1-15-19-14-27-24(28-20-8-7-18(13-26-20)30-11-9-25-10-12-30)29-22(19)31(17-5-3-4-6-17)23(33)21(15)16(2)32/h7-8,13-14,17,25H,3-6,9-12H2,1-2H3,(H,26,27,28,29)

>  <InChI Key>
AHJRHEGDXFFMBM-UHFFFAOYSA-N

>  <BindingDB>
6309

>  <PubChem>
5330286

>  <ChEMBL>
CHEMBL189963

$$$$
33
Actelion Java MolfileCreator 2.0

  0  0  0  0  0  0              0 V3000
M  V30 BEGIN CTAB
M  V30 COUNTS 31 33 0 0 0
M  V30 BEGIN ATOM
M  V30 1 F 10.3923 -0.5 0.0 0
M  V30 2 C 9.5262 0.0 0.0 0
M  V30 3 C 9.5262 0.9999 0.0 0
M  V30 4 C 8.6602 -0.5 0.0 0
M  V30 5 N 8.6602 1.4999 0.0 0
M  V30 6 N 10.3923 1.4999 0.0 0
M  V30 7 N 7.7942 0.0 0.0 0
M  V30 8 C 7.7942 0.9999 0.0 0
M  V30 9 C 10.3923 2.4999 0.0 0
M  V30 10 N 6.9282 1.4999 0.0 0
M  V30 11 C 11.2583 2.9999 0.0 0
M  V30 12 C 9.5262 2.9999 0.0 0
M  V30 13 C 6.0621 0.9999 0.0 0
M  V30 14 C 11.2583 3.9999 0.0 0
M  V30 15 C 9.5262 3.9999 0.0 0
M  V30 16 C 5.1961 1.4999 0.0 0
M  V30 17 C 6.0621 0.0 0.0 0
M  V30 18 N 12.1243 4.4999 0.0 0
M  V30 19 C 10.3923 4.4999 0.0 0
M  V30 20 C 4.3301 0.9999 0.0 0
M  V30 21 C 5.1961 -0.5 0.0 0
M  V30 22 C 12.1243 5.4999 0.0 0
M  V30 23 C 4.3301 0.0 0.0 0
M  V30 24 O 11.2583 5.9999 0.0 0
M  V30 25 C 12.9903 5.9999 0.0 0
M  V30 26 O 3.4641 -0.5 0.0 0
M  V30 27 C 12.9903 6.9999 0.0 0
M  V30 28 C 2.598 0.0 0.0 0
M  V30 29 C 1.732 -0.5 0.0 0
M  V30 30 O 0.866 0.0 0.0 0
M  V30 31 C 0.0 -0.5 0.0 0
M  V30 END ATOM
M  V30 BEGIN BOND
M  V30 1 1 1 2
M  V30 2 2 2 3
M  V30 3 1 2 4
M  V30 4 1 3 5
M  V30 5 1 3 6
M  V30 6 2 4 7
M  V30 7 2 5 8
M  V30 8 1 6 9
M  V30 9 1 8 10
M  V30 10 2 9 11
M  V30 11 1 9 12
M  V30 12 1 10 13
M  V30 13 1 11 14
M  V30 14 2 12 15
M  V30 15 2 13 16
M  V30 16 1 13 17
M  V30 17 1 14 18
M  V30 18 2 14 19
M  V30 19 1 16 20
M  V30 20 2 17 21
M  V30 21 1 18 22
M  V30 22 2 20 23
M  V30 23 2 22 24
M  V30 24 1 22 25
M  V30 25 1 23 26
M  V30 26 2 25 27
M  V30 27 1 26 28
M  V30 28 1 28 29
M  V30 29 1 29 30
M  V30 30 1 30 31
M  V30 31 1 7 8
M  V30 32 1 15 19
M  V30 33 1 21 23
M  V30 END BOND
M  V30 END CTAB
M  END
>  <Molecule Name>
Compound 54

>  <Molecule Name 2>
Compound 54

>  <Compound ID>
33

>  <Name>
Spebrutinib

>  <Uniprot>
Q06187

>  <Target>
BTK

>  <Smiles>
C=CC(=O)NC1=CC=CC(NC2=NC(NC3=CC=C(OCCOC)C=C3)=NC=C2F)=C1

>  <Kd (nM)>


>  <Assay (Kd)>


>  <Ki (nM)>


>  <Assay (Ki)>


>  <IC50 (nM)>
0.72

>  <Assay (IC50)>
IC50 of BTK was assessed by ADP-Glo luminescence assay

>  <EC50 (nM)>


>  <Assay (EC50)>


>  <Article DOI>
10.1016/j.ejmech.2016.11.047

>  <Molecular Weight>
423.448

>  <Exact Mass>
423.1706678

>  <XLogP3>
3.64

>  <Heavy Atom Count>
31

>  <Ring Count>
3

>  <Hydrogen Bond Acceptor Count>
7

>  <Hydrogen Bond Donor Count>
3

>  <Rotatable Bond Count>
10

>  <Topological Polar Surface Area>
97.4

>  <Molecular Formula>
C22H22FN5O3

>  <InChI>
InChI=1S/C22H22FN5O3/c1-3-20(29)25-16-5-4-6-17(13-16)26-21-19(23)14-24-22(28-21)27-15-7-9-18(10-8-15)31-12-11-30-2/h3-10,13-14H,1,11-12H2,2H3,(H,25,29)(H2,24,26,27,28)

>  <InChI Key>
KXBDTLQSDKGAEB-UHFFFAOYSA-N

>  <BindingDB>
50161162

>  <PubChem>
59174488

>  <ChEMBL>
CHEMBL3301625

$$$$
34
Actelion Java MolfileCreator 2.0

  0  0  0  0  0  0              0 V3000
M  V30 BEGIN CTAB
M  V30 COUNTS 38 42 0 0 0
M  V30 BEGIN ATOM
M  V30 1 Cl 9.5262 3.0 0.0 0
M  V30 2 C 8.6602 2.5 0.0 0
M  V30 3 C 7.7942 2.9999 0.0 0
M  V30 4 C 8.6602 1.4999 0.0 0
M  V30 5 N 6.9282 2.4999 0.0 0
M  V30 6 N 7.7942 4.0 0.0 0
M  V30 7 N 7.7942 1.0 0.0 0
M  V30 8 C 6.9282 1.4999 0.0 0
M  V30 9 C 6.9282 4.5 0.0 0
M  V30 10 N 6.0621 0.9999 0.0 0
M  V30 11 C 6.0621 4.0 0.0 0
M  V30 12 C 6.9282 5.4999 0.0 0
M  V30 13 C 5.1961 1.4999 0.0 0 CFG=1
M  V30 14 C 6.0621 0.0 0.0 0
M  V30 15 C 5.1961 4.5 0.0 0
M  V30 16 C 6.0621 6.0 0.0 0
M  V30 17 C 4.2051 0.8749 0.0 0
M  V30 18 C 4.3257 1.1546 0.0 0
M  V30 19 C 5.1961 -0.5 0.0 0
M  V30 20 O 4.3301 3.9999 0.0 0
M  V30 21 C 5.1961 5.4999 0.0 0
M  V30 22 C 6.0621 6.9999 0.0 0
M  V30 23 O 3.4641 1.4999 0.0 0
M  V30 24 N 4.3301 0.0 0.0 0
M  V30 25 C 4.3301 2.9999 0.0 0
M  V30 26 N 4.3301 6.0 0.0 0
M  V30 27 C 5.1961 7.4999 0.0 0
M  V30 28 C 3.4641 2.4999 0.0 0
M  V30 29 C 3.4641 -0.5 0.0 0
M  V30 30 C 4.3301 6.9999 0.0 0
M  V30 31 C 3.4641 5.5 0.0 0
M  V30 32 O 3.4641 -1.5 0.0 0
M  V30 33 C 2.598 0.0 0.0 0
M  V30 34 O 3.4641 7.5 0.0 0
M  V30 35 C 1.732 -0.5 0.0 0
M  V30 36 C 0.866 0.0 0.0 0
M  V30 37 C 0.866 1.0 0.0 0
M  V30 38 C 0.0 -0.5 0.0 0
M  V30 END ATOM
M  V30 BEGIN BOND
M  V30 1 1 1 2
M  V30 2 2 2 3
M  V30 3 1 2 4
M  V30 4 1 3 5
M  V30 5 1 3 6
M  V30 6 2 4 7
M  V30 7 2 5 8
M  V30 8 1 6 9
M  V30 9 1 8 10
M  V30 10 2 9 11
M  V30 11 1 9 12
M  V30 12 1 13 10 CFG=1
M  V30 13 1 10 14
M  V30 14 1 11 15
M  V30 15 2 12 16
M  V30 16 1 13 17
M  V30 17 1 13 18
M  V30 18 1 14 19
M  V30 19 1 15 20
M  V30 20 2 15 21
M  V30 21 1 16 22
M  V30 22 1 17 23
M  V30 23 1 18 24
M  V30 24 1 20 25
M  V30 25 1 21 26
M  V30 26 1 22 27
M  V30 27 1 23 28
M  V30 28 1 24 29
M  V30 29 1 26 30
M  V30 30 1 26 31
M  V30 31 2 29 32
M  V30 32 1 29 33
M  V30 33 2 30 34
M  V30 34 1 33 35
M  V30 35 1 35 36
M  V30 36 1 36 37
M  V30 37 1 36 38
M  V30 38 1 7 8
M  V30 39 1 16 21
M  V30 40 1 19 24
M  V30 41 1 25 28
M  V30 42 1 27 30
M  V30 END BOND
M  V30 BEGIN COLLECTION
M  V30 MDLV30/STEABS ATOMS=(1 13)
M  V30 END COLLECTION
M  V30 END CTAB
M  END
>  <Molecule Name>
Compound 55

>  <Molecule Name 2>
Compound 55

>  <Compound ID>
34

>  <Name>


>  <Uniprot>
P41182

>  <Target>
BCL6

>  <Smiles>
CC(C)CCC(=O)N1CCN2C3=NC=C(Cl)C(=N3)NC3=CC4=C(C(=C3)OCCOC[C@H]2C1)N(C)C(=O)CC4

>  <Kd (nM)>


>  <Assay (Kd)>


>  <Ki (nM)>


>  <Assay (Ki)>


>  <IC50 (nM)>
63

>  <Assay (IC50)>
IC50 of BCL6 was assessed by a time resolved fluorescence resonance energy transfer assay

>  <EC50 (nM)>


>  <Assay (EC50)>


>  <Article DOI>
10.1021/acschembio.8b00698

>  <Molecular Weight>
543.068

>  <Exact Mass>
542.2408313

>  <XLogP3>
3.05

>  <Heavy Atom Count>
38

>  <Ring Count>
5

>  <Hydrogen Bond Acceptor Count>
8

>  <Hydrogen Bond Donor Count>
1

>  <Rotatable Bond Count>
3

>  <Topological Polar Surface Area>
100.13

>  <Molecular Formula>
C27H35ClN6O4

>  <InChI>
InChI=1S/C27H35ClN6O4/c1-17(2)4-6-24(36)33-8-9-34-20(15-33)16-37-10-11-38-22-13-19(30-26-21(28)14-29-27(34)31-26)12-18-5-7-23(35)32(3)25(18)22/h12-14,17,20H,4-11,15-16H2,1-3H3,(H,29,30,31)/t20-/m1/s1

>  <InChI Key>
GPOLUVUMJCGZBW-HXUWFJFHSA-N

>  <BindingDB>


>  <PubChem>


>  <ChEMBL>


$$$$
35
Actelion Java MolfileCreator 2.0

  0  0  0  0  0  0              0 V3000
M  V30 BEGIN CTAB
M  V30 COUNTS 35 37 0 0 0
M  V30 BEGIN ATOM
M  V30 1 S 0.866 3.9999 0.0 0
M  V30 2 O -0.1339 3.9999 0.0 0
M  V30 3 O 1.866 4.0 0.0 0
M  V30 4 N 0.866 3.0 0.0 0
M  V30 5 C 0.866 4.9999 0.0 0
M  V30 6 C 1.732 2.4999 0.0 0
M  V30 7 C 0.0 2.4999 0.0 0
M  V30 8 N 2.598 2.9999 0.0 0
M  V30 9 C 1.732 1.4999 0.0 0
M  V30 10 C 3.4641 2.4999 0.0 0
M  V30 11 N 2.598 0.9999 0.0 0
M  V30 12 C 0.866 0.9999 0.0 0
M  V30 13 C 3.4641 1.4999 0.0 0
M  V30 14 N 0.866 0.0 0.0 0
M  V30 15 C 0.0 -0.5 0.0 0
M  V30 16 N -0.866 0.0 0.0 0
M  V30 17 C 0.0 -1.4999 0.0 0
M  V30 18 C -1.732 -0.4999 0.0 0
M  V30 19 C -0.866 -1.9999 0.0 0
M  V30 20 C 0.866 -2.0 0.0 0
M  V30 21 N -1.732 -1.4999 0.0 0
M  V30 22 N -2.598 0.0 0.0 0
M  V30 23 F 1.366 -1.1339 0.0 0
M  V30 24 F 1.732 -2.5 0.0 0
M  V30 25 F 0.366 -2.866 0.0 0
M  V30 26 C -3.4641 -0.4999 0.0 0
M  V30 27 C -4.3301 0.0 0.0 0
M  V30 28 C -3.4641 -1.4999 0.0 0
M  V30 29 C -5.1961 -0.4999 0.0 0
M  V30 30 C -4.3301 -1.9999 0.0 0
M  V30 31 C -5.1961 -1.4999 0.0 0
M  V30 32 C -6.0621 -1.9999 0.0 0
M  V30 33 O -6.0621 -2.9999 0.0 0
M  V30 34 N -6.9282 -1.4999 0.0 0
M  V30 35 C -7.7942 -1.9999 0.0 0
M  V30 END ATOM
M  V30 BEGIN BOND
M  V30 1 2 1 2
M  V30 2 2 1 3
M  V30 3 1 1 4
M  V30 4 1 1 5
M  V30 5 1 4 6
M  V30 6 1 4 7
M  V30 7 2 6 8
M  V30 8 1 6 9
M  V30 9 1 8 10
M  V30 10 2 9 11
M  V30 11 1 9 12
M  V30 12 2 10 13
M  V30 13 1 12 14
M  V30 14 1 14 15
M  V30 15 2 15 16
M  V30 16 1 15 17
M  V30 17 1 16 18
M  V30 18 2 17 19
M  V30 19 1 17 20
M  V30 20 2 18 21
M  V30 21 1 18 22
M  V30 22 1 20 23
M  V30 23 1 20 24
M  V30 24 1 20 25
M  V30 25 1 22 26
M  V30 26 2 26 27
M  V30 27 1 26 28
M  V30 28 1 27 29
M  V30 29 2 28 30
M  V30 30 2 29 31
M  V30 31 1 31 32
M  V30 32 2 32 33
M  V30 33 1 32 34
M  V30 34 1 34 35
M  V30 35 1 11 13
M  V30 36 1 19 21
M  V30 37 1 30 31
M  V30 END BOND
M  V30 END CTAB
M  END
>  <Molecule Name>
Compound 56

>  <Molecule Name 2>
Compound 56

>  <Compound ID>
35

>  <Name>
Defactinib

>  <Uniprot>
Q05397

>  <Target>
FAK

>  <Smiles>
CNC(=O)C1=CC=C(NC2=NC=C(C(F)(F)F)C(NCC3=NC=CN=C3N(C)S(C)(=O)=O)=N2)C=C1

>  <Kd (nM)>


>  <Assay (Kd)>


>  <Ki (nM)>


>  <Assay (Ki)>


>  <IC50 (nM)>
3.9

>  <Assay (IC50)>
Inhibition of FAK

>  <EC50 (nM)>


>  <Assay (EC50)>


>  <Article DOI>
10.1021/jacs.8b08008

>  <Molecular Weight>
510.502

>  <Exact Mass>
510.1409422

>  <XLogP3>
1.43

>  <Heavy Atom Count>
35

>  <Ring Count>
3

>  <Hydrogen Bond Acceptor Count>
9

>  <Hydrogen Bond Donor Count>
3

>  <Rotatable Bond Count>
8

>  <Topological Polar Surface Area>
142.1

>  <Molecular Formula>
C20H21F3N8O3S

>  <InChI>
InChI=1S/C20H21F3N8O3S/c1-24-18(32)12-4-6-13(7-5-12)29-19-28-10-14(20(21,22)23)16(30-19)27-11-15-17(26-9-8-25-15)31(2)35(3,33)34/h4-10H,11H2,1-3H3,(H,24,32)(H2,27,28,29,30)

>  <InChI Key>
FWLMVFUGMHIOAA-UHFFFAOYSA-N

>  <BindingDB>
418817

>  <PubChem>
25117126

>  <ChEMBL>
CHEMBL3137331

$$$$
36
Actelion Java MolfileCreator 2.0

  0  0  0  0  0  0              0 V3000
M  V30 BEGIN CTAB
M  V30 COUNTS 40 45 0 0 0
M  V30 BEGIN ATOM
M  V30 1 S 4.538 -2.9781 0.0 0
M  V30 2 C 5.5325 -3.0826 0.0 0
M  V30 3 C 4.3301 -1.9999 0.0 0
M  V30 4 N 6.2757 -3.7518 0.0 0
M  V30 5 N 5.9392 -2.1691 0.0 0
M  V30 6 C 5.1961 -1.4999 0.0 0
M  V30 7 C 3.4641 -1.5 0.0 0
M  V30 8 C 7.1417 -3.2518 0.0 0
M  V30 9 C 6.9338 -2.2736 0.0 0
M  V30 10 C 5.1961 -0.4999 0.0 0
M  V30 11 C 3.4641 -0.5 0.0 0
M  V30 12 C 8.0552 -3.6585 0.0 0
M  V30 13 C 4.3301 0.0 0.0 0
M  V30 14 O 2.598 0.0 0.0 0
M  V30 15 C 8.1598 -4.653 0.0 0
M  V30 16 C 8.8642 -3.0707 0.0 0
M  V30 17 C 1.732 -0.5 0.0 0
M  V30 18 C 9.0733 -5.0598 0.0 0
M  V30 19 C 9.7778 -3.4774 0.0 0
M  V30 20 C 0.866 0.0 0.0 0
M  V30 21 C 9.8823 -4.472 0.0 0
M  V30 22 N 0.0 -0.5 0.0 0
M  V30 23 N 10.7959 -4.8787 0.0 0
M  V30 24 C -0.866 0.0 0.0 0
M  V30 25 C 0.0 -1.4999 0.0 0
M  V30 26 C 11.6049 -4.2909 0.0 0
M  V30 27 C -1.732 -0.4999 0.0 0
M  V30 28 C -0.866 -1.9999 0.0 0
M  V30 29 O 11.5004 -3.2964 0.0 0
M  V30 30 N 12.5184 -4.6977 0.0 0
M  V30 31 O -1.732 -1.4999 0.0 0
M  V30 32 C 13.3274 -4.1099 0.0 0
M  V30 33 N 14.2785 -4.4189 0.0 0
M  V30 34 C 13.3274 -3.1099 0.0 0
M  V30 35 O 14.8663 -3.6099 0.0 0
M  V30 36 C 14.2785 -2.8009 0.0 0
M  V30 37 C 14.5875 -1.8498 0.0 0
M  V30 38 C 13.6365 -1.5408 0.0 0
M  V30 39 C 14.8965 -0.8987 0.0 0
M  V30 40 C 15.5386 -2.1588 0.0 0
M  V30 END ATOM
M  V30 BEGIN BOND
M  V30 1 1 1 2
M  V30 2 1 1 3
M  V30 3 2 2 4
M  V30 4 1 2 5
M  V30 5 2 3 6
M  V30 6 1 3 7
M  V30 7 1 4 8
M  V30 8 1 5 9
M  V30 9 1 6 10
M  V30 10 2 7 11
M  V30 11 1 8 12
M  V30 12 2 10 13
M  V30 13 1 11 14
M  V30 14 2 12 15
M  V30 15 1 12 16
M  V30 16 1 14 17
M  V30 17 1 15 18
M  V30 18 2 16 19
M  V30 19 1 17 20
M  V30 20 2 18 21
M  V30 21 1 20 22
M  V30 22 1 21 23
M  V30 23 1 22 24
M  V30 24 1 22 25
M  V30 25 1 23 26
M  V30 26 1 24 27
M  V30 27 1 25 28
M  V30 28 2 26 29
M  V30 29 1 26 30
M  V30 30 1 27 31
M  V30 31 1 30 32
M  V30 32 2 32 33
M  V30 33 1 32 34
M  V30 34 1 33 35
M  V30 35 2 34 36
M  V30 36 1 36 37
M  V30 37 1 37 38
M  V30 38 1 37 39
M  V30 39 1 37 40
M  V30 40 1 5 6
M  V30 41 2 8 9
M  V30 42 1 11 13
M  V30 43 1 19 21
M  V30 44 1 28 31
M  V30 45 1 35 36
M  V30 END BOND
M  V30 END CTAB
M  END
>  <Molecule Name>
Compound 57

>  <Molecule Name 2>
Compound 57

>  <Compound ID>
36

>  <Name>
Quizartinib

>  <Uniprot>
P51451

>  <Target>
BLK

>  <Smiles>
CC(C)(C)C1=CC(NC(=O)NC2=CC=C(C3=CN4C(=N3)SC3=CC(OCCN5CCOCC5)=CC=C34)C=C2)=NO1

>  <Kd (nM)>
>10000

>  <Assay (Kd)>
Kd was assessed by competition binding assays

>  <Ki (nM)>


>  <Assay (Ki)>


>  <IC50 (nM)>


>  <Assay (IC50)>


>  <EC50 (nM)>


>  <Assay (EC50)>


>  <Article DOI>
10.1038/nbt.1990

>  <Molecular Weight>
560.68

>  <Exact Mass>
560.2205745

>  <XLogP3>
5.64

>  <Heavy Atom Count>
40

>  <Ring Count>
6

>  <Hydrogen Bond Acceptor Count>
9

>  <Hydrogen Bond Donor Count>
2

>  <Rotatable Bond Count>
7

>  <Topological Polar Surface Area>
106.16

>  <Molecular Formula>
C29H32N6O4S

>  <InChI>
InChI=1S/C29H32N6O4S/c1-29(2,3)25-17-26(33-39-25)32-27(36)30-20-6-4-19(5-7-20)22-18-35-23-9-8-21(16-24(23)40-28(35)31-22)38-15-12-34-10-13-37-14-11-34/h4-9,16-18H,10-15H2,1-3H3,(H2,30,32,33,36)

>  <InChI Key>
CVWXJKQAOSCOAB-UHFFFAOYSA-N

>  <BindingDB>
50300690

>  <PubChem>
24889392

>  <ChEMBL>
CHEMBL576982

$$$$
36
Actelion Java MolfileCreator 2.0

  0  0  0  0  0  0              0 V3000
M  V30 BEGIN CTAB
M  V30 COUNTS 40 45 0 0 0
M  V30 BEGIN ATOM
M  V30 1 S 4.538 -2.9781 0.0 0
M  V30 2 C 5.5325 -3.0826 0.0 0
M  V30 3 C 4.3301 -1.9999 0.0 0
M  V30 4 N 6.2757 -3.7518 0.0 0
M  V30 5 N 5.9392 -2.1691 0.0 0
M  V30 6 C 5.1961 -1.4999 0.0 0
M  V30 7 C 3.4641 -1.5 0.0 0
M  V30 8 C 7.1417 -3.2518 0.0 0
M  V30 9 C 6.9338 -2.2736 0.0 0
M  V30 10 C 5.1961 -0.4999 0.0 0
M  V30 11 C 3.4641 -0.5 0.0 0
M  V30 12 C 8.0552 -3.6585 0.0 0
M  V30 13 C 4.3301 0.0 0.0 0
M  V30 14 O 2.598 0.0 0.0 0
M  V30 15 C 8.1598 -4.653 0.0 0
M  V30 16 C 8.8642 -3.0707 0.0 0
M  V30 17 C 1.732 -0.5 0.0 0
M  V30 18 C 9.0733 -5.0598 0.0 0
M  V30 19 C 9.7778 -3.4774 0.0 0
M  V30 20 C 0.866 0.0 0.0 0
M  V30 21 C 9.8823 -4.472 0.0 0
M  V30 22 N 0.0 -0.5 0.0 0
M  V30 23 N 10.7959 -4.8787 0.0 0
M  V30 24 C -0.866 0.0 0.0 0
M  V30 25 C 0.0 -1.4999 0.0 0
M  V30 26 C 11.6049 -4.2909 0.0 0
M  V30 27 C -1.732 -0.4999 0.0 0
M  V30 28 C -0.866 -1.9999 0.0 0
M  V30 29 O 11.5004 -3.2964 0.0 0
M  V30 30 N 12.5184 -4.6977 0.0 0
M  V30 31 O -1.732 -1.4999 0.0 0
M  V30 32 C 13.3274 -4.1099 0.0 0
M  V30 33 N 14.2785 -4.4189 0.0 0
M  V30 34 C 13.3274 -3.1099 0.0 0
M  V30 35 O 14.8663 -3.6099 0.0 0
M  V30 36 C 14.2785 -2.8009 0.0 0
M  V30 37 C 14.5875 -1.8498 0.0 0
M  V30 38 C 13.6365 -1.5408 0.0 0
M  V30 39 C 14.8965 -0.8987 0.0 0
M  V30 40 C 15.5386 -2.1588 0.0 0
M  V30 END ATOM
M  V30 BEGIN BOND
M  V30 1 1 1 2
M  V30 2 1 1 3
M  V30 3 2 2 4
M  V30 4 1 2 5
M  V30 5 2 3 6
M  V30 6 1 3 7
M  V30 7 1 4 8
M  V30 8 1 5 9
M  V30 9 1 6 10
M  V30 10 2 7 11
M  V30 11 1 8 12
M  V30 12 2 10 13
M  V30 13 1 11 14
M  V30 14 2 12 15
M  V30 15 1 12 16
M  V30 16 1 14 17
M  V30 17 1 15 18
M  V30 18 2 16 19
M  V30 19 1 17 20
M  V30 20 2 18 21
M  V30 21 1 20 22
M  V30 22 1 21 23
M  V30 23 1 22 24
M  V30 24 1 22 25
M  V30 25 1 23 26
M  V30 26 1 24 27
M  V30 27 1 25 28
M  V30 28 2 26 29
M  V30 29 1 26 30
M  V30 30 1 27 31
M  V30 31 1 30 32
M  V30 32 2 32 33
M  V30 33 1 32 34
M  V30 34 1 33 35
M  V30 35 2 34 36
M  V30 36 1 36 37
M  V30 37 1 37 38
M  V30 38 1 37 39
M  V30 39 1 37 40
M  V30 40 1 5 6
M  V30 41 2 8 9
M  V30 42 1 11 13
M  V30 43 1 19 21
M  V30 44 1 28 31
M  V30 45 1 35 36
M  V30 END BOND
M  V30 END CTAB
M  END
>  <Molecule Name>
Compound 58

>  <Molecule Name 2>
Compound 58

>  <Compound ID>
36

>  <Name>
Quizartinib

>  <Uniprot>
Q00535

>  <Target>
CDK5

>  <Smiles>
CC(C)(C)C1=CC(NC(=O)NC2=CC=C(C3=CN4C(=N3)SC3=CC(OCCN5CCOCC5)=CC=C34)C=C2)=NO1

>  <Kd (nM)>
>10000

>  <Assay (Kd)>
Kd was assessed by competition binding assays

>  <Ki (nM)>


>  <Assay (Ki)>


>  <IC50 (nM)>


>  <Assay (IC50)>


>  <EC50 (nM)>


>  <Assay (EC50)>


>  <Article DOI>
10.1038/nbt.1990

>  <Molecular Weight>
560.68

>  <Exact Mass>
560.2205745

>  <XLogP3>
5.64

>  <Heavy Atom Count>
40

>  <Ring Count>
6

>  <Hydrogen Bond Acceptor Count>
9

>  <Hydrogen Bond Donor Count>
2

>  <Rotatable Bond Count>
7

>  <Topological Polar Surface Area>
106.16

>  <Molecular Formula>
C29H32N6O4S

>  <InChI>
InChI=1S/C29H32N6O4S/c1-29(2,3)25-17-26(33-39-25)32-27(36)30-20-6-4-19(5-7-20)22-18-35-23-9-8-21(16-24(23)40-28(35)31-22)38-15-12-34-10-13-37-14-11-34/h4-9,16-18H,10-15H2,1-3H3,(H2,30,32,33,36)

>  <InChI Key>
CVWXJKQAOSCOAB-UHFFFAOYSA-N

>  <BindingDB>
50300690

>  <PubChem>
24889392

>  <ChEMBL>
CHEMBL576982

$$$$
36
Actelion Java MolfileCreator 2.0

  0  0  0  0  0  0              0 V3000
M  V30 BEGIN CTAB
M  V30 COUNTS 40 45 0 0 0
M  V30 BEGIN ATOM
M  V30 1 S 4.538 -2.9781 0.0 0
M  V30 2 C 5.5325 -3.0826 0.0 0
M  V30 3 C 4.3301 -1.9999 0.0 0
M  V30 4 N 6.2757 -3.7518 0.0 0
M  V30 5 N 5.9392 -2.1691 0.0 0
M  V30 6 C 5.1961 -1.4999 0.0 0
M  V30 7 C 3.4641 -1.5 0.0 0
M  V30 8 C 7.1417 -3.2518 0.0 0
M  V30 9 C 6.9338 -2.2736 0.0 0
M  V30 10 C 5.1961 -0.4999 0.0 0
M  V30 11 C 3.4641 -0.5 0.0 0
M  V30 12 C 8.0552 -3.6585 0.0 0
M  V30 13 C 4.3301 0.0 0.0 0
M  V30 14 O 2.598 0.0 0.0 0
M  V30 15 C 8.1598 -4.653 0.0 0
M  V30 16 C 8.8642 -3.0707 0.0 0
M  V30 17 C 1.732 -0.5 0.0 0
M  V30 18 C 9.0733 -5.0598 0.0 0
M  V30 19 C 9.7778 -3.4774 0.0 0
M  V30 20 C 0.866 0.0 0.0 0
M  V30 21 C 9.8823 -4.472 0.0 0
M  V30 22 N 0.0 -0.5 0.0 0
M  V30 23 N 10.7959 -4.8787 0.0 0
M  V30 24 C -0.866 0.0 0.0 0
M  V30 25 C 0.0 -1.4999 0.0 0
M  V30 26 C 11.6049 -4.2909 0.0 0
M  V30 27 C -1.732 -0.4999 0.0 0
M  V30 28 C -0.866 -1.9999 0.0 0
M  V30 29 O 11.5004 -3.2964 0.0 0
M  V30 30 N 12.5184 -4.6977 0.0 0
M  V30 31 O -1.732 -1.4999 0.0 0
M  V30 32 C 13.3274 -4.1099 0.0 0
M  V30 33 N 14.2785 -4.4189 0.0 0
M  V30 34 C 13.3274 -3.1099 0.0 0
M  V30 35 O 14.8663 -3.6099 0.0 0
M  V30 36 C 14.2785 -2.8009 0.0 0
M  V30 37 C 14.5875 -1.8498 0.0 0
M  V30 38 C 13.6365 -1.5408 0.0 0
M  V30 39 C 14.8965 -0.8987 0.0 0
M  V30 40 C 15.5386 -2.1588 0.0 0
M  V30 END ATOM
M  V30 BEGIN BOND
M  V30 1 1 1 2
M  V30 2 1 1 3
M  V30 3 2 2 4
M  V30 4 1 2 5
M  V30 5 2 3 6
M  V30 6 1 3 7
M  V30 7 1 4 8
M  V30 8 1 5 9
M  V30 9 1 6 10
M  V30 10 2 7 11
M  V30 11 1 8 12
M  V30 12 2 10 13
M  V30 13 1 11 14
M  V30 14 2 12 15
M  V30 15 1 12 16
M  V30 16 1 14 17
M  V30 17 1 15 18
M  V30 18 2 16 19
M  V30 19 1 17 20
M  V30 20 2 18 21
M  V30 21 1 20 22
M  V30 22 1 21 23
M  V30 23 1 22 24
M  V30 24 1 22 25
M  V30 25 1 23 26
M  V30 26 1 24 27
M  V30 27 1 25 28
M  V30 28 2 26 29
M  V30 29 1 26 30
M  V30 30 1 27 31
M  V30 31 1 30 32
M  V30 32 2 32 33
M  V30 33 1 32 34
M  V30 34 1 33 35
M  V30 35 2 34 36
M  V30 36 1 36 37
M  V30 37 1 37 38
M  V30 38 1 37 39
M  V30 39 1 37 40
M  V30 40 1 5 6
M  V30 41 2 8 9
M  V30 42 1 11 13
M  V30 43 1 19 21
M  V30 44 1 28 31
M  V30 45 1 35 36
M  V30 END BOND
M  V30 END CTAB
M  END
>  <Molecule Name>
Compound 59

>  <Molecule Name 2>
Compound 59

>  <Compound ID>
36

>  <Name>
Quizartinib

>  <Uniprot>
P16591

>  <Target>
FER

>  <Smiles>
CC(C)(C)C1=CC(NC(=O)NC2=CC=C(C3=CN4C(=N3)SC3=CC(OCCN5CCOCC5)=CC=C34)C=C2)=NO1

>  <Kd (nM)>
>10000

>  <Assay (Kd)>
Kd was assessed by competition binding assays

>  <Ki (nM)>


>  <Assay (Ki)>


>  <IC50 (nM)>


>  <Assay (IC50)>


>  <EC50 (nM)>


>  <Assay (EC50)>


>  <Article DOI>
10.1038/nbt.1990

>  <Molecular Weight>
560.68

>  <Exact Mass>
560.2205745

>  <XLogP3>
5.64

>  <Heavy Atom Count>
40

>  <Ring Count>
6

>  <Hydrogen Bond Acceptor Count>
9

>  <Hydrogen Bond Donor Count>
2

>  <Rotatable Bond Count>
7

>  <Topological Polar Surface Area>
106.16

>  <Molecular Formula>
C29H32N6O4S

>  <InChI>
InChI=1S/C29H32N6O4S/c1-29(2,3)25-17-26(33-39-25)32-27(36)30-20-6-4-19(5-7-20)22-18-35-23-9-8-21(16-24(23)40-28(35)31-22)38-15-12-34-10-13-37-14-11-34/h4-9,16-18H,10-15H2,1-3H3,(H2,30,32,33,36)

>  <InChI Key>
CVWXJKQAOSCOAB-UHFFFAOYSA-N

>  <BindingDB>
50300690

>  <PubChem>
24889392

>  <ChEMBL>
CHEMBL576982

$$$$
36
Actelion Java MolfileCreator 2.0

  0  0  0  0  0  0              0 V3000
M  V30 BEGIN CTAB
M  V30 COUNTS 40 45 0 0 0
M  V30 BEGIN ATOM
M  V30 1 S 4.538 -2.9781 0.0 0
M  V30 2 C 5.5325 -3.0826 0.0 0
M  V30 3 C 4.3301 -1.9999 0.0 0
M  V30 4 N 6.2757 -3.7518 0.0 0
M  V30 5 N 5.9392 -2.1691 0.0 0
M  V30 6 C 5.1961 -1.4999 0.0 0
M  V30 7 C 3.4641 -1.5 0.0 0
M  V30 8 C 7.1417 -3.2518 0.0 0
M  V30 9 C 6.9338 -2.2736 0.0 0
M  V30 10 C 5.1961 -0.4999 0.0 0
M  V30 11 C 3.4641 -0.5 0.0 0
M  V30 12 C 8.0552 -3.6585 0.0 0
M  V30 13 C 4.3301 0.0 0.0 0
M  V30 14 O 2.598 0.0 0.0 0
M  V30 15 C 8.1598 -4.653 0.0 0
M  V30 16 C 8.8642 -3.0707 0.0 0
M  V30 17 C 1.732 -0.5 0.0 0
M  V30 18 C 9.0733 -5.0598 0.0 0
M  V30 19 C 9.7778 -3.4774 0.0 0
M  V30 20 C 0.866 0.0 0.0 0
M  V30 21 C 9.8823 -4.472 0.0 0
M  V30 22 N 0.0 -0.5 0.0 0
M  V30 23 N 10.7959 -4.8787 0.0 0
M  V30 24 C -0.866 0.0 0.0 0
M  V30 25 C 0.0 -1.4999 0.0 0
M  V30 26 C 11.6049 -4.2909 0.0 0
M  V30 27 C -1.732 -0.4999 0.0 0
M  V30 28 C -0.866 -1.9999 0.0 0
M  V30 29 O 11.5004 -3.2964 0.0 0
M  V30 30 N 12.5184 -4.6977 0.0 0
M  V30 31 O -1.732 -1.4999 0.0 0
M  V30 32 C 13.3274 -4.1099 0.0 0
M  V30 33 N 14.2785 -4.4189 0.0 0
M  V30 34 C 13.3274 -3.1099 0.0 0
M  V30 35 O 14.8663 -3.6099 0.0 0
M  V30 36 C 14.2785 -2.8009 0.0 0
M  V30 37 C 14.5875 -1.8498 0.0 0
M  V30 38 C 13.6365 -1.5408 0.0 0
M  V30 39 C 14.8965 -0.8987 0.0 0
M  V30 40 C 15.5386 -2.1588 0.0 0
M  V30 END ATOM
M  V30 BEGIN BOND
M  V30 1 1 1 2
M  V30 2 1 1 3
M  V30 3 2 2 4
M  V30 4 1 2 5
M  V30 5 2 3 6
M  V30 6 1 3 7
M  V30 7 1 4 8
M  V30 8 1 5 9
M  V30 9 1 6 10
M  V30 10 2 7 11
M  V30 11 1 8 12
M  V30 12 2 10 13
M  V30 13 1 11 14
M  V30 14 2 12 15
M  V30 15 1 12 16
M  V30 16 1 14 17
M  V30 17 1 15 18
M  V30 18 2 16 19
M  V30 19 1 17 20
M  V30 20 2 18 21
M  V30 21 1 20 22
M  V30 22 1 21 23
M  V30 23 1 22 24
M  V30 24 1 22 25
M  V30 25 1 23 26
M  V30 26 1 24 27
M  V30 27 1 25 28
M  V30 28 2 26 29
M  V30 29 1 26 30
M  V30 30 1 27 31
M  V30 31 1 30 32
M  V30 32 2 32 33
M  V30 33 1 32 34
M  V30 34 1 33 35
M  V30 35 2 34 36
M  V30 36 1 36 37
M  V30 37 1 37 38
M  V30 38 1 37 39
M  V30 39 1 37 40
M  V30 40 1 5 6
M  V30 41 2 8 9
M  V30 42 1 11 13
M  V30 43 1 19 21
M  V30 44 1 28 31
M  V30 45 1 35 36
M  V30 END BOND
M  V30 END CTAB
M  END
>  <Molecule Name>
Compound 60

>  <Molecule Name 2>
Compound 60

>  <Compound ID>
36

>  <Name>
Quizartinib

>  <Uniprot>
P36888

>  <Target>
FLT3

>  <Smiles>
CC(C)(C)C1=CC(NC(=O)NC2=CC=C(C3=CN4C(=N3)SC3=CC(OCCN5CCOCC5)=CC=C34)C=C2)=NO1

>  <Kd (nM)>


>  <Assay (Kd)>


>  <Ki (nM)>


>  <Assay (Ki)>


>  <IC50 (nM)>
7.4

>  <Assay (IC50)>
IC50 of FLT-3

>  <EC50 (nM)>


>  <Assay (EC50)>


>  <Article DOI>
10.1021/jacs.8b10320

>  <Molecular Weight>
560.68

>  <Exact Mass>
560.2205745

>  <XLogP3>
5.64

>  <Heavy Atom Count>
40

>  <Ring Count>
6

>  <Hydrogen Bond Acceptor Count>
9

>  <Hydrogen Bond Donor Count>
2

>  <Rotatable Bond Count>
7

>  <Topological Polar Surface Area>
106.16

>  <Molecular Formula>
C29H32N6O4S

>  <InChI>
InChI=1S/C29H32N6O4S/c1-29(2,3)25-17-26(33-39-25)32-27(36)30-20-6-4-19(5-7-20)22-18-35-23-9-8-21(16-24(23)40-28(35)31-22)38-15-12-34-10-13-37-14-11-34/h4-9,16-18H,10-15H2,1-3H3,(H2,30,32,33,36)

>  <InChI Key>
CVWXJKQAOSCOAB-UHFFFAOYSA-N

>  <BindingDB>
50300690

>  <PubChem>
24889392

>  <ChEMBL>
CHEMBL576982

$$$$
36
Actelion Java MolfileCreator 2.0

  0  0  0  0  0  0              0 V3000
M  V30 BEGIN CTAB
M  V30 COUNTS 40 45 0 0 0
M  V30 BEGIN ATOM
M  V30 1 S 4.538 -2.9781 0.0 0
M  V30 2 C 5.5325 -3.0826 0.0 0
M  V30 3 C 4.3301 -1.9999 0.0 0
M  V30 4 N 6.2757 -3.7518 0.0 0
M  V30 5 N 5.9392 -2.1691 0.0 0
M  V30 6 C 5.1961 -1.4999 0.0 0
M  V30 7 C 3.4641 -1.5 0.0 0
M  V30 8 C 7.1417 -3.2518 0.0 0
M  V30 9 C 6.9338 -2.2736 0.0 0
M  V30 10 C 5.1961 -0.4999 0.0 0
M  V30 11 C 3.4641 -0.5 0.0 0
M  V30 12 C 8.0552 -3.6585 0.0 0
M  V30 13 C 4.3301 0.0 0.0 0
M  V30 14 O 2.598 0.0 0.0 0
M  V30 15 C 8.1598 -4.653 0.0 0
M  V30 16 C 8.8642 -3.0707 0.0 0
M  V30 17 C 1.732 -0.5 0.0 0
M  V30 18 C 9.0733 -5.0598 0.0 0
M  V30 19 C 9.7778 -3.4774 0.0 0
M  V30 20 C 0.866 0.0 0.0 0
M  V30 21 C 9.8823 -4.472 0.0 0
M  V30 22 N 0.0 -0.5 0.0 0
M  V30 23 N 10.7959 -4.8787 0.0 0
M  V30 24 C -0.866 0.0 0.0 0
M  V30 25 C 0.0 -1.4999 0.0 0
M  V30 26 C 11.6049 -4.2909 0.0 0
M  V30 27 C -1.732 -0.4999 0.0 0
M  V30 28 C -0.866 -1.9999 0.0 0
M  V30 29 O 11.5004 -3.2964 0.0 0
M  V30 30 N 12.5184 -4.6977 0.0 0
M  V30 31 O -1.732 -1.4999 0.0 0
M  V30 32 C 13.3274 -4.1099 0.0 0
M  V30 33 N 14.2785 -4.4189 0.0 0
M  V30 34 C 13.3274 -3.1099 0.0 0
M  V30 35 O 14.8663 -3.6099 0.0 0
M  V30 36 C 14.2785 -2.8009 0.0 0
M  V30 37 C 14.5875 -1.8498 0.0 0
M  V30 38 C 13.6365 -1.5408 0.0 0
M  V30 39 C 14.8965 -0.8987 0.0 0
M  V30 40 C 15.5386 -2.1588 0.0 0
M  V30 END ATOM
M  V30 BEGIN BOND
M  V30 1 1 1 2
M  V30 2 1 1 3
M  V30 3 2 2 4
M  V30 4 1 2 5
M  V30 5 2 3 6
M  V30 6 1 3 7
M  V30 7 1 4 8
M  V30 8 1 5 9
M  V30 9 1 6 10
M  V30 10 2 7 11
M  V30 11 1 8 12
M  V30 12 2 10 13
M  V30 13 1 11 14
M  V30 14 2 12 15
M  V30 15 1 12 16
M  V30 16 1 14 17
M  V30 17 1 15 18
M  V30 18 2 16 19
M  V30 19 1 17 20
M  V30 20 2 18 21
M  V30 21 1 20 22
M  V30 22 1 21 23
M  V30 23 1 22 24
M  V30 24 1 22 25
M  V30 25 1 23 26
M  V30 26 1 24 27
M  V30 27 1 25 28
M  V30 28 2 26 29
M  V30 29 1 26 30
M  V30 30 1 27 31
M  V30 31 1 30 32
M  V30 32 2 32 33
M  V30 33 1 32 34
M  V30 34 1 33 35
M  V30 35 2 34 36
M  V30 36 1 36 37
M  V30 37 1 37 38
M  V30 38 1 37 39
M  V30 39 1 37 40
M  V30 40 1 5 6
M  V30 41 2 8 9
M  V30 42 1 11 13
M  V30 43 1 19 21
M  V30 44 1 28 31
M  V30 45 1 35 36
M  V30 END BOND
M  V30 END CTAB
M  END
>  <Molecule Name>
Compound 61

>  <Molecule Name 2>
Compound 61

>  <Compound ID>
36

>  <Name>
Quizartinib

>  <Uniprot>
O14976

>  <Target>
GAK

>  <Smiles>
CC(C)(C)C1=CC(NC(=O)NC2=CC=C(C3=CN4C(=N3)SC3=CC(OCCN5CCOCC5)=CC=C34)C=C2)=NO1

>  <Kd (nM)>
>10000

>  <Assay (Kd)>
Kd was assessed by competition binding assays

>  <Ki (nM)>


>  <Assay (Ki)>


>  <IC50 (nM)>


>  <Assay (IC50)>


>  <EC50 (nM)>


>  <Assay (EC50)>


>  <Article DOI>
10.1038/nbt.1990

>  <Molecular Weight>
560.68

>  <Exact Mass>
560.2205745

>  <XLogP3>
5.64

>  <Heavy Atom Count>
40

>  <Ring Count>
6

>  <Hydrogen Bond Acceptor Count>
9

>  <Hydrogen Bond Donor Count>
2

>  <Rotatable Bond Count>
7

>  <Topological Polar Surface Area>
106.16

>  <Molecular Formula>
C29H32N6O4S

>  <InChI>
InChI=1S/C29H32N6O4S/c1-29(2,3)25-17-26(33-39-25)32-27(36)30-20-6-4-19(5-7-20)22-18-35-23-9-8-21(16-24(23)40-28(35)31-22)38-15-12-34-10-13-37-14-11-34/h4-9,16-18H,10-15H2,1-3H3,(H2,30,32,33,36)

>  <InChI Key>
CVWXJKQAOSCOAB-UHFFFAOYSA-N

>  <BindingDB>
50300690

>  <PubChem>
24889392

>  <ChEMBL>
CHEMBL576982

$$$$
36
Actelion Java MolfileCreator 2.0

  0  0  0  0  0  0              0 V3000
M  V30 BEGIN CTAB
M  V30 COUNTS 40 45 0 0 0
M  V30 BEGIN ATOM
M  V30 1 S 4.538 -2.9781 0.0 0
M  V30 2 C 5.5325 -3.0826 0.0 0
M  V30 3 C 4.3301 -1.9999 0.0 0
M  V30 4 N 6.2757 -3.7518 0.0 0
M  V30 5 N 5.9392 -2.1691 0.0 0
M  V30 6 C 5.1961 -1.4999 0.0 0
M  V30 7 C 3.4641 -1.5 0.0 0
M  V30 8 C 7.1417 -3.2518 0.0 0
M  V30 9 C 6.9338 -2.2736 0.0 0
M  V30 10 C 5.1961 -0.4999 0.0 0
M  V30 11 C 3.4641 -0.5 0.0 0
M  V30 12 C 8.0552 -3.6585 0.0 0
M  V30 13 C 4.3301 0.0 0.0 0
M  V30 14 O 2.598 0.0 0.0 0
M  V30 15 C 8.1598 -4.653 0.0 0
M  V30 16 C 8.8642 -3.0707 0.0 0
M  V30 17 C 1.732 -0.5 0.0 0
M  V30 18 C 9.0733 -5.0598 0.0 0
M  V30 19 C 9.7778 -3.4774 0.0 0
M  V30 20 C 0.866 0.0 0.0 0
M  V30 21 C 9.8823 -4.472 0.0 0
M  V30 22 N 0.0 -0.5 0.0 0
M  V30 23 N 10.7959 -4.8787 0.0 0
M  V30 24 C -0.866 0.0 0.0 0
M  V30 25 C 0.0 -1.4999 0.0 0
M  V30 26 C 11.6049 -4.2909 0.0 0
M  V30 27 C -1.732 -0.4999 0.0 0
M  V30 28 C -0.866 -1.9999 0.0 0
M  V30 29 O 11.5004 -3.2964 0.0 0
M  V30 30 N 12.5184 -4.6977 0.0 0
M  V30 31 O -1.732 -1.4999 0.0 0
M  V30 32 C 13.3274 -4.1099 0.0 0
M  V30 33 N 14.2785 -4.4189 0.0 0
M  V30 34 C 13.3274 -3.1099 0.0 0
M  V30 35 O 14.8663 -3.6099 0.0 0
M  V30 36 C 14.2785 -2.8009 0.0 0
M  V30 37 C 14.5875 -1.8498 0.0 0
M  V30 38 C 13.6365 -1.5408 0.0 0
M  V30 39 C 14.8965 -0.8987 0.0 0
M  V30 40 C 15.5386 -2.1588 0.0 0
M  V30 END ATOM
M  V30 BEGIN BOND
M  V30 1 1 1 2
M  V30 2 1 1 3
M  V30 3 2 2 4
M  V30 4 1 2 5
M  V30 5 2 3 6
M  V30 6 1 3 7
M  V30 7 1 4 8
M  V30 8 1 5 9
M  V30 9 1 6 10
M  V30 10 2 7 11
M  V30 11 1 8 12
M  V30 12 2 10 13
M  V30 13 1 11 14
M  V30 14 2 12 15
M  V30 15 1 12 16
M  V30 16 1 14 17
M  V30 17 1 15 18
M  V30 18 2 16 19
M  V30 19 1 17 20
M  V30 20 2 18 21
M  V30 21 1 20 22
M  V30 22 1 21 23
M  V30 23 1 22 24
M  V30 24 1 22 25
M  V30 25 1 23 26
M  V30 26 1 24 27
M  V30 27 1 25 28
M  V30 28 2 26 29
M  V30 29 1 26 30
M  V30 30 1 27 31
M  V30 31 1 30 32
M  V30 32 2 32 33
M  V30 33 1 32 34
M  V30 34 1 33 35
M  V30 35 2 34 36
M  V30 36 1 36 37
M  V30 37 1 37 38
M  V30 38 1 37 39
M  V30 39 1 37 40
M  V30 40 1 5 6
M  V30 41 2 8 9
M  V30 42 1 11 13
M  V30 43 1 19 21
M  V30 44 1 28 31
M  V30 45 1 35 36
M  V30 END BOND
M  V30 END CTAB
M  END
>  <Molecule Name>
Compound 62

>  <Molecule Name 2>
Compound 62

>  <Compound ID>
36

>  <Name>
Quizartinib

>  <Uniprot>
P51617

>  <Target>
IRAK1

>  <Smiles>
CC(C)(C)C1=CC(NC(=O)NC2=CC=C(C3=CN4C(=N3)SC3=CC(OCCN5CCOCC5)=CC=C34)C=C2)=NO1

>  <Kd (nM)>
>10000

>  <Assay (Kd)>
Kd was assessed by competition binding assays

>  <Ki (nM)>


>  <Assay (Ki)>


>  <IC50 (nM)>


>  <Assay (IC50)>


>  <EC50 (nM)>


>  <Assay (EC50)>


>  <Article DOI>
10.1038/nbt.1990

>  <Molecular Weight>
560.68

>  <Exact Mass>
560.2205745

>  <XLogP3>
5.64

>  <Heavy Atom Count>
40

>  <Ring Count>
6

>  <Hydrogen Bond Acceptor Count>
9

>  <Hydrogen Bond Donor Count>
2

>  <Rotatable Bond Count>
7

>  <Topological Polar Surface Area>
106.16

>  <Molecular Formula>
C29H32N6O4S

>  <InChI>
InChI=1S/C29H32N6O4S/c1-29(2,3)25-17-26(33-39-25)32-27(36)30-20-6-4-19(5-7-20)22-18-35-23-9-8-21(16-24(23)40-28(35)31-22)38-15-12-34-10-13-37-14-11-34/h4-9,16-18H,10-15H2,1-3H3,(H2,30,32,33,36)

>  <InChI Key>
CVWXJKQAOSCOAB-UHFFFAOYSA-N

>  <BindingDB>
50300690

>  <PubChem>
24889392

>  <ChEMBL>
CHEMBL576982

$$$$
36
Actelion Java MolfileCreator 2.0

  0  0  0  0  0  0              0 V3000
M  V30 BEGIN CTAB
M  V30 COUNTS 40 45 0 0 0
M  V30 BEGIN ATOM
M  V30 1 S 4.538 -2.9781 0.0 0
M  V30 2 C 5.5325 -3.0826 0.0 0
M  V30 3 C 4.3301 -1.9999 0.0 0
M  V30 4 N 6.2757 -3.7518 0.0 0
M  V30 5 N 5.9392 -2.1691 0.0 0
M  V30 6 C 5.1961 -1.4999 0.0 0
M  V30 7 C 3.4641 -1.5 0.0 0
M  V30 8 C 7.1417 -3.2518 0.0 0
M  V30 9 C 6.9338 -2.2736 0.0 0
M  V30 10 C 5.1961 -0.4999 0.0 0
M  V30 11 C 3.4641 -0.5 0.0 0
M  V30 12 C 8.0552 -3.6585 0.0 0
M  V30 13 C 4.3301 0.0 0.0 0
M  V30 14 O 2.598 0.0 0.0 0
M  V30 15 C 8.1598 -4.653 0.0 0
M  V30 16 C 8.8642 -3.0707 0.0 0
M  V30 17 C 1.732 -0.5 0.0 0
M  V30 18 C 9.0733 -5.0598 0.0 0
M  V30 19 C 9.7778 -3.4774 0.0 0
M  V30 20 C 0.866 0.0 0.0 0
M  V30 21 C 9.8823 -4.472 0.0 0
M  V30 22 N 0.0 -0.5 0.0 0
M  V30 23 N 10.7959 -4.8787 0.0 0
M  V30 24 C -0.866 0.0 0.0 0
M  V30 25 C 0.0 -1.4999 0.0 0
M  V30 26 C 11.6049 -4.2909 0.0 0
M  V30 27 C -1.732 -0.4999 0.0 0
M  V30 28 C -0.866 -1.9999 0.0 0
M  V30 29 O 11.5004 -3.2964 0.0 0
M  V30 30 N 12.5184 -4.6977 0.0 0
M  V30 31 O -1.732 -1.4999 0.0 0
M  V30 32 C 13.3274 -4.1099 0.0 0
M  V30 33 N 14.2785 -4.4189 0.0 0
M  V30 34 C 13.3274 -3.1099 0.0 0
M  V30 35 O 14.8663 -3.6099 0.0 0
M  V30 36 C 14.2785 -2.8009 0.0 0
M  V30 37 C 14.5875 -1.8498 0.0 0
M  V30 38 C 13.6365 -1.5408 0.0 0
M  V30 39 C 14.8965 -0.8987 0.0 0
M  V30 40 C 15.5386 -2.1588 0.0 0
M  V30 END ATOM
M  V30 BEGIN BOND
M  V30 1 1 1 2
M  V30 2 1 1 3
M  V30 3 2 2 4
M  V30 4 1 2 5
M  V30 5 2 3 6
M  V30 6 1 3 7
M  V30 7 1 4 8
M  V30 8 1 5 9
M  V30 9 1 6 10
M  V30 10 2 7 11
M  V30 11 1 8 12
M  V30 12 2 10 13
M  V30 13 1 11 14
M  V30 14 2 12 15
M  V30 15 1 12 16
M  V30 16 1 14 17
M  V30 17 1 15 18
M  V30 18 2 16 19
M  V30 19 1 17 20
M  V30 20 2 18 21
M  V30 21 1 20 22
M  V30 22 1 21 23
M  V30 23 1 22 24
M  V30 24 1 22 25
M  V30 25 1 23 26
M  V30 26 1 24 27
M  V30 27 1 25 28
M  V30 28 2 26 29
M  V30 29 1 26 30
M  V30 30 1 27 31
M  V30 31 1 30 32
M  V30 32 2 32 33
M  V30 33 1 32 34
M  V30 34 1 33 35
M  V30 35 2 34 36
M  V30 36 1 36 37
M  V30 37 1 37 38
M  V30 38 1 37 39
M  V30 39 1 37 40
M  V30 40 1 5 6
M  V30 41 2 8 9
M  V30 42 1 11 13
M  V30 43 1 19 21
M  V30 44 1 28 31
M  V30 45 1 35 36
M  V30 END BOND
M  V30 END CTAB
M  END
>  <Molecule Name>
Compound 63

>  <Molecule Name 2>
Compound 63

>  <Compound ID>
36

>  <Name>
Quizartinib

>  <Uniprot>
P06239

>  <Target>
LCK

>  <Smiles>
CC(C)(C)C1=CC(NC(=O)NC2=CC=C(C3=CN4C(=N3)SC3=CC(OCCN5CCOCC5)=CC=C34)C=C2)=NO1

>  <Kd (nM)>
2500

>  <Assay (Kd)>
Kd was assessed by competition binding assays

>  <Ki (nM)>


>  <Assay (Ki)>


>  <IC50 (nM)>


>  <Assay (IC50)>


>  <EC50 (nM)>


>  <Assay (EC50)>


>  <Article DOI>
10.1038/nbt.1990

>  <Molecular Weight>
560.68

>  <Exact Mass>
560.2205745

>  <XLogP3>
5.64

>  <Heavy Atom Count>
40

>  <Ring Count>
6

>  <Hydrogen Bond Acceptor Count>
9

>  <Hydrogen Bond Donor Count>
2

>  <Rotatable Bond Count>
7

>  <Topological Polar Surface Area>
106.16

>  <Molecular Formula>
C29H32N6O4S

>  <InChI>
InChI=1S/C29H32N6O4S/c1-29(2,3)25-17-26(33-39-25)32-27(36)30-20-6-4-19(5-7-20)22-18-35-23-9-8-21(16-24(23)40-28(35)31-22)38-15-12-34-10-13-37-14-11-34/h4-9,16-18H,10-15H2,1-3H3,(H2,30,32,33,36)

>  <InChI Key>
CVWXJKQAOSCOAB-UHFFFAOYSA-N

>  <BindingDB>
50300690

>  <PubChem>
24889392

>  <ChEMBL>
CHEMBL576982

$$$$
36
Actelion Java MolfileCreator 2.0

  0  0  0  0  0  0              0 V3000
M  V30 BEGIN CTAB
M  V30 COUNTS 40 45 0 0 0
M  V30 BEGIN ATOM
M  V30 1 S 4.538 -2.9781 0.0 0
M  V30 2 C 5.5325 -3.0826 0.0 0
M  V30 3 C 4.3301 -1.9999 0.0 0
M  V30 4 N 6.2757 -3.7518 0.0 0
M  V30 5 N 5.9392 -2.1691 0.0 0
M  V30 6 C 5.1961 -1.4999 0.0 0
M  V30 7 C 3.4641 -1.5 0.0 0
M  V30 8 C 7.1417 -3.2518 0.0 0
M  V30 9 C 6.9338 -2.2736 0.0 0
M  V30 10 C 5.1961 -0.4999 0.0 0
M  V30 11 C 3.4641 -0.5 0.0 0
M  V30 12 C 8.0552 -3.6585 0.0 0
M  V30 13 C 4.3301 0.0 0.0 0
M  V30 14 O 2.598 0.0 0.0 0
M  V30 15 C 8.1598 -4.653 0.0 0
M  V30 16 C 8.8642 -3.0707 0.0 0
M  V30 17 C 1.732 -0.5 0.0 0
M  V30 18 C 9.0733 -5.0598 0.0 0
M  V30 19 C 9.7778 -3.4774 0.0 0
M  V30 20 C 0.866 0.0 0.0 0
M  V30 21 C 9.8823 -4.472 0.0 0
M  V30 22 N 0.0 -0.5 0.0 0
M  V30 23 N 10.7959 -4.8787 0.0 0
M  V30 24 C -0.866 0.0 0.0 0
M  V30 25 C 0.0 -1.4999 0.0 0
M  V30 26 C 11.6049 -4.2909 0.0 0
M  V30 27 C -1.732 -0.4999 0.0 0
M  V30 28 C -0.866 -1.9999 0.0 0
M  V30 29 O 11.5004 -3.2964 0.0 0
M  V30 30 N 12.5184 -4.6977 0.0 0
M  V30 31 O -1.732 -1.4999 0.0 0
M  V30 32 C 13.3274 -4.1099 0.0 0
M  V30 33 N 14.2785 -4.4189 0.0 0
M  V30 34 C 13.3274 -3.1099 0.0 0
M  V30 35 O 14.8663 -3.6099 0.0 0
M  V30 36 C 14.2785 -2.8009 0.0 0
M  V30 37 C 14.5875 -1.8498 0.0 0
M  V30 38 C 13.6365 -1.5408 0.0 0
M  V30 39 C 14.8965 -0.8987 0.0 0
M  V30 40 C 15.5386 -2.1588 0.0 0
M  V30 END ATOM
M  V30 BEGIN BOND
M  V30 1 1 1 2
M  V30 2 1 1 3
M  V30 3 2 2 4
M  V30 4 1 2 5
M  V30 5 2 3 6
M  V30 6 1 3 7
M  V30 7 1 4 8
M  V30 8 1 5 9
M  V30 9 1 6 10
M  V30 10 2 7 11
M  V30 11 1 8 12
M  V30 12 2 10 13
M  V30 13 1 11 14
M  V30 14 2 12 15
M  V30 15 1 12 16
M  V30 16 1 14 17
M  V30 17 1 15 18
M  V30 18 2 16 19
M  V30 19 1 17 20
M  V30 20 2 18 21
M  V30 21 1 20 22
M  V30 22 1 21 23
M  V30 23 1 22 24
M  V30 24 1 22 25
M  V30 25 1 23 26
M  V30 26 1 24 27
M  V30 27 1 25 28
M  V30 28 2 26 29
M  V30 29 1 26 30
M  V30 30 1 27 31
M  V30 31 1 30 32
M  V30 32 2 32 33
M  V30 33 1 32 34
M  V30 34 1 33 35
M  V30 35 2 34 36
M  V30 36 1 36 37
M  V30 37 1 37 38
M  V30 38 1 37 39
M  V30 39 1 37 40
M  V30 40 1 5 6
M  V30 41 2 8 9
M  V30 42 1 11 13
M  V30 43 1 19 21
M  V30 44 1 28 31
M  V30 45 1 35 36
M  V30 END BOND
M  V30 END CTAB
M  END
>  <Molecule Name>
Compound 64

>  <Molecule Name 2>
Compound 64

>  <Compound ID>
36

>  <Name>
Quizartinib

>  <Uniprot>
Q12851

>  <Target>
MAP4K2

>  <Smiles>
CC(C)(C)C1=CC(NC(=O)NC2=CC=C(C3=CN4C(=N3)SC3=CC(OCCN5CCOCC5)=CC=C34)C=C2)=NO1

>  <Kd (nM)>
>10000

>  <Assay (Kd)>
Kd was assessed by competition binding assays

>  <Ki (nM)>


>  <Assay (Ki)>


>  <IC50 (nM)>


>  <Assay (IC50)>


>  <EC50 (nM)>


>  <Assay (EC50)>


>  <Article DOI>
10.1038/nbt.1990

>  <Molecular Weight>
560.68

>  <Exact Mass>
560.2205745

>  <XLogP3>
5.64

>  <Heavy Atom Count>
40

>  <Ring Count>
6

>  <Hydrogen Bond Acceptor Count>
9

>  <Hydrogen Bond Donor Count>
2

>  <Rotatable Bond Count>
7

>  <Topological Polar Surface Area>
106.16

>  <Molecular Formula>
C29H32N6O4S

>  <InChI>
InChI=1S/C29H32N6O4S/c1-29(2,3)25-17-26(33-39-25)32-27(36)30-20-6-4-19(5-7-20)22-18-35-23-9-8-21(16-24(23)40-28(35)31-22)38-15-12-34-10-13-37-14-11-34/h4-9,16-18H,10-15H2,1-3H3,(H2,30,32,33,36)

>  <InChI Key>
CVWXJKQAOSCOAB-UHFFFAOYSA-N

>  <BindingDB>
50300690

>  <PubChem>
24889392

>  <ChEMBL>
CHEMBL576982

$$$$
36
Actelion Java MolfileCreator 2.0

  0  0  0  0  0  0              0 V3000
M  V30 BEGIN CTAB
M  V30 COUNTS 40 45 0 0 0
M  V30 BEGIN ATOM
M  V30 1 S 4.538 -2.9781 0.0 0
M  V30 2 C 5.5325 -3.0826 0.0 0
M  V30 3 C 4.3301 -1.9999 0.0 0
M  V30 4 N 6.2757 -3.7518 0.0 0
M  V30 5 N 5.9392 -2.1691 0.0 0
M  V30 6 C 5.1961 -1.4999 0.0 0
M  V30 7 C 3.4641 -1.5 0.0 0
M  V30 8 C 7.1417 -3.2518 0.0 0
M  V30 9 C 6.9338 -2.2736 0.0 0
M  V30 10 C 5.1961 -0.4999 0.0 0
M  V30 11 C 3.4641 -0.5 0.0 0
M  V30 12 C 8.0552 -3.6585 0.0 0
M  V30 13 C 4.3301 0.0 0.0 0
M  V30 14 O 2.598 0.0 0.0 0
M  V30 15 C 8.1598 -4.653 0.0 0
M  V30 16 C 8.8642 -3.0707 0.0 0
M  V30 17 C 1.732 -0.5 0.0 0
M  V30 18 C 9.0733 -5.0598 0.0 0
M  V30 19 C 9.7778 -3.4774 0.0 0
M  V30 20 C 0.866 0.0 0.0 0
M  V30 21 C 9.8823 -4.472 0.0 0
M  V30 22 N 0.0 -0.5 0.0 0
M  V30 23 N 10.7959 -4.8787 0.0 0
M  V30 24 C -0.866 0.0 0.0 0
M  V30 25 C 0.0 -1.4999 0.0 0
M  V30 26 C 11.6049 -4.2909 0.0 0
M  V30 27 C -1.732 -0.4999 0.0 0
M  V30 28 C -0.866 -1.9999 0.0 0
M  V30 29 O 11.5004 -3.2964 0.0 0
M  V30 30 N 12.5184 -4.6977 0.0 0
M  V30 31 O -1.732 -1.4999 0.0 0
M  V30 32 C 13.3274 -4.1099 0.0 0
M  V30 33 N 14.2785 -4.4189 0.0 0
M  V30 34 C 13.3274 -3.1099 0.0 0
M  V30 35 O 14.8663 -3.6099 0.0 0
M  V30 36 C 14.2785 -2.8009 0.0 0
M  V30 37 C 14.5875 -1.8498 0.0 0
M  V30 38 C 13.6365 -1.5408 0.0 0
M  V30 39 C 14.8965 -0.8987 0.0 0
M  V30 40 C 15.5386 -2.1588 0.0 0
M  V30 END ATOM
M  V30 BEGIN BOND
M  V30 1 1 1 2
M  V30 2 1 1 3
M  V30 3 2 2 4
M  V30 4 1 2 5
M  V30 5 2 3 6
M  V30 6 1 3 7
M  V30 7 1 4 8
M  V30 8 1 5 9
M  V30 9 1 6 10
M  V30 10 2 7 11
M  V30 11 1 8 12
M  V30 12 2 10 13
M  V30 13 1 11 14
M  V30 14 2 12 15
M  V30 15 1 12 16
M  V30 16 1 14 17
M  V30 17 1 15 18
M  V30 18 2 16 19
M  V30 19 1 17 20
M  V30 20 2 18 21
M  V30 21 1 20 22
M  V30 22 1 21 23
M  V30 23 1 22 24
M  V30 24 1 22 25
M  V30 25 1 23 26
M  V30 26 1 24 27
M  V30 27 1 25 28
M  V30 28 2 26 29
M  V30 29 1 26 30
M  V30 30 1 27 31
M  V30 31 1 30 32
M  V30 32 2 32 33
M  V30 33 1 32 34
M  V30 34 1 33 35
M  V30 35 2 34 36
M  V30 36 1 36 37
M  V30 37 1 37 38
M  V30 38 1 37 39
M  V30 39 1 37 40
M  V30 40 1 5 6
M  V30 41 2 8 9
M  V30 42 1 11 13
M  V30 43 1 19 21
M  V30 44 1 28 31
M  V30 45 1 35 36
M  V30 END BOND
M  V30 END CTAB
M  END
>  <Molecule Name>
Compound 65

>  <Molecule Name 2>
Compound 65

>  <Compound ID>
36

>  <Name>
Quizartinib

>  <Uniprot>
Q16539

>  <Target>
p38alpha

>  <Smiles>
CC(C)(C)C1=CC(NC(=O)NC2=CC=C(C3=CN4C(=N3)SC3=CC(OCCN5CCOCC5)=CC=C34)C=C2)=NO1

>  <Kd (nM)>
>10000

>  <Assay (Kd)>
Kd was assessed by competition binding assays

>  <Ki (nM)>


>  <Assay (Ki)>


>  <IC50 (nM)>


>  <Assay (IC50)>


>  <EC50 (nM)>


>  <Assay (EC50)>


>  <Article DOI>
10.1038/nbt.1990

>  <Molecular Weight>
560.68

>  <Exact Mass>
560.2205745

>  <XLogP3>
5.64

>  <Heavy Atom Count>
40

>  <Ring Count>
6

>  <Hydrogen Bond Acceptor Count>
9

>  <Hydrogen Bond Donor Count>
2

>  <Rotatable Bond Count>
7

>  <Topological Polar Surface Area>
106.16

>  <Molecular Formula>
C29H32N6O4S

>  <InChI>
InChI=1S/C29H32N6O4S/c1-29(2,3)25-17-26(33-39-25)32-27(36)30-20-6-4-19(5-7-20)22-18-35-23-9-8-21(16-24(23)40-28(35)31-22)38-15-12-34-10-13-37-14-11-34/h4-9,16-18H,10-15H2,1-3H3,(H2,30,32,33,36)

>  <InChI Key>
CVWXJKQAOSCOAB-UHFFFAOYSA-N

>  <BindingDB>
50300690

>  <PubChem>
24889392

>  <ChEMBL>
CHEMBL576982

$$$$
36
Actelion Java MolfileCreator 2.0

  0  0  0  0  0  0              0 V3000
M  V30 BEGIN CTAB
M  V30 COUNTS 40 45 0 0 0
M  V30 BEGIN ATOM
M  V30 1 S 4.538 -2.9781 0.0 0
M  V30 2 C 5.5325 -3.0826 0.0 0
M  V30 3 C 4.3301 -1.9999 0.0 0
M  V30 4 N 6.2757 -3.7518 0.0 0
M  V30 5 N 5.9392 -2.1691 0.0 0
M  V30 6 C 5.1961 -1.4999 0.0 0
M  V30 7 C 3.4641 -1.5 0.0 0
M  V30 8 C 7.1417 -3.2518 0.0 0
M  V30 9 C 6.9338 -2.2736 0.0 0
M  V30 10 C 5.1961 -0.4999 0.0 0
M  V30 11 C 3.4641 -0.5 0.0 0
M  V30 12 C 8.0552 -3.6585 0.0 0
M  V30 13 C 4.3301 0.0 0.0 0
M  V30 14 O 2.598 0.0 0.0 0
M  V30 15 C 8.1598 -4.653 0.0 0
M  V30 16 C 8.8642 -3.0707 0.0 0
M  V30 17 C 1.732 -0.5 0.0 0
M  V30 18 C 9.0733 -5.0598 0.0 0
M  V30 19 C 9.7778 -3.4774 0.0 0
M  V30 20 C 0.866 0.0 0.0 0
M  V30 21 C 9.8823 -4.472 0.0 0
M  V30 22 N 0.0 -0.5 0.0 0
M  V30 23 N 10.7959 -4.8787 0.0 0
M  V30 24 C -0.866 0.0 0.0 0
M  V30 25 C 0.0 -1.4999 0.0 0
M  V30 26 C 11.6049 -4.2909 0.0 0
M  V30 27 C -1.732 -0.4999 0.0 0
M  V30 28 C -0.866 -1.9999 0.0 0
M  V30 29 O 11.5004 -3.2964 0.0 0
M  V30 30 N 12.5184 -4.6977 0.0 0
M  V30 31 O -1.732 -1.4999 0.0 0
M  V30 32 C 13.3274 -4.1099 0.0 0
M  V30 33 N 14.2785 -4.4189 0.0 0
M  V30 34 C 13.3274 -3.1099 0.0 0
M  V30 35 O 14.8663 -3.6099 0.0 0
M  V30 36 C 14.2785 -2.8009 0.0 0
M  V30 37 C 14.5875 -1.8498 0.0 0
M  V30 38 C 13.6365 -1.5408 0.0 0
M  V30 39 C 14.8965 -0.8987 0.0 0
M  V30 40 C 15.5386 -2.1588 0.0 0
M  V30 END ATOM
M  V30 BEGIN BOND
M  V30 1 1 1 2
M  V30 2 1 1 3
M  V30 3 2 2 4
M  V30 4 1 2 5
M  V30 5 2 3 6
M  V30 6 1 3 7
M  V30 7 1 4 8
M  V30 8 1 5 9
M  V30 9 1 6 10
M  V30 10 2 7 11
M  V30 11 1 8 12
M  V30 12 2 10 13
M  V30 13 1 11 14
M  V30 14 2 12 15
M  V30 15 1 12 16
M  V30 16 1 14 17
M  V30 17 1 15 18
M  V30 18 2 16 19
M  V30 19 1 17 20
M  V30 20 2 18 21
M  V30 21 1 20 22
M  V30 22 1 21 23
M  V30 23 1 22 24
M  V30 24 1 22 25
M  V30 25 1 23 26
M  V30 26 1 24 27
M  V30 27 1 25 28
M  V30 28 2 26 29
M  V30 29 1 26 30
M  V30 30 1 27 31
M  V30 31 1 30 32
M  V30 32 2 32 33
M  V30 33 1 32 34
M  V30 34 1 33 35
M  V30 35 2 34 36
M  V30 36 1 36 37
M  V30 37 1 37 38
M  V30 38 1 37 39
M  V30 39 1 37 40
M  V30 40 1 5 6
M  V30 41 2 8 9
M  V30 42 1 11 13
M  V30 43 1 19 21
M  V30 44 1 28 31
M  V30 45 1 35 36
M  V30 END BOND
M  V30 END CTAB
M  END
>  <Molecule Name>
Compound 66

>  <Molecule Name 2>
Compound 66

>  <Compound ID>
36

>  <Name>
Quizartinib

>  <Uniprot>
Q13546

>  <Target>
RIPK1

>  <Smiles>
CC(C)(C)C1=CC(NC(=O)NC2=CC=C(C3=CN4C(=N3)SC3=CC(OCCN5CCOCC5)=CC=C34)C=C2)=NO1

>  <Kd (nM)>
890

>  <Assay (Kd)>
Kd was assessed by competition binding assays

>  <Ki (nM)>


>  <Assay (Ki)>


>  <IC50 (nM)>


>  <Assay (IC50)>


>  <EC50 (nM)>


>  <Assay (EC50)>


>  <Article DOI>
10.1038/nbt.1990

>  <Molecular Weight>
560.68

>  <Exact Mass>
560.2205745

>  <XLogP3>
5.64

>  <Heavy Atom Count>
40

>  <Ring Count>
6

>  <Hydrogen Bond Acceptor Count>
9

>  <Hydrogen Bond Donor Count>
2

>  <Rotatable Bond Count>
7

>  <Topological Polar Surface Area>
106.16

>  <Molecular Formula>
C29H32N6O4S

>  <InChI>
InChI=1S/C29H32N6O4S/c1-29(2,3)25-17-26(33-39-25)32-27(36)30-20-6-4-19(5-7-20)22-18-35-23-9-8-21(16-24(23)40-28(35)31-22)38-15-12-34-10-13-37-14-11-34/h4-9,16-18H,10-15H2,1-3H3,(H2,30,32,33,36)

>  <InChI Key>
CVWXJKQAOSCOAB-UHFFFAOYSA-N

>  <BindingDB>
50300690

>  <PubChem>
24889392

>  <ChEMBL>
CHEMBL576982

$$$$
36
Actelion Java MolfileCreator 2.0

  0  0  0  0  0  0              0 V3000
M  V30 BEGIN CTAB
M  V30 COUNTS 40 45 0 0 0
M  V30 BEGIN ATOM
M  V30 1 S 4.538 -2.9781 0.0 0
M  V30 2 C 5.5325 -3.0826 0.0 0
M  V30 3 C 4.3301 -1.9999 0.0 0
M  V30 4 N 6.2757 -3.7518 0.0 0
M  V30 5 N 5.9392 -2.1691 0.0 0
M  V30 6 C 5.1961 -1.4999 0.0 0
M  V30 7 C 3.4641 -1.5 0.0 0
M  V30 8 C 7.1417 -3.2518 0.0 0
M  V30 9 C 6.9338 -2.2736 0.0 0
M  V30 10 C 5.1961 -0.4999 0.0 0
M  V30 11 C 3.4641 -0.5 0.0 0
M  V30 12 C 8.0552 -3.6585 0.0 0
M  V30 13 C 4.3301 0.0 0.0 0
M  V30 14 O 2.598 0.0 0.0 0
M  V30 15 C 8.1598 -4.653 0.0 0
M  V30 16 C 8.8642 -3.0707 0.0 0
M  V30 17 C 1.732 -0.5 0.0 0
M  V30 18 C 9.0733 -5.0598 0.0 0
M  V30 19 C 9.7778 -3.4774 0.0 0
M  V30 20 C 0.866 0.0 0.0 0
M  V30 21 C 9.8823 -4.472 0.0 0
M  V30 22 N 0.0 -0.5 0.0 0
M  V30 23 N 10.7959 -4.8787 0.0 0
M  V30 24 C -0.866 0.0 0.0 0
M  V30 25 C 0.0 -1.4999 0.0 0
M  V30 26 C 11.6049 -4.2909 0.0 0
M  V30 27 C -1.732 -0.4999 0.0 0
M  V30 28 C -0.866 -1.9999 0.0 0
M  V30 29 O 11.5004 -3.2964 0.0 0
M  V30 30 N 12.5184 -4.6977 0.0 0
M  V30 31 O -1.732 -1.4999 0.0 0
M  V30 32 C 13.3274 -4.1099 0.0 0
M  V30 33 N 14.2785 -4.4189 0.0 0
M  V30 34 C 13.3274 -3.1099 0.0 0
M  V30 35 O 14.8663 -3.6099 0.0 0
M  V30 36 C 14.2785 -2.8009 0.0 0
M  V30 37 C 14.5875 -1.8498 0.0 0
M  V30 38 C 13.6365 -1.5408 0.0 0
M  V30 39 C 14.8965 -0.8987 0.0 0
M  V30 40 C 15.5386 -2.1588 0.0 0
M  V30 END ATOM
M  V30 BEGIN BOND
M  V30 1 1 1 2
M  V30 2 1 1 3
M  V30 3 2 2 4
M  V30 4 1 2 5
M  V30 5 2 3 6
M  V30 6 1 3 7
M  V30 7 1 4 8
M  V30 8 1 5 9
M  V30 9 1 6 10
M  V30 10 2 7 11
M  V30 11 1 8 12
M  V30 12 2 10 13
M  V30 13 1 11 14
M  V30 14 2 12 15
M  V30 15 1 12 16
M  V30 16 1 14 17
M  V30 17 1 15 18
M  V30 18 2 16 19
M  V30 19 1 17 20
M  V30 20 2 18 21
M  V30 21 1 20 22
M  V30 22 1 21 23
M  V30 23 1 22 24
M  V30 24 1 22 25
M  V30 25 1 23 26
M  V30 26 1 24 27
M  V30 27 1 25 28
M  V30 28 2 26 29
M  V30 29 1 26 30
M  V30 30 1 27 31
M  V30 31 1 30 32
M  V30 32 2 32 33
M  V30 33 1 32 34
M  V30 34 1 33 35
M  V30 35 2 34 36
M  V30 36 1 36 37
M  V30 37 1 37 38
M  V30 38 1 37 39
M  V30 39 1 37 40
M  V30 40 1 5 6
M  V30 41 2 8 9
M  V30 42 1 11 13
M  V30 43 1 19 21
M  V30 44 1 28 31
M  V30 45 1 35 36
M  V30 END BOND
M  V30 END CTAB
M  END
>  <Molecule Name>
Compound 67

>  <Molecule Name 2>
Compound 67

>  <Compound ID>
36

>  <Name>
Quizartinib

>  <Uniprot>
P12931

>  <Target>
Src

>  <Smiles>
CC(C)(C)C1=CC(NC(=O)NC2=CC=C(C3=CN4C(=N3)SC3=CC(OCCN5CCOCC5)=CC=C34)C=C2)=NO1

>  <Kd (nM)>
>10000

>  <Assay (Kd)>
Kd was assessed by competition binding assays

>  <Ki (nM)>


>  <Assay (Ki)>


>  <IC50 (nM)>


>  <Assay (IC50)>


>  <EC50 (nM)>


>  <Assay (EC50)>


>  <Article DOI>
10.1038/nbt.1990

>  <Molecular Weight>
560.68

>  <Exact Mass>
560.2205745

>  <XLogP3>
5.64

>  <Heavy Atom Count>
40

>  <Ring Count>
6

>  <Hydrogen Bond Acceptor Count>
9

>  <Hydrogen Bond Donor Count>
2

>  <Rotatable Bond Count>
7

>  <Topological Polar Surface Area>
106.16

>  <Molecular Formula>
C29H32N6O4S

>  <InChI>
InChI=1S/C29H32N6O4S/c1-29(2,3)25-17-26(33-39-25)32-27(36)30-20-6-4-19(5-7-20)22-18-35-23-9-8-21(16-24(23)40-28(35)31-22)38-15-12-34-10-13-37-14-11-34/h4-9,16-18H,10-15H2,1-3H3,(H2,30,32,33,36)

>  <InChI Key>
CVWXJKQAOSCOAB-UHFFFAOYSA-N

>  <BindingDB>
50300690

>  <PubChem>
24889392

>  <ChEMBL>
CHEMBL576982

$$$$
37
Actelion Java MolfileCreator 2.0

  0  0  0  0  0  0              0 V3000
M  V30 BEGIN CTAB
M  V30 COUNTS 40 44 0 0 0
M  V30 BEGIN ATOM
M  V30 1 Cl 13.7478 -1.5233 0.0 0
M  V30 2 C 12.8661 -0.3098 0.0 0
M  V30 3 C 11.3743 -0.4666 0.0 0
M  V30 4 C 13.4762 1.0605 0.0 0
M  V30 5 O 10.7642 -1.8369 0.0 0
M  V30 6 C 10.4926 0.7469 0.0 0
M  V30 7 C 12.5945 2.274 0.0 0
M  V30 8 C 11.6459 -3.0504 0.0 0
M  V30 9 C 11.1027 2.1172 0.0 0
M  V30 10 N 13.2046 3.6443 0.0 0
M  V30 11 C 11.0358 -4.4207 0.0 0
M  V30 12 C 12.3229 4.8578 0.0 0
M  V30 13 C 11.9174 -5.6342 0.0 0
M  V30 14 C 9.544 -4.5775 0.0 0
M  V30 15 N 12.933 6.2281 0.0 0
M  V30 16 C 10.8311 4.701 0.0 0
M  V30 17 C 11.3073 -7.0046 0.0 0
M  V30 18 C 8.9339 -5.9478 0.0 0
M  V30 19 C 12.0514 7.4417 0.0 0
M  V30 20 C 9.9495 5.9146 0.0 0
M  V30 21 C 10.221 3.3307 0.0 0
M  V30 22 F 12.189 -8.2181 0.0 0
M  V30 23 C 9.8156 -7.1614 0.0 0
M  V30 24 N 10.5596 7.2849 0.0 0
M  V30 25 C 8.4577 5.7578 0.0 0
M  V30 26 C 8.7293 3.1739 0.0 0
M  V30 27 C 7.8476 4.3874 0.0 0
M  V30 28 C 8.1192 1.8036 0.0 0
M  V30 29 O 6.6519 1.4917 0.0 0
M  V30 30 C 8.8692 0.5046 0.0 0
M  V30 31 C 6.4951 0.0 0.0 0
M  V30 32 C 7.8655 -0.6101 0.0 0
M  V30 33 C 5.1961 -0.75 0.0 0
M  V30 34 N 3.8971 0.0 0.0 0
M  V30 35 C 2.598 -0.75 0.0 0
M  V30 36 C 1.299 0.0 0.0 0
M  V30 37 S 0.0 -0.75 0.0 0
M  V30 38 O -0.7499 0.549 0.0 0
M  V30 39 O 0.7499 -2.049 0.0 0
M  V30 40 C -1.299 -1.4999 0.0 0
M  V30 END ATOM
M  V30 BEGIN BOND
M  V30 1 1 1 2
M  V30 2 2 2 3
M  V30 3 1 2 4
M  V30 4 1 3 5
M  V30 5 1 3 6
M  V30 6 2 4 7
M  V30 7 1 5 8
M  V30 8 2 6 9
M  V30 9 1 7 10
M  V30 10 1 8 11
M  V30 11 1 10 12
M  V30 12 2 11 13
M  V30 13 1 11 14
M  V30 14 2 12 15
M  V30 15 1 12 16
M  V30 16 1 13 17
M  V30 17 2 14 18
M  V30 18 1 15 19
M  V30 19 1 16 20
M  V30 20 2 16 21
M  V30 21 1 17 22
M  V30 22 2 17 23
M  V30 23 2 19 24
M  V30 24 2 20 25
M  V30 25 1 21 26
M  V30 26 1 25 27
M  V30 27 1 26 28
M  V30 28 1 28 29
M  V30 29 2 28 30
M  V30 30 1 29 31
M  V30 31 1 30 32
M  V30 32 1 31 33
M  V30 33 1 33 34
M  V30 34 1 34 35
M  V30 35 1 35 36
M  V30 36 1 36 37
M  V30 37 2 37 38
M  V30 38 2 37 39
M  V30 39 1 37 40
M  V30 40 1 7 9
M  V30 41 1 18 23
M  V30 42 1 20 24
M  V30 43 2 26 27
M  V30 44 2 31 32
M  V30 END BOND
M  V30 END CTAB
M  END
>  <Molecule Name>
Compound 68

>  <Molecule Name 2>
Compound 68

>  <Compound ID>
37

>  <Name>
lapatinib

>  <Uniprot>
P00533

>  <Target>
EGFR

>  <Smiles>
CS(=O)(=O)CCNCC1=CC=C(C2=CC=C3N=CN=C(NC4=CC=C(OCC5=CC=CC(F)=C5)C(Cl)=C4)C3=C2)O1

>  <Kd (nM)>
2.4

>  <Assay (Kd)>
Kd was assessed by competition binding assays

>  <Ki (nM)>


>  <Assay (Ki)>


>  <IC50 (nM)>


>  <Assay (IC50)>


>  <EC50 (nM)>


>  <Assay (EC50)>


>  <Article DOI>
10.1038/nbt.1990

>  <Molecular Weight>
581.069

>  <Exact Mass>
580.1347322

>  <XLogP3>
5.12

>  <Heavy Atom Count>
40

>  <Ring Count>
5

>  <Hydrogen Bond Acceptor Count>
8

>  <Hydrogen Bond Donor Count>
2

>  <Rotatable Bond Count>
11

>  <Topological Polar Surface Area>
106.35

>  <Molecular Formula>
C29H26ClFN4O4S

>  <InChI>
InChI=1S/C29H26ClFN4O4S/c1-40(36,37)12-11-32-16-23-7-10-27(39-23)20-5-8-26-24(14-20)29(34-18-33-26)35-22-6-9-28(25(30)15-22)38-17-19-3-2-4-21(31)13-19/h2-10,13-15,18,32H,11-12,16-17H2,1H3,(H,33,34,35)

>  <InChI Key>
BCFGMOOMADDAQU-UHFFFAOYSA-N

>  <BindingDB>
5445

>  <PubChem>
208908

>  <ChEMBL>
CHEMBL554

$$$$
37
Actelion Java MolfileCreator 2.0

  0  0  0  0  0  0              0 V3000
M  V30 BEGIN CTAB
M  V30 COUNTS 40 44 0 0 0
M  V30 BEGIN ATOM
M  V30 1 Cl 13.7478 -1.5233 0.0 0
M  V30 2 C 12.8661 -0.3098 0.0 0
M  V30 3 C 11.3743 -0.4666 0.0 0
M  V30 4 C 13.4762 1.0605 0.0 0
M  V30 5 O 10.7642 -1.8369 0.0 0
M  V30 6 C 10.4926 0.7469 0.0 0
M  V30 7 C 12.5945 2.274 0.0 0
M  V30 8 C 11.6459 -3.0504 0.0 0
M  V30 9 C 11.1027 2.1172 0.0 0
M  V30 10 N 13.2046 3.6443 0.0 0
M  V30 11 C 11.0358 -4.4207 0.0 0
M  V30 12 C 12.3229 4.8578 0.0 0
M  V30 13 C 11.9174 -5.6342 0.0 0
M  V30 14 C 9.544 -4.5775 0.0 0
M  V30 15 N 12.933 6.2281 0.0 0
M  V30 16 C 10.8311 4.701 0.0 0
M  V30 17 C 11.3073 -7.0046 0.0 0
M  V30 18 C 8.9339 -5.9478 0.0 0
M  V30 19 C 12.0514 7.4417 0.0 0
M  V30 20 C 9.9495 5.9146 0.0 0
M  V30 21 C 10.221 3.3307 0.0 0
M  V30 22 F 12.189 -8.2181 0.0 0
M  V30 23 C 9.8156 -7.1614 0.0 0
M  V30 24 N 10.5596 7.2849 0.0 0
M  V30 25 C 8.4577 5.7578 0.0 0
M  V30 26 C 8.7293 3.1739 0.0 0
M  V30 27 C 7.8476 4.3874 0.0 0
M  V30 28 C 8.1192 1.8036 0.0 0
M  V30 29 O 6.6519 1.4917 0.0 0
M  V30 30 C 8.8692 0.5046 0.0 0
M  V30 31 C 6.4951 0.0 0.0 0
M  V30 32 C 7.8655 -0.6101 0.0 0
M  V30 33 C 5.1961 -0.75 0.0 0
M  V30 34 N 3.8971 0.0 0.0 0
M  V30 35 C 2.598 -0.75 0.0 0
M  V30 36 C 1.299 0.0 0.0 0
M  V30 37 S 0.0 -0.75 0.0 0
M  V30 38 O -0.7499 0.549 0.0 0
M  V30 39 O 0.7499 -2.049 0.0 0
M  V30 40 C -1.299 -1.4999 0.0 0
M  V30 END ATOM
M  V30 BEGIN BOND
M  V30 1 1 1 2
M  V30 2 2 2 3
M  V30 3 1 2 4
M  V30 4 1 3 5
M  V30 5 1 3 6
M  V30 6 2 4 7
M  V30 7 1 5 8
M  V30 8 2 6 9
M  V30 9 1 7 10
M  V30 10 1 8 11
M  V30 11 1 10 12
M  V30 12 2 11 13
M  V30 13 1 11 14
M  V30 14 2 12 15
M  V30 15 1 12 16
M  V30 16 1 13 17
M  V30 17 2 14 18
M  V30 18 1 15 19
M  V30 19 1 16 20
M  V30 20 2 16 21
M  V30 21 1 17 22
M  V30 22 2 17 23
M  V30 23 2 19 24
M  V30 24 2 20 25
M  V30 25 1 21 26
M  V30 26 1 25 27
M  V30 27 1 26 28
M  V30 28 1 28 29
M  V30 29 2 28 30
M  V30 30 1 29 31
M  V30 31 1 30 32
M  V30 32 1 31 33
M  V30 33 1 33 34
M  V30 34 1 34 35
M  V30 35 1 35 36
M  V30 36 1 36 37
M  V30 37 2 37 38
M  V30 38 2 37 39
M  V30 39 1 37 40
M  V30 40 1 7 9
M  V30 41 1 18 23
M  V30 42 1 20 24
M  V30 43 2 26 27
M  V30 44 2 31 32
M  V30 END BOND
M  V30 END CTAB
M  END
>  <Molecule Name>
Compound 69

>  <Molecule Name 2>
Compound 69

>  <Compound ID>
37

>  <Name>
lapatinib

>  <Uniprot>
P04626

>  <Target>
HER2

>  <Smiles>
CS(=O)(=O)CCNCC1=CC=C(C2=CC=C3N=CN=C(NC4=CC=C(OCC5=CC=CC(F)=C5)C(Cl)=C4)C3=C2)O1

>  <Kd (nM)>
7

>  <Assay (Kd)>
Kd was assessed by competition binding assays

>  <Ki (nM)>


>  <Assay (Ki)>


>  <IC50 (nM)>


>  <Assay (IC50)>


>  <EC50 (nM)>


>  <Assay (EC50)>


>  <Article DOI>
10.1038/nbt.1990

>  <Molecular Weight>
581.069

>  <Exact Mass>
580.1347322

>  <XLogP3>
5.12

>  <Heavy Atom Count>
40

>  <Ring Count>
5

>  <Hydrogen Bond Acceptor Count>
8

>  <Hydrogen Bond Donor Count>
2

>  <Rotatable Bond Count>
11

>  <Topological Polar Surface Area>
106.35

>  <Molecular Formula>
C29H26ClFN4O4S

>  <InChI>
InChI=1S/C29H26ClFN4O4S/c1-40(36,37)12-11-32-16-23-7-10-27(39-23)20-5-8-26-24(14-20)29(34-18-33-26)35-22-6-9-28(25(30)15-22)38-17-19-3-2-4-21(31)13-19/h2-10,13-15,18,32H,11-12,16-17H2,1H3,(H,33,34,35)

>  <InChI Key>
BCFGMOOMADDAQU-UHFFFAOYSA-N

>  <BindingDB>
5445

>  <PubChem>
208908

>  <ChEMBL>
CHEMBL554

$$$$
38
Actelion Java MolfileCreator 2.0

  0  0  0  0  0  0              0 V3000
M  V30 BEGIN CTAB
M  V30 COUNTS 31 34 0 0 0
M  V30 BEGIN ATOM
M  V30 1 Cl 3.4641 -1.4999 0.0 0
M  V30 2 C 4.3301 -1.9999 0.0 0
M  V30 3 C 4.3301 -2.9999 0.0 0
M  V30 4 C 5.1961 -1.5 0.0 0
M  V30 5 F 3.4641 -3.4999 0.0 0
M  V30 6 C 5.1961 -3.5 0.0 0
M  V30 7 C 6.0621 -2.0 0.0 0
M  V30 8 C 6.0621 -3.0 0.0 0
M  V30 9 N 6.9282 -1.5 0.0 0
M  V30 10 C 6.9282 -0.5 0.0 0
M  V30 11 N 7.7942 0.0 0.0 0
M  V30 12 C 6.0621 0.0 0.0 0
M  V30 13 C 7.7942 0.9999 0.0 0
M  V30 14 C 6.0621 0.9999 0.0 0
M  V30 15 C 5.1961 -0.5 0.0 0
M  V30 16 N 6.9282 1.4999 0.0 0
M  V30 17 C 5.1961 1.4999 0.0 0
M  V30 18 C 4.3301 0.0 0.0 0
M  V30 19 C 4.3301 0.9999 0.0 0
M  V30 20 O 3.4641 -0.5 0.0 0
M  V30 21 O 3.4641 1.4999 0.0 0
M  V30 22 C 2.598 0.0 0.0 0
M  V30 23 C 2.598 0.9999 0.0 0
M  V30 24 C 1.732 -0.5 0.0 0
M  V30 25 C 0.866 0.0 0.0 0
M  V30 26 N 0.0 -0.5 0.0 0
M  V30 27 C -0.866 0.0 0.0 0
M  V30 28 C 0.0 -1.4999 0.0 0
M  V30 29 C -1.732 -0.4999 0.0 0
M  V30 30 C -0.866 -1.9999 0.0 0
M  V30 31 O -1.732 -1.4999 0.0 0
M  V30 END ATOM
M  V30 BEGIN BOND
M  V30 1 1 1 2
M  V30 2 2 2 3
M  V30 3 1 2 4
M  V30 4 1 3 5
M  V30 5 1 3 6
M  V30 6 2 4 7
M  V30 7 2 6 8
M  V30 8 1 7 9
M  V30 9 1 9 10
M  V30 10 2 10 11
M  V30 11 1 10 12
M  V30 12 1 11 13
M  V30 13 1 12 14
M  V30 14 2 12 15
M  V30 15 2 13 16
M  V30 16 2 14 17
M  V30 17 1 15 18
M  V30 18 1 17 19
M  V30 19 1 18 20
M  V30 20 1 19 21
M  V30 21 1 20 22
M  V30 22 1 21 23
M  V30 23 1 22 24
M  V30 24 1 24 25
M  V30 25 1 25 26
M  V30 26 1 26 27
M  V30 27 1 26 28
M  V30 28 1 27 29
M  V30 29 1 28 30
M  V30 30 1 29 31
M  V30 31 1 7 8
M  V30 32 1 14 16
M  V30 33 2 18 19
M  V30 34 1 30 31
M  V30 END BOND
M  V30 END CTAB
M  END
>  <Molecule Name>
Compound 70

>  <Molecule Name 2>
Compound 70

>  <Compound ID>
38

>  <Name>
gefitinib

>  <Uniprot>
P00533

>  <Target>
EGFR L858R

>  <Smiles>
COC1=CC2=NC=NC(NC3=CC=C(F)C(Cl)=C3)=C2C=C1OCCCN1CCOCC1

>  <Kd (nM)>
0.8

>  <Assay (Kd)>
Competition binding assays

>  <Ki (nM)>


>  <Assay (Ki)>


>  <IC50 (nM)>


>  <Assay (IC50)>


>  <EC50 (nM)>


>  <Assay (EC50)>


>  <Article DOI>
10.1021/acs.jmedchem.9b01566

>  <Molecular Weight>
446.91

>  <Exact Mass>
446.1520965

>  <XLogP3>
4.11

>  <Heavy Atom Count>
31

>  <Ring Count>
4

>  <Hydrogen Bond Acceptor Count>
7

>  <Hydrogen Bond Donor Count>
1

>  <Rotatable Bond Count>
8

>  <Topological Polar Surface Area>
68.74

>  <Molecular Formula>
C22H24ClFN4O3

>  <InChI>
InChI=1S/C22H24ClFN4O3/c1-29-20-13-19-16(12-21(20)31-8-2-5-28-6-9-30-10-7-28)22(26-14-25-19)27-15-3-4-18(24)17(23)11-15/h3-4,11-14H,2,5-10H2,1H3,(H,25,26,27)

>  <InChI Key>
XGALLCVXEZPNRQ-UHFFFAOYSA-N

>  <BindingDB>
5447

>  <PubChem>
123631

>  <ChEMBL>
CHEMBL939

$$$$
38
Actelion Java MolfileCreator 2.0

  0  0  0  0  0  0              0 V3000
M  V30 BEGIN CTAB
M  V30 COUNTS 31 34 0 0 0
M  V30 BEGIN ATOM
M  V30 1 Cl 3.4641 -1.4999 0.0 0
M  V30 2 C 4.3301 -1.9999 0.0 0
M  V30 3 C 4.3301 -2.9999 0.0 0
M  V30 4 C 5.1961 -1.5 0.0 0
M  V30 5 F 3.4641 -3.4999 0.0 0
M  V30 6 C 5.1961 -3.5 0.0 0
M  V30 7 C 6.0621 -2.0 0.0 0
M  V30 8 C 6.0621 -3.0 0.0 0
M  V30 9 N 6.9282 -1.5 0.0 0
M  V30 10 C 6.9282 -0.5 0.0 0
M  V30 11 N 7.7942 0.0 0.0 0
M  V30 12 C 6.0621 0.0 0.0 0
M  V30 13 C 7.7942 0.9999 0.0 0
M  V30 14 C 6.0621 0.9999 0.0 0
M  V30 15 C 5.1961 -0.5 0.0 0
M  V30 16 N 6.9282 1.4999 0.0 0
M  V30 17 C 5.1961 1.4999 0.0 0
M  V30 18 C 4.3301 0.0 0.0 0
M  V30 19 C 4.3301 0.9999 0.0 0
M  V30 20 O 3.4641 -0.5 0.0 0
M  V30 21 O 3.4641 1.4999 0.0 0
M  V30 22 C 2.598 0.0 0.0 0
M  V30 23 C 2.598 0.9999 0.0 0
M  V30 24 C 1.732 -0.5 0.0 0
M  V30 25 C 0.866 0.0 0.0 0
M  V30 26 N 0.0 -0.5 0.0 0
M  V30 27 C -0.866 0.0 0.0 0
M  V30 28 C 0.0 -1.4999 0.0 0
M  V30 29 C -1.732 -0.4999 0.0 0
M  V30 30 C -0.866 -1.9999 0.0 0
M  V30 31 O -1.732 -1.4999 0.0 0
M  V30 END ATOM
M  V30 BEGIN BOND
M  V30 1 1 1 2
M  V30 2 2 2 3
M  V30 3 1 2 4
M  V30 4 1 3 5
M  V30 5 1 3 6
M  V30 6 2 4 7
M  V30 7 2 6 8
M  V30 8 1 7 9
M  V30 9 1 9 10
M  V30 10 2 10 11
M  V30 11 1 10 12
M  V30 12 1 11 13
M  V30 13 1 12 14
M  V30 14 2 12 15
M  V30 15 2 13 16
M  V30 16 2 14 17
M  V30 17 1 15 18
M  V30 18 1 17 19
M  V30 19 1 18 20
M  V30 20 1 19 21
M  V30 21 1 20 22
M  V30 22 1 21 23
M  V30 23 1 22 24
M  V30 24 1 24 25
M  V30 25 1 25 26
M  V30 26 1 26 27
M  V30 27 1 26 28
M  V30 28 1 27 29
M  V30 29 1 28 30
M  V30 30 1 29 31
M  V30 31 1 7 8
M  V30 32 1 14 16
M  V30 33 2 18 19
M  V30 34 1 30 31
M  V30 END BOND
M  V30 END CTAB
M  END
>  <Molecule Name>
Compound 71

>  <Molecule Name 2>
Compound 71

>  <Compound ID>
38

>  <Name>
gefitinib

>  <Uniprot>
P00533

>  <Target>
EGFR

>  <Smiles>
COC1=CC2=NC=NC(NC3=CC=C(F)C(Cl)=C3)=C2C=C1OCCCN1CCOCC1

>  <Kd (nM)>
1

>  <Assay (Kd)>
Kd was assessed by competition binding assays

>  <Ki (nM)>


>  <Assay (Ki)>


>  <IC50 (nM)>


>  <Assay (IC50)>


>  <EC50 (nM)>


>  <Assay (EC50)>


>  <Article DOI>
10.1038/nbt.1990

>  <Molecular Weight>
446.91

>  <Exact Mass>
446.1520965

>  <XLogP3>
4.11

>  <Heavy Atom Count>
31

>  <Ring Count>
4

>  <Hydrogen Bond Acceptor Count>
7

>  <Hydrogen Bond Donor Count>
1

>  <Rotatable Bond Count>
8

>  <Topological Polar Surface Area>
68.74

>  <Molecular Formula>
C22H24ClFN4O3

>  <InChI>
InChI=1S/C22H24ClFN4O3/c1-29-20-13-19-16(12-21(20)31-8-2-5-28-6-9-30-10-7-28)22(26-14-25-19)27-15-3-4-18(24)17(23)11-15/h3-4,11-14H,2,5-10H2,1H3,(H,25,26,27)

>  <InChI Key>
XGALLCVXEZPNRQ-UHFFFAOYSA-N

>  <BindingDB>
5447

>  <PubChem>
123631

>  <ChEMBL>
CHEMBL939

$$$$
39
Actelion Java MolfileCreator 2.0

  0  0  0  0  0  0              0 V3000
M  V30 BEGIN CTAB
M  V30 COUNTS 34 37 0 0 0
M  V30 BEGIN ATOM
M  V30 1 Cl 15.5884 -6.75 0.0 0
M  V30 2 C 15.5884 -5.25 0.0 0
M  V30 3 C 16.8874 -4.5 0.0 0
M  V30 4 C 14.2894 -4.5 0.0 0
M  V30 5 F 18.1865 -5.25 0.0 0
M  V30 6 C 16.8874 -3.0 0.0 0
M  V30 7 C 14.2894 -3.0 0.0 0
M  V30 8 C 15.5884 -2.25 0.0 0
M  V30 9 N 12.9903 -2.25 0.0 0
M  V30 10 C 12.9903 -0.75 0.0 0
M  V30 11 N 14.2894 0.0 0.0 0
M  V30 12 C 11.6913 0.0 0.0 0
M  V30 13 C 14.2894 1.4999 0.0 0
M  V30 14 C 11.6913 1.4999 0.0 0
M  V30 15 C 10.3923 -0.75 0.0 0
M  V30 16 N 12.9903 2.2499 0.0 0
M  V30 17 C 10.3923 2.2499 0.0 0
M  V30 18 C 9.0932 0.0 0.0 0
M  V30 19 C 9.0932 1.4999 0.0 0
M  V30 20 N 7.7942 -0.75 0.0 0
M  V30 21 O 7.7942 2.25 0.0 0
M  V30 22 C 7.7942 -2.25 0.0 0
M  V30 23 C 6.4951 1.5 0.0 0 CFG=2
M  V30 24 O 9.0932 -3.0 0.0 0
M  V30 25 C 6.4951 -2.9999 0.0 0
M  V30 26 C 5.1248 2.1101 0.0 0
M  V30 27 C 6.3383 0.0082 0.0 0
M  V30 28 C 6.4951 -4.5 0.0 0
M  V30 29 O 4.1211 0.9953 0.0 0
M  V30 30 C 4.8711 -0.3036 0.0 0
M  V30 31 C 5.1961 -5.25 0.0 0
M  V30 32 N 5.1961 -6.75 0.0 0
M  V30 33 C 6.4951 -7.5 0.0 0
M  V30 34 C 3.8971 -7.4999 0.0 0
M  V30 END ATOM
M  V30 BEGIN BOND
M  V30 1 1 1 2
M  V30 2 2 2 3
M  V30 3 1 2 4
M  V30 4 1 3 5
M  V30 5 1 3 6
M  V30 6 2 4 7
M  V30 7 2 6 8
M  V30 8 1 7 9
M  V30 9 1 9 10
M  V30 10 2 10 11
M  V30 11 1 10 12
M  V30 12 1 11 13
M  V30 13 1 12 14
M  V30 14 2 12 15
M  V30 15 2 13 16
M  V30 16 2 14 17
M  V30 17 1 15 18
M  V30 18 1 17 19
M  V30 19 1 18 20
M  V30 20 1 19 21
M  V30 21 1 20 22
M  V30 22 1 23 21 CFG=1
M  V30 23 2 22 24
M  V30 24 1 22 25
M  V30 25 1 23 26
M  V30 26 1 23 27
M  V30 27 2 25 28
M  V30 28 1 26 29
M  V30 29 1 27 30
M  V30 30 1 28 31
M  V30 31 1 31 32
M  V30 32 1 32 33
M  V30 33 1 32 34
M  V30 34 1 7 8
M  V30 35 1 14 16
M  V30 36 2 18 19
M  V30 37 1 29 30
M  V30 END BOND
M  V30 BEGIN COLLECTION
M  V30 MDLV30/STEABS ATOMS=(1 23)
M  V30 END COLLECTION
M  V30 END CTAB
M  END
>  <Molecule Name>
Compound 72

>  <Molecule Name 2>
Compound 72

>  <Compound ID>
39

>  <Name>
afatinib

>  <Uniprot>
P00533

>  <Target>
EGFR

>  <Smiles>
CN(C)C/C=C/C(=O)NC1=CC2=C(NC3=CC=C(F)C(Cl)=C3)N=CN=C2C=C1O[C@H]1CCOC1

>  <Kd (nM)>
1.1

>  <Assay (Kd)>
Kd for EGFR(L858R,T790M) was assessed by competition binding assays

>  <Ki (nM)>


>  <Assay (Ki)>


>  <IC50 (nM)>


>  <Assay (IC50)>


>  <EC50 (nM)>


>  <Assay (EC50)>


>  <Article DOI>
10.1038/nbt.1990

>  <Molecular Weight>
485.947

>  <Exact Mass>
485.1629956

>  <XLogP3>
3.64

>  <Heavy Atom Count>
34

>  <Ring Count>
4

>  <Hydrogen Bond Acceptor Count>
7

>  <Hydrogen Bond Donor Count>
2

>  <Rotatable Bond Count>
8

>  <Topological Polar Surface Area>
88.61

>  <Molecular Formula>
C24H25ClFN5O3

>  <InChI>
InChI=1S/C24H25ClFN5O3/c1-31(2)8-3-4-23(32)30-21-11-17-20(12-22(21)34-16-7-9-33-13-16)27-14-28-24(17)29-15-5-6-19(26)18(25)10-15/h3-6,10-12,14,16H,7-9,13H2,1-2H3,(H,30,32)(H,27,28,29)/b4-3+/t16-/m0/s1

>  <InChI Key>
ULXXDDBFHOBEHA-CWDCEQMOSA-N

>  <BindingDB>
50322823

>  <PubChem>
10184653

>  <ChEMBL>
CHEMBL1173655

$$$$
40
Actelion Java MolfileCreator 2.0

  0  0  0  0  0  0              0 V3000
M  V30 BEGIN CTAB
M  V30 COUNTS 46 51 0 0 0
M  V30 BEGIN ATOM
M  V30 1 F 10.3965 6.7527 0.0 0
M  V30 2 C 11.696 6.0024 0.0 0
M  V30 3 C 11.696 4.5018 0.0 0
M  V30 4 C 12.9956 6.7527 0.0 0
M  V30 5 O 10.3965 3.7515 0.0 0
M  V30 6 C 12.9956 3.7515 0.0 0
M  V30 7 C 14.2952 6.0024 0.0 0
M  V30 8 C 10.3965 2.2509 0.0 0
M  V30 9 C 14.2952 4.5018 0.0 0
M  V30 10 N 15.5924 6.7349 0.0 0
M  V30 11 C 9.0969 1.5006 0.0 0
M  V30 12 C 11.696 1.5006 0.0 0
M  V30 13 C 16.8943 6.0024 0.0 0
M  V30 14 C 9.0969 0.0 0.0 0
M  V30 15 C 7.7973 2.2509 0.0 0
M  V30 16 C 11.696 0.0 0.0 0
M  V30 17 O 16.8943 4.5018 0.0 0
M  V30 18 C 18.1939 6.7527 0.0 0
M  V30 19 N 10.3965 -0.7503 0.0 0
M  V30 20 C 7.7973 -0.7503 0.0 0
M  V30 21 C 6.4978 1.5006 0.0 0
M  V30 22 C 17.1328 7.8138 0.0 0
M  V30 23 C 19.6945 6.7527 0.0 0
M  V30 24 C 18.9442 8.0523 0.0 0
M  V30 25 C 6.4978 0.0 0.0 0
M  V30 26 O 5.1982 2.2509 0.0 0
M  V30 27 O 15.688 7.461 0.0 0
M  V30 28 N 17.5211 9.2633 0.0 0
M  V30 29 O 5.1982 -0.7503 0.0 0
M  V30 30 C 3.8986 1.5006 0.0 0
M  V30 31 C 16.4601 10.3243 0.0 0
M  V30 32 C 3.8986 0.0 0.0 0
M  V30 33 C 16.8484 11.7738 0.0 0
M  V30 34 C 15.0106 9.936 0.0 0
M  V30 35 C 2.5991 -0.7503 0.0 0
M  V30 36 C 15.7874 12.8349 0.0 0
M  V30 37 C 13.9495 10.997 0.0 0
M  V30 38 C 1.2995 0.0 0.0 0
M  V30 39 C 14.3379 12.4465 0.0 0
M  V30 40 N 0.0 -0.7503 0.0 0
M  V30 41 F 13.2768 13.5076 0.0 0
M  V30 42 C -1.2995 0.0 0.0 0
M  V30 43 C 0.0 -2.2509 0.0 0
M  V30 44 C -2.5991 -0.7503 0.0 0
M  V30 45 C -1.2995 -3.0012 0.0 0
M  V30 46 O -2.5991 -2.2509 0.0 0
M  V30 END ATOM
M  V30 BEGIN BOND
M  V30 1 1 1 2
M  V30 2 2 2 3
M  V30 3 1 2 4
M  V30 4 1 3 5
M  V30 5 1 3 6
M  V30 6 2 4 7
M  V30 7 1 5 8
M  V30 8 2 6 9
M  V30 9 1 7 10
M  V30 10 1 8 11
M  V30 11 2 8 12
M  V30 12 1 10 13
M  V30 13 1 11 14
M  V30 14 2 11 15
M  V30 15 1 12 16
M  V30 16 2 13 17
M  V30 17 1 13 18
M  V30 18 1 14 19
M  V30 19 2 14 20
M  V30 20 1 15 21
M  V30 21 1 18 22
M  V30 22 1 18 23
M  V30 23 1 18 24
M  V30 24 1 20 25
M  V30 25 1 21 26
M  V30 26 2 22 27
M  V30 27 1 22 28
M  V30 28 1 25 29
M  V30 29 1 26 30
M  V30 30 1 28 31
M  V30 31 1 29 32
M  V30 32 2 31 33
M  V30 33 1 31 34
M  V30 34 1 32 35
M  V30 35 1 33 36
M  V30 36 2 34 37
M  V30 37 1 35 38
M  V30 38 2 36 39
M  V30 39 1 38 40
M  V30 40 1 39 41
M  V30 41 1 40 42
M  V30 42 1 40 43
M  V30 43 1 42 44
M  V30 44 1 43 45
M  V30 45 1 44 46
M  V30 46 1 7 9
M  V30 47 2 16 19
M  V30 48 2 21 25
M  V30 49 1 23 24
M  V30 50 1 37 39
M  V30 51 1 45 46
M  V30 END BOND
M  V30 END CTAB
M  END
>  <Molecule Name>
Compound 73

>  <Molecule Name 2>
Compound 73

>  <Compound ID>
40

>  <Name>
foretinib

>  <Uniprot>
P08581

>  <Target>
c-Met

>  <Smiles>
COC1=CC2=C(OC3=CC=C(NC(=O)C4(C(=O)NC5=CC=C(F)C=C5)CC4)C=C3F)C=CN=C2C=C1OCCCN1CCOCC1

>  <Kd (nM)>
1.7

>  <Assay (Kd)>
Competition binding assays

>  <Ki (nM)>


>  <Assay (Ki)>


>  <IC50 (nM)>


>  <Assay (IC50)>


>  <EC50 (nM)>


>  <Assay (EC50)>


>  <Article DOI>
10.1016/j.chembiol.2017.09.010

>  <Molecular Weight>
632.664

>  <Exact Mass>
632.2446412

>  <XLogP3>
5.51

>  <Heavy Atom Count>
46

>  <Ring Count>
6

>  <Hydrogen Bond Acceptor Count>
8

>  <Hydrogen Bond Donor Count>
2

>  <Rotatable Bond Count>
12

>  <Topological Polar Surface Area>
111.25

>  <Molecular Formula>
C34H34F2N4O6

>  <InChI>
InChI=1S/C34H34F2N4O6/c1-43-30-20-25-27(21-31(30)45-16-2-13-40-14-17-44-18-15-40)37-12-9-28(25)46-29-8-7-24(19-26(29)36)39-33(42)34(10-11-34)32(41)38-23-5-3-22(35)4-6-23/h3-9,12,19-21H,2,10-11,13-18H2,1H3,(H,38,41)(H,39,42)

>  <InChI Key>
CXQHYVUVSFXTMY-UHFFFAOYSA-N

>  <BindingDB>
50399540

>  <PubChem>
42642645

>  <ChEMBL>
CHEMBL1230609

$$$$
40
Actelion Java MolfileCreator 2.0

  0  0  0  0  0  0              0 V3000
M  V30 BEGIN CTAB
M  V30 COUNTS 46 51 0 0 0
M  V30 BEGIN ATOM
M  V30 1 F 10.3965 6.7527 0.0 0
M  V30 2 C 11.696 6.0024 0.0 0
M  V30 3 C 11.696 4.5018 0.0 0
M  V30 4 C 12.9956 6.7527 0.0 0
M  V30 5 O 10.3965 3.7515 0.0 0
M  V30 6 C 12.9956 3.7515 0.0 0
M  V30 7 C 14.2952 6.0024 0.0 0
M  V30 8 C 10.3965 2.2509 0.0 0
M  V30 9 C 14.2952 4.5018 0.0 0
M  V30 10 N 15.5924 6.7349 0.0 0
M  V30 11 C 9.0969 1.5006 0.0 0
M  V30 12 C 11.696 1.5006 0.0 0
M  V30 13 C 16.8943 6.0024 0.0 0
M  V30 14 C 9.0969 0.0 0.0 0
M  V30 15 C 7.7973 2.2509 0.0 0
M  V30 16 C 11.696 0.0 0.0 0
M  V30 17 O 16.8943 4.5018 0.0 0
M  V30 18 C 18.1939 6.7527 0.0 0
M  V30 19 N 10.3965 -0.7503 0.0 0
M  V30 20 C 7.7973 -0.7503 0.0 0
M  V30 21 C 6.4978 1.5006 0.0 0
M  V30 22 C 17.1328 7.8138 0.0 0
M  V30 23 C 19.6945 6.7527 0.0 0
M  V30 24 C 18.9442 8.0523 0.0 0
M  V30 25 C 6.4978 0.0 0.0 0
M  V30 26 O 5.1982 2.2509 0.0 0
M  V30 27 O 15.688 7.461 0.0 0
M  V30 28 N 17.5211 9.2633 0.0 0
M  V30 29 O 5.1982 -0.7503 0.0 0
M  V30 30 C 3.8986 1.5006 0.0 0
M  V30 31 C 16.4601 10.3243 0.0 0
M  V30 32 C 3.8986 0.0 0.0 0
M  V30 33 C 16.8484 11.7738 0.0 0
M  V30 34 C 15.0106 9.936 0.0 0
M  V30 35 C 2.5991 -0.7503 0.0 0
M  V30 36 C 15.7874 12.8349 0.0 0
M  V30 37 C 13.9495 10.997 0.0 0
M  V30 38 C 1.2995 0.0 0.0 0
M  V30 39 C 14.3379 12.4465 0.0 0
M  V30 40 N 0.0 -0.7503 0.0 0
M  V30 41 F 13.2768 13.5076 0.0 0
M  V30 42 C -1.2995 0.0 0.0 0
M  V30 43 C 0.0 -2.2509 0.0 0
M  V30 44 C -2.5991 -0.7503 0.0 0
M  V30 45 C -1.2995 -3.0012 0.0 0
M  V30 46 O -2.5991 -2.2509 0.0 0
M  V30 END ATOM
M  V30 BEGIN BOND
M  V30 1 1 1 2
M  V30 2 2 2 3
M  V30 3 1 2 4
M  V30 4 1 3 5
M  V30 5 1 3 6
M  V30 6 2 4 7
M  V30 7 1 5 8
M  V30 8 2 6 9
M  V30 9 1 7 10
M  V30 10 1 8 11
M  V30 11 2 8 12
M  V30 12 1 10 13
M  V30 13 1 11 14
M  V30 14 2 11 15
M  V30 15 1 12 16
M  V30 16 2 13 17
M  V30 17 1 13 18
M  V30 18 1 14 19
M  V30 19 2 14 20
M  V30 20 1 15 21
M  V30 21 1 18 22
M  V30 22 1 18 23
M  V30 23 1 18 24
M  V30 24 1 20 25
M  V30 25 1 21 26
M  V30 26 2 22 27
M  V30 27 1 22 28
M  V30 28 1 25 29
M  V30 29 1 26 30
M  V30 30 1 28 31
M  V30 31 1 29 32
M  V30 32 2 31 33
M  V30 33 1 31 34
M  V30 34 1 32 35
M  V30 35 1 33 36
M  V30 36 2 34 37
M  V30 37 1 35 38
M  V30 38 2 36 39
M  V30 39 1 38 40
M  V30 40 1 39 41
M  V30 41 1 40 42
M  V30 42 1 40 43
M  V30 43 1 42 44
M  V30 44 1 43 45
M  V30 45 1 44 46
M  V30 46 1 7 9
M  V30 47 2 16 19
M  V30 48 2 21 25
M  V30 49 1 23 24
M  V30 50 1 37 39
M  V30 51 1 45 46
M  V30 END BOND
M  V30 END CTAB
M  END
>  <Molecule Name>
Compound 74

>  <Molecule Name 2>
Compound 74

>  <Compound ID>
40

>  <Name>
foretinib

>  <Uniprot>
Q12866

>  <Target>
MerTK

>  <Smiles>
COC1=CC2=C(OC3=CC=C(NC(=O)C4(C(=O)NC5=CC=C(F)C=C5)CC4)C=C3F)C=CN=C2C=C1OCCCN1CCOCC1

>  <Kd (nM)>
0.36

>  <Assay (Kd)>
Competition binding assays

>  <Ki (nM)>


>  <Assay (Ki)>


>  <IC50 (nM)>


>  <Assay (IC50)>


>  <EC50 (nM)>


>  <Assay (EC50)>


>  <Article DOI>
10.1016/j.chembiol.2017.09.010

>  <Molecular Weight>
632.664

>  <Exact Mass>
632.2446412

>  <XLogP3>
5.51

>  <Heavy Atom Count>
46

>  <Ring Count>
6

>  <Hydrogen Bond Acceptor Count>
8

>  <Hydrogen Bond Donor Count>
2

>  <Rotatable Bond Count>
12

>  <Topological Polar Surface Area>
111.25

>  <Molecular Formula>
C34H34F2N4O6

>  <InChI>
InChI=1S/C34H34F2N4O6/c1-43-30-20-25-27(21-31(30)45-16-2-13-40-14-17-44-18-15-40)37-12-9-28(25)46-29-8-7-24(19-26(29)36)39-33(42)34(10-11-34)32(41)38-23-5-3-22(35)4-6-23/h3-9,12,19-21H,2,10-11,13-18H2,1H3,(H,38,41)(H,39,42)

>  <InChI Key>
CXQHYVUVSFXTMY-UHFFFAOYSA-N

>  <BindingDB>
50399540

>  <PubChem>
42642645

>  <ChEMBL>
CHEMBL1230609

$$$$
40
Actelion Java MolfileCreator 2.0

  0  0  0  0  0  0              0 V3000
M  V30 BEGIN CTAB
M  V30 COUNTS 46 51 0 0 0
M  V30 BEGIN ATOM
M  V30 1 F 10.3965 6.7527 0.0 0
M  V30 2 C 11.696 6.0024 0.0 0
M  V30 3 C 11.696 4.5018 0.0 0
M  V30 4 C 12.9956 6.7527 0.0 0
M  V30 5 O 10.3965 3.7515 0.0 0
M  V30 6 C 12.9956 3.7515 0.0 0
M  V30 7 C 14.2952 6.0024 0.0 0
M  V30 8 C 10.3965 2.2509 0.0 0
M  V30 9 C 14.2952 4.5018 0.0 0
M  V30 10 N 15.5924 6.7349 0.0 0
M  V30 11 C 9.0969 1.5006 0.0 0
M  V30 12 C 11.696 1.5006 0.0 0
M  V30 13 C 16.8943 6.0024 0.0 0
M  V30 14 C 9.0969 0.0 0.0 0
M  V30 15 C 7.7973 2.2509 0.0 0
M  V30 16 C 11.696 0.0 0.0 0
M  V30 17 O 16.8943 4.5018 0.0 0
M  V30 18 C 18.1939 6.7527 0.0 0
M  V30 19 N 10.3965 -0.7503 0.0 0
M  V30 20 C 7.7973 -0.7503 0.0 0
M  V30 21 C 6.4978 1.5006 0.0 0
M  V30 22 C 17.1328 7.8138 0.0 0
M  V30 23 C 19.6945 6.7527 0.0 0
M  V30 24 C 18.9442 8.0523 0.0 0
M  V30 25 C 6.4978 0.0 0.0 0
M  V30 26 O 5.1982 2.2509 0.0 0
M  V30 27 O 15.688 7.461 0.0 0
M  V30 28 N 17.5211 9.2633 0.0 0
M  V30 29 O 5.1982 -0.7503 0.0 0
M  V30 30 C 3.8986 1.5006 0.0 0
M  V30 31 C 16.4601 10.3243 0.0 0
M  V30 32 C 3.8986 0.0 0.0 0
M  V30 33 C 16.8484 11.7738 0.0 0
M  V30 34 C 15.0106 9.936 0.0 0
M  V30 35 C 2.5991 -0.7503 0.0 0
M  V30 36 C 15.7874 12.8349 0.0 0
M  V30 37 C 13.9495 10.997 0.0 0
M  V30 38 C 1.2995 0.0 0.0 0
M  V30 39 C 14.3379 12.4465 0.0 0
M  V30 40 N 0.0 -0.7503 0.0 0
M  V30 41 F 13.2768 13.5076 0.0 0
M  V30 42 C -1.2995 0.0 0.0 0
M  V30 43 C 0.0 -2.2509 0.0 0
M  V30 44 C -2.5991 -0.7503 0.0 0
M  V30 45 C -1.2995 -3.0012 0.0 0
M  V30 46 O -2.5991 -2.2509 0.0 0
M  V30 END ATOM
M  V30 BEGIN BOND
M  V30 1 1 1 2
M  V30 2 2 2 3
M  V30 3 1 2 4
M  V30 4 1 3 5
M  V30 5 1 3 6
M  V30 6 2 4 7
M  V30 7 1 5 8
M  V30 8 2 6 9
M  V30 9 1 7 10
M  V30 10 1 8 11
M  V30 11 2 8 12
M  V30 12 1 10 13
M  V30 13 1 11 14
M  V30 14 2 11 15
M  V30 15 1 12 16
M  V30 16 2 13 17
M  V30 17 1 13 18
M  V30 18 1 14 19
M  V30 19 2 14 20
M  V30 20 1 15 21
M  V30 21 1 18 22
M  V30 22 1 18 23
M  V30 23 1 18 24
M  V30 24 1 20 25
M  V30 25 1 21 26
M  V30 26 2 22 27
M  V30 27 1 22 28
M  V30 28 1 25 29
M  V30 29 1 26 30
M  V30 30 1 28 31
M  V30 31 1 29 32
M  V30 32 2 31 33
M  V30 33 1 31 34
M  V30 34 1 32 35
M  V30 35 1 33 36
M  V30 36 2 34 37
M  V30 37 1 35 38
M  V30 38 2 36 39
M  V30 39 1 38 40
M  V30 40 1 39 41
M  V30 41 1 40 42
M  V30 42 1 40 43
M  V30 43 1 42 44
M  V30 44 1 43 45
M  V30 45 1 44 46
M  V30 46 1 7 9
M  V30 47 2 16 19
M  V30 48 2 21 25
M  V30 49 1 23 24
M  V30 50 1 37 39
M  V30 51 1 45 46
M  V30 END BOND
M  V30 END CTAB
M  END
>  <Molecule Name>
Compound 75

>  <Molecule Name 2>
Compound 75

>  <Compound ID>
40

>  <Name>
foretinib

>  <Uniprot>
Q16539

>  <Target>
p38alpha

>  <Smiles>
COC1=CC2=C(OC3=CC=C(NC(=O)C4(C(=O)NC5=CC=C(F)C=C5)CC4)C=C3F)C=CN=C2C=C1OCCCN1CCOCC1

>  <Kd (nM)>
60

>  <Assay (Kd)>
Competition binding assays

>  <Ki (nM)>


>  <Assay (Ki)>


>  <IC50 (nM)>


>  <Assay (IC50)>


>  <EC50 (nM)>


>  <Assay (EC50)>


>  <Article DOI>
10.1016/j.chembiol.2017.09.010

>  <Molecular Weight>
632.664

>  <Exact Mass>
632.2446412

>  <XLogP3>
5.51

>  <Heavy Atom Count>
46

>  <Ring Count>
6

>  <Hydrogen Bond Acceptor Count>
8

>  <Hydrogen Bond Donor Count>
2

>  <Rotatable Bond Count>
12

>  <Topological Polar Surface Area>
111.25

>  <Molecular Formula>
C34H34F2N4O6

>  <InChI>
InChI=1S/C34H34F2N4O6/c1-43-30-20-25-27(21-31(30)45-16-2-13-40-14-17-44-18-15-40)37-12-9-28(25)46-29-8-7-24(19-26(29)36)39-33(42)34(10-11-34)32(41)38-23-5-3-22(35)4-6-23/h3-9,12,19-21H,2,10-11,13-18H2,1H3,(H,38,41)(H,39,42)

>  <InChI Key>
CXQHYVUVSFXTMY-UHFFFAOYSA-N

>  <BindingDB>
50399540

>  <PubChem>
42642645

>  <ChEMBL>
CHEMBL1230609

$$$$
40
Actelion Java MolfileCreator 2.0

  0  0  0  0  0  0              0 V3000
M  V30 BEGIN CTAB
M  V30 COUNTS 46 51 0 0 0
M  V30 BEGIN ATOM
M  V30 1 F 10.3965 6.7527 0.0 0
M  V30 2 C 11.696 6.0024 0.0 0
M  V30 3 C 11.696 4.5018 0.0 0
M  V30 4 C 12.9956 6.7527 0.0 0
M  V30 5 O 10.3965 3.7515 0.0 0
M  V30 6 C 12.9956 3.7515 0.0 0
M  V30 7 C 14.2952 6.0024 0.0 0
M  V30 8 C 10.3965 2.2509 0.0 0
M  V30 9 C 14.2952 4.5018 0.0 0
M  V30 10 N 15.5924 6.7349 0.0 0
M  V30 11 C 9.0969 1.5006 0.0 0
M  V30 12 C 11.696 1.5006 0.0 0
M  V30 13 C 16.8943 6.0024 0.0 0
M  V30 14 C 9.0969 0.0 0.0 0
M  V30 15 C 7.7973 2.2509 0.0 0
M  V30 16 C 11.696 0.0 0.0 0
M  V30 17 O 16.8943 4.5018 0.0 0
M  V30 18 C 18.1939 6.7527 0.0 0
M  V30 19 N 10.3965 -0.7503 0.0 0
M  V30 20 C 7.7973 -0.7503 0.0 0
M  V30 21 C 6.4978 1.5006 0.0 0
M  V30 22 C 17.1328 7.8138 0.0 0
M  V30 23 C 19.6945 6.7527 0.0 0
M  V30 24 C 18.9442 8.0523 0.0 0
M  V30 25 C 6.4978 0.0 0.0 0
M  V30 26 O 5.1982 2.2509 0.0 0
M  V30 27 O 15.688 7.461 0.0 0
M  V30 28 N 17.5211 9.2633 0.0 0
M  V30 29 O 5.1982 -0.7503 0.0 0
M  V30 30 C 3.8986 1.5006 0.0 0
M  V30 31 C 16.4601 10.3243 0.0 0
M  V30 32 C 3.8986 0.0 0.0 0
M  V30 33 C 16.8484 11.7738 0.0 0
M  V30 34 C 15.0106 9.936 0.0 0
M  V30 35 C 2.5991 -0.7503 0.0 0
M  V30 36 C 15.7874 12.8349 0.0 0
M  V30 37 C 13.9495 10.997 0.0 0
M  V30 38 C 1.2995 0.0 0.0 0
M  V30 39 C 14.3379 12.4465 0.0 0
M  V30 40 N 0.0 -0.7503 0.0 0
M  V30 41 F 13.2768 13.5076 0.0 0
M  V30 42 C -1.2995 0.0 0.0 0
M  V30 43 C 0.0 -2.2509 0.0 0
M  V30 44 C -2.5991 -0.7503 0.0 0
M  V30 45 C -1.2995 -3.0012 0.0 0
M  V30 46 O -2.5991 -2.2509 0.0 0
M  V30 END ATOM
M  V30 BEGIN BOND
M  V30 1 1 1 2
M  V30 2 2 2 3
M  V30 3 1 2 4
M  V30 4 1 3 5
M  V30 5 1 3 6
M  V30 6 2 4 7
M  V30 7 1 5 8
M  V30 8 2 6 9
M  V30 9 1 7 10
M  V30 10 1 8 11
M  V30 11 2 8 12
M  V30 12 1 10 13
M  V30 13 1 11 14
M  V30 14 2 11 15
M  V30 15 1 12 16
M  V30 16 2 13 17
M  V30 17 1 13 18
M  V30 18 1 14 19
M  V30 19 2 14 20
M  V30 20 1 15 21
M  V30 21 1 18 22
M  V30 22 1 18 23
M  V30 23 1 18 24
M  V30 24 1 20 25
M  V30 25 1 21 26
M  V30 26 2 22 27
M  V30 27 1 22 28
M  V30 28 1 25 29
M  V30 29 1 26 30
M  V30 30 1 28 31
M  V30 31 1 29 32
M  V30 32 2 31 33
M  V30 33 1 31 34
M  V30 34 1 32 35
M  V30 35 1 33 36
M  V30 36 2 34 37
M  V30 37 1 35 38
M  V30 38 2 36 39
M  V30 39 1 38 40
M  V30 40 1 39 41
M  V30 41 1 40 42
M  V30 42 1 40 43
M  V30 43 1 42 44
M  V30 44 1 43 45
M  V30 45 1 44 46
M  V30 46 1 7 9
M  V30 47 2 16 19
M  V30 48 2 21 25
M  V30 49 1 23 24
M  V30 50 1 37 39
M  V30 51 1 45 46
M  V30 END BOND
M  V30 END CTAB
M  END
>  <Molecule Name>
Compound 76

>  <Molecule Name 2>
Compound 76

>  <Compound ID>
40

>  <Name>
foretinib

>  <Uniprot>
O15264

>  <Target>
p38delta

>  <Smiles>
COC1=CC2=C(OC3=CC=C(NC(=O)C4(C(=O)NC5=CC=C(F)C=C5)CC4)C=C3F)C=CN=C2C=C1OCCCN1CCOCC1

>  <Kd (nM)>
910

>  <Assay (Kd)>
Competition binding assays

>  <Ki (nM)>


>  <Assay (Ki)>


>  <IC50 (nM)>


>  <Assay (IC50)>


>  <EC50 (nM)>


>  <Assay (EC50)>


>  <Article DOI>
10.1016/j.chembiol.2017.09.010

>  <Molecular Weight>
632.664

>  <Exact Mass>
632.2446412

>  <XLogP3>
5.51

>  <Heavy Atom Count>
46

>  <Ring Count>
6

>  <Hydrogen Bond Acceptor Count>
8

>  <Hydrogen Bond Donor Count>
2

>  <Rotatable Bond Count>
12

>  <Topological Polar Surface Area>
111.25

>  <Molecular Formula>
C34H34F2N4O6

>  <InChI>
InChI=1S/C34H34F2N4O6/c1-43-30-20-25-27(21-31(30)45-16-2-13-40-14-17-44-18-15-40)37-12-9-28(25)46-29-8-7-24(19-26(29)36)39-33(42)34(10-11-34)32(41)38-23-5-3-22(35)4-6-23/h3-9,12,19-21H,2,10-11,13-18H2,1H3,(H,38,41)(H,39,42)

>  <InChI Key>
CXQHYVUVSFXTMY-UHFFFAOYSA-N

>  <BindingDB>
50399540

>  <PubChem>
42642645

>  <ChEMBL>
CHEMBL1230609

$$$$
40
Actelion Java MolfileCreator 2.0

  0  0  0  0  0  0              0 V3000
M  V30 BEGIN CTAB
M  V30 COUNTS 46 51 0 0 0
M  V30 BEGIN ATOM
M  V30 1 F 10.3965 6.7527 0.0 0
M  V30 2 C 11.696 6.0024 0.0 0
M  V30 3 C 11.696 4.5018 0.0 0
M  V30 4 C 12.9956 6.7527 0.0 0
M  V30 5 O 10.3965 3.7515 0.0 0
M  V30 6 C 12.9956 3.7515 0.0 0
M  V30 7 C 14.2952 6.0024 0.0 0
M  V30 8 C 10.3965 2.2509 0.0 0
M  V30 9 C 14.2952 4.5018 0.0 0
M  V30 10 N 15.5924 6.7349 0.0 0
M  V30 11 C 9.0969 1.5006 0.0 0
M  V30 12 C 11.696 1.5006 0.0 0
M  V30 13 C 16.8943 6.0024 0.0 0
M  V30 14 C 9.0969 0.0 0.0 0
M  V30 15 C 7.7973 2.2509 0.0 0
M  V30 16 C 11.696 0.0 0.0 0
M  V30 17 O 16.8943 4.5018 0.0 0
M  V30 18 C 18.1939 6.7527 0.0 0
M  V30 19 N 10.3965 -0.7503 0.0 0
M  V30 20 C 7.7973 -0.7503 0.0 0
M  V30 21 C 6.4978 1.5006 0.0 0
M  V30 22 C 17.1328 7.8138 0.0 0
M  V30 23 C 19.6945 6.7527 0.0 0
M  V30 24 C 18.9442 8.0523 0.0 0
M  V30 25 C 6.4978 0.0 0.0 0
M  V30 26 O 5.1982 2.2509 0.0 0
M  V30 27 O 15.688 7.461 0.0 0
M  V30 28 N 17.5211 9.2633 0.0 0
M  V30 29 O 5.1982 -0.7503 0.0 0
M  V30 30 C 3.8986 1.5006 0.0 0
M  V30 31 C 16.4601 10.3243 0.0 0
M  V30 32 C 3.8986 0.0 0.0 0
M  V30 33 C 16.8484 11.7738 0.0 0
M  V30 34 C 15.0106 9.936 0.0 0
M  V30 35 C 2.5991 -0.7503 0.0 0
M  V30 36 C 15.7874 12.8349 0.0 0
M  V30 37 C 13.9495 10.997 0.0 0
M  V30 38 C 1.2995 0.0 0.0 0
M  V30 39 C 14.3379 12.4465 0.0 0
M  V30 40 N 0.0 -0.7503 0.0 0
M  V30 41 F 13.2768 13.5076 0.0 0
M  V30 42 C -1.2995 0.0 0.0 0
M  V30 43 C 0.0 -2.2509 0.0 0
M  V30 44 C -2.5991 -0.7503 0.0 0
M  V30 45 C -1.2995 -3.0012 0.0 0
M  V30 46 O -2.5991 -2.2509 0.0 0
M  V30 END ATOM
M  V30 BEGIN BOND
M  V30 1 1 1 2
M  V30 2 2 2 3
M  V30 3 1 2 4
M  V30 4 1 3 5
M  V30 5 1 3 6
M  V30 6 2 4 7
M  V30 7 1 5 8
M  V30 8 2 6 9
M  V30 9 1 7 10
M  V30 10 1 8 11
M  V30 11 2 8 12
M  V30 12 1 10 13
M  V30 13 1 11 14
M  V30 14 2 11 15
M  V30 15 1 12 16
M  V30 16 2 13 17
M  V30 17 1 13 18
M  V30 18 1 14 19
M  V30 19 2 14 20
M  V30 20 1 15 21
M  V30 21 1 18 22
M  V30 22 1 18 23
M  V30 23 1 18 24
M  V30 24 1 20 25
M  V30 25 1 21 26
M  V30 26 2 22 27
M  V30 27 1 22 28
M  V30 28 1 25 29
M  V30 29 1 26 30
M  V30 30 1 28 31
M  V30 31 1 29 32
M  V30 32 2 31 33
M  V30 33 1 31 34
M  V30 34 1 32 35
M  V30 35 1 33 36
M  V30 36 2 34 37
M  V30 37 1 35 38
M  V30 38 2 36 39
M  V30 39 1 38 40
M  V30 40 1 39 41
M  V30 41 1 40 42
M  V30 42 1 40 43
M  V30 43 1 42 44
M  V30 44 1 43 45
M  V30 45 1 44 46
M  V30 46 1 7 9
M  V30 47 2 16 19
M  V30 48 2 21 25
M  V30 49 1 23 24
M  V30 50 1 37 39
M  V30 51 1 45 46
M  V30 END BOND
M  V30 END CTAB
M  END
>  <Molecule Name>
Compound 77

>  <Molecule Name 2>
Compound 77

>  <Compound ID>
40

>  <Name>
foretinib

>  <Uniprot>
O43353

>  <Target>
RIPK2

>  <Smiles>
COC1=CC2=C(OC3=CC=C(NC(=O)C4(C(=O)NC5=CC=C(F)C=C5)CC4)C=C3F)C=CN=C2C=C1OCCCN1CCOCC1

>  <Kd (nM)>
17

>  <Assay (Kd)>
Competition binding assays

>  <Ki (nM)>


>  <Assay (Ki)>


>  <IC50 (nM)>


>  <Assay (IC50)>


>  <EC50 (nM)>


>  <Assay (EC50)>


>  <Article DOI>
10.1016/j.chembiol.2017.09.010

>  <Molecular Weight>
632.664

>  <Exact Mass>
632.2446412

>  <XLogP3>
5.51

>  <Heavy Atom Count>
46

>  <Ring Count>
6

>  <Hydrogen Bond Acceptor Count>
8

>  <Hydrogen Bond Donor Count>
2

>  <Rotatable Bond Count>
12

>  <Topological Polar Surface Area>
111.25

>  <Molecular Formula>
C34H34F2N4O6

>  <InChI>
InChI=1S/C34H34F2N4O6/c1-43-30-20-25-27(21-31(30)45-16-2-13-40-14-17-44-18-15-40)37-12-9-28(25)46-29-8-7-24(19-26(29)36)39-33(42)34(10-11-34)32(41)38-23-5-3-22(35)4-6-23/h3-9,12,19-21H,2,10-11,13-18H2,1H3,(H,38,41)(H,39,42)

>  <InChI Key>
CXQHYVUVSFXTMY-UHFFFAOYSA-N

>  <BindingDB>
50399540

>  <PubChem>
42642645

>  <ChEMBL>
CHEMBL1230609

$$$$
41
Actelion Java MolfileCreator 2.0

  0  0  0  0  0  0              0 V3000
M  V30 BEGIN CTAB
M  V30 COUNTS 21 23 0 0 0
M  V30 BEGIN ATOM
M  V30 1 O 3.4641 -3.4999 0.0 0
M  V30 2 C 2.598 -2.9999 0.0 0
M  V30 3 C 2.598 -1.9999 0.0 0
M  V30 4 C 1.732 -3.5 0.0 0
M  V30 5 C 1.732 -1.5 0.0 0
M  V30 6 C 3.4641 -1.4999 0.0 0
M  V30 7 C 0.866 -2.9999 0.0 0
M  V30 8 O 0.866 -2.0 0.0 0
M  V30 9 C 1.732 -0.5 0.0 0
M  V30 10 O 4.3301 -1.9999 0.0 0
M  V30 11 C 3.4641 -0.4999 0.0 0
M  V30 12 C 0.0 -3.4999 0.0 0
M  V30 13 O 0.866 0.0 0.0 0
M  V30 14 C 2.598 0.0 0.0 0
M  V30 15 C -0.866 -2.9999 0.0 0
M  V30 16 C 0.0 -4.4999 0.0 0
M  V30 17 C 0.0 -0.5 0.0 0
M  V30 18 O 2.598 1.0 0.0 0
M  V30 19 C -1.732 -3.4999 0.0 0
M  V30 20 C -0.866 -4.9999 0.0 0
M  V30 21 C -1.732 -4.4999 0.0 0
M  V30 END ATOM
M  V30 BEGIN BOND
M  V30 1 2 1 2
M  V30 2 1 2 3
M  V30 3 1 2 4
M  V30 4 2 3 5
M  V30 5 1 3 6
M  V30 6 2 4 7
M  V30 7 1 5 8
M  V30 8 1 5 9
M  V30 9 1 6 10
M  V30 10 2 6 11
M  V30 11 1 7 12
M  V30 12 1 9 13
M  V30 13 2 9 14
M  V30 14 2 12 15
M  V30 15 1 12 16
M  V30 16 1 13 17
M  V30 17 1 14 18
M  V30 18 1 15 19
M  V30 19 2 16 20
M  V30 20 2 19 21
M  V30 21 1 7 8
M  V30 22 1 11 14
M  V30 23 1 20 21
M  V30 END BOND
M  V30 END CTAB
M  END
>  <Molecule Name>
Compound 78

>  <Molecule Name 2>
Compound 78

>  <Compound ID>
41

>  <Name>
wogonin

>  <Uniprot>
P50750

>  <Target>
CDK9

>  <Smiles>
COC1=C(O)C=C(O)C2=C1OC(C1=CC=CC=C1)=CC2=O

>  <Kd (nM)>


>  <Assay (Kd)>


>  <Ki (nM)>


>  <Assay (Ki)>


>  <IC50 (nM)>
190

>  <Assay (IC50)>
IC50 of CDK9/CycT1

>  <EC50 (nM)>


>  <Assay (EC50)>


>  <Article DOI>
10.1038/cddis.2011.66

>  <Molecular Weight>
284.267

>  <Exact Mass>
284.0684735

>  <XLogP3>
3.49

>  <Heavy Atom Count>
21

>  <Ring Count>
3

>  <Hydrogen Bond Acceptor Count>
5

>  <Hydrogen Bond Donor Count>
2

>  <Rotatable Bond Count>
2

>  <Topological Polar Surface Area>
79.9

>  <Molecular Formula>
C16H12O5

>  <InChI>
InChI=1S/C16H12O5/c1-20-15-12(19)7-10(17)14-11(18)8-13(21-16(14)15)9-5-3-2-4-6-9/h2-8,17,19H,1H3

>  <InChI Key>
XLTFNNCXVBYBSX-UHFFFAOYSA-N

>  <BindingDB>
50140257

>  <PubChem>
5281703

>  <ChEMBL>
CHEMBL16171

$$$$
42
Actelion Java MolfileCreator 2.0

  0  0  0  0  0  0              0 V3000
M  V30 BEGIN CTAB
M  V30 COUNTS 23 25 0 0 0
M  V30 BEGIN ATOM
M  V30 1 Br 0.866 -1.9999 0.0 0
M  V30 2 C 1.732 -1.4999 0.0 0
M  V30 3 C 2.598 -1.9999 0.0 0
M  V30 4 C 1.732 -0.5 0.0 0
M  V30 5 O 2.598 -3.0 0.0 0
M  V30 6 N 3.4641 -1.4999 0.0 0
M  V30 7 N 0.866 0.0 0.0 0
M  V30 8 C 2.598 0.0 0.0 0
M  V30 9 N 3.4641 -0.5 0.0 0
M  V30 10 C 4.3301 -1.9999 0.0 0
M  V30 11 C 0.0 -0.5 0.0 0 CFG=1
M  V30 12 C -0.866 0.0 0.0 0
M  V30 13 C 0.0 -1.4999 0.0 0
M  V30 14 N -1.732 -0.4999 0.0 0
M  V30 15 C -0.866 -1.9999 0.0 0 CFG=1
M  V30 16 C -1.732 -1.4999 0.0 0
M  V30 17 C -2.598 0.0 0.0 0
M  V30 18 C -0.866 -2.9999 0.0 0
M  V30 19 C -1.732 -3.4999 0.0 0
M  V30 20 C 0.0 -3.4999 0.0 0
M  V30 21 C -1.732 -4.4999 0.0 0
M  V30 22 C 0.0 -4.4999 0.0 0
M  V30 23 C -0.866 -4.9999 0.0 0
M  V30 END ATOM
M  V30 BEGIN BOND
M  V30 1 1 1 2
M  V30 2 1 2 3
M  V30 3 2 2 4
M  V30 4 2 3 5
M  V30 5 1 3 6
M  V30 6 1 4 7
M  V30 7 1 4 8
M  V30 8 1 6 9
M  V30 9 1 6 10
M  V30 10 1 11 7 CFG=3
M  V30 11 1 11 12
M  V30 12 1 11 13
M  V30 13 1 12 14
M  V30 14 1 15 13
M  V30 15 1 14 16
M  V30 16 1 14 17
M  V30 17 1 15 18 CFG=3
M  V30 18 2 18 19
M  V30 19 1 18 20
M  V30 20 1 19 21
M  V30 21 2 20 22
M  V30 22 2 21 23
M  V30 23 2 8 9
M  V30 24 1 15 16
M  V30 25 1 22 23
M  V30 END BOND
M  V30 BEGIN COLLECTION
M  V30 MDLV30/STEABS ATOMS=(2 11 15)
M  V30 END COLLECTION
M  V30 END CTAB
M  END
>  <Molecule Name>
Compound 79

>  <Molecule Name 2>
Compound 79

>  <Compound ID>
42

>  <Name>
GSK4027

>  <Uniprot>
Q92830

>  <Target>
GCN5

>  <Smiles>
CN1C[C@H](NC2=C(Br)C(=O)N(C)N=C2)C[C@H](C2=CC=CC=C2)C1

>  <Kd (nM)>


>  <Assay (Kd)>


>  <Ki (nM)>
1.4

>  <Assay (Ki)>
BROMOscan panel

>  <IC50 (nM)>


>  <Assay (IC50)>


>  <EC50 (nM)>


>  <Assay (EC50)>


>  <Article DOI>
10.1021/acs.jmedchem.6b01566

>  <Molecular Weight>
377.286

>  <Exact Mass>
376.0898734

>  <XLogP3>
2.55

>  <Heavy Atom Count>
23

>  <Ring Count>
3

>  <Hydrogen Bond Acceptor Count>
5

>  <Hydrogen Bond Donor Count>
1

>  <Rotatable Bond Count>
3

>  <Topological Polar Surface Area>
50.16

>  <Molecular Formula>
C17H21BrN4O

>  <InChI>
InChI=1S/C17H21BrN4O/c1-21-10-13(12-6-4-3-5-7-12)8-14(11-21)20-15-9-19-22(2)17(23)16(15)18/h3-7,9,13-14,20H,8,10-11H2,1-2H3/t13-,14+/m0/s1

>  <InChI Key>
VZAFGXCWAWRULT-UONOGXRCSA-N

>  <BindingDB>
50234923

>  <PubChem>
126961735

>  <ChEMBL>
CHEMBL4069412

$$$$
42
Actelion Java MolfileCreator 2.0

  0  0  0  0  0  0              0 V3000
M  V30 BEGIN CTAB
M  V30 COUNTS 23 25 0 0 0
M  V30 BEGIN ATOM
M  V30 1 Br 0.866 -1.9999 0.0 0
M  V30 2 C 1.732 -1.4999 0.0 0
M  V30 3 C 2.598 -1.9999 0.0 0
M  V30 4 C 1.732 -0.5 0.0 0
M  V30 5 O 2.598 -3.0 0.0 0
M  V30 6 N 3.4641 -1.4999 0.0 0
M  V30 7 N 0.866 0.0 0.0 0
M  V30 8 C 2.598 0.0 0.0 0
M  V30 9 N 3.4641 -0.5 0.0 0
M  V30 10 C 4.3301 -1.9999 0.0 0
M  V30 11 C 0.0 -0.5 0.0 0 CFG=1
M  V30 12 C -0.866 0.0 0.0 0
M  V30 13 C 0.0 -1.4999 0.0 0
M  V30 14 N -1.732 -0.4999 0.0 0
M  V30 15 C -0.866 -1.9999 0.0 0 CFG=1
M  V30 16 C -1.732 -1.4999 0.0 0
M  V30 17 C -2.598 0.0 0.0 0
M  V30 18 C -0.866 -2.9999 0.0 0
M  V30 19 C -1.732 -3.4999 0.0 0
M  V30 20 C 0.0 -3.4999 0.0 0
M  V30 21 C -1.732 -4.4999 0.0 0
M  V30 22 C 0.0 -4.4999 0.0 0
M  V30 23 C -0.866 -4.9999 0.0 0
M  V30 END ATOM
M  V30 BEGIN BOND
M  V30 1 1 1 2
M  V30 2 1 2 3
M  V30 3 2 2 4
M  V30 4 2 3 5
M  V30 5 1 3 6
M  V30 6 1 4 7
M  V30 7 1 4 8
M  V30 8 1 6 9
M  V30 9 1 6 10
M  V30 10 1 11 7 CFG=3
M  V30 11 1 11 12
M  V30 12 1 11 13
M  V30 13 1 12 14
M  V30 14 1 15 13
M  V30 15 1 14 16
M  V30 16 1 14 17
M  V30 17 1 15 18 CFG=3
M  V30 18 2 18 19
M  V30 19 1 18 20
M  V30 20 1 19 21
M  V30 21 2 20 22
M  V30 22 2 21 23
M  V30 23 2 8 9
M  V30 24 1 15 16
M  V30 25 1 22 23
M  V30 END BOND
M  V30 BEGIN COLLECTION
M  V30 MDLV30/STEABS ATOMS=(2 11 15)
M  V30 END COLLECTION
M  V30 END CTAB
M  END
>  <Molecule Name>
Compound 80

>  <Molecule Name 2>
Compound 80

>  <Compound ID>
42

>  <Name>
GSK4027

>  <Uniprot>
Q92831

>  <Target>
PCAF

>  <Smiles>
CN1C[C@H](NC2=C(Br)C(=O)N(C)N=C2)C[C@H](C2=CC=CC=C2)C1

>  <Kd (nM)>


>  <Assay (Kd)>


>  <Ki (nM)>
1.4

>  <Assay (Ki)>
BROMOscan panel

>  <IC50 (nM)>


>  <Assay (IC50)>


>  <EC50 (nM)>


>  <Assay (EC50)>


>  <Article DOI>
10.1021/acs.jmedchem.6b01566

>  <Molecular Weight>
377.286

>  <Exact Mass>
376.0898734

>  <XLogP3>
2.55

>  <Heavy Atom Count>
23

>  <Ring Count>
3

>  <Hydrogen Bond Acceptor Count>
5

>  <Hydrogen Bond Donor Count>
1

>  <Rotatable Bond Count>
3

>  <Topological Polar Surface Area>
50.16

>  <Molecular Formula>
C17H21BrN4O

>  <InChI>
InChI=1S/C17H21BrN4O/c1-21-10-13(12-6-4-3-5-7-12)8-14(11-21)20-15-9-19-22(2)17(23)16(15)18/h3-7,9,13-14,20H,8,10-11H2,1-2H3/t13-,14+/m0/s1

>  <InChI Key>
VZAFGXCWAWRULT-UONOGXRCSA-N

>  <BindingDB>
50234923

>  <PubChem>
126961735

>  <ChEMBL>
CHEMBL4069412

$$$$
43
Actelion Java MolfileCreator 2.0

  0  0  0  0  0  0              0 V3000
M  V30 BEGIN CTAB
M  V30 COUNTS 23 25 0 0 0
M  V30 BEGIN ATOM
M  V30 1 Br 0.866 -1.9999 0.0 0
M  V30 2 C 1.732 -1.4999 0.0 0
M  V30 3 C 2.598 -1.9999 0.0 0
M  V30 4 C 1.732 -0.5 0.0 0
M  V30 5 O 2.598 -3.0 0.0 0
M  V30 6 N 3.4641 -1.4999 0.0 0
M  V30 7 N 0.866 0.0 0.0 0
M  V30 8 C 2.598 0.0 0.0 0
M  V30 9 N 3.4641 -0.5 0.0 0
M  V30 10 C 4.3301 -1.9999 0.0 0
M  V30 11 C 0.0 -0.5 0.0 0 CFG=2
M  V30 12 C -0.866 0.0 0.0 0
M  V30 13 C 0.0 -1.4999 0.0 0
M  V30 14 N -1.732 -0.4999 0.0 0
M  V30 15 C -0.866 -1.9999 0.0 0 CFG=2
M  V30 16 C -1.732 -1.4999 0.0 0
M  V30 17 C -2.598 0.0 0.0 0
M  V30 18 C -0.866 -2.9999 0.0 0
M  V30 19 C -1.732 -3.4999 0.0 0
M  V30 20 C 0.0 -3.4999 0.0 0
M  V30 21 C -1.732 -4.4999 0.0 0
M  V30 22 C 0.0 -4.4999 0.0 0
M  V30 23 C -0.866 -4.9999 0.0 0
M  V30 END ATOM
M  V30 BEGIN BOND
M  V30 1 1 1 2
M  V30 2 1 2 3
M  V30 3 2 2 4
M  V30 4 2 3 5
M  V30 5 1 3 6
M  V30 6 1 4 7
M  V30 7 1 4 8
M  V30 8 1 6 9
M  V30 9 1 6 10
M  V30 10 1 11 7 CFG=1
M  V30 11 1 11 12
M  V30 12 1 11 13
M  V30 13 1 12 14
M  V30 14 1 15 13
M  V30 15 1 14 16
M  V30 16 1 14 17
M  V30 17 1 15 18 CFG=1
M  V30 18 2 18 19
M  V30 19 1 18 20
M  V30 20 1 19 21
M  V30 21 2 20 22
M  V30 22 2 21 23
M  V30 23 2 8 9
M  V30 24 1 15 16
M  V30 25 1 22 23
M  V30 END BOND
M  V30 BEGIN COLLECTION
M  V30 MDLV30/STEABS ATOMS=(2 11 15)
M  V30 END COLLECTION
M  V30 END CTAB
M  END
>  <Molecule Name>
Compound 81

>  <Molecule Name 2>
Compound 81

>  <Compound ID>
43

>  <Name>
GSK4028

>  <Uniprot>
Q92831

>  <Target>
PCAF

>  <Smiles>
CN1C[C@@H](NC2=C(Br)C(=O)N(C)N=C2)C[C@@H](C2=CC=CC=C2)C1

>  <Kd (nM)>


>  <Assay (Kd)>


>  <Ki (nM)>


>  <Assay (Ki)>


>  <IC50 (nM)>
12000

>  <Assay (IC50)>
IC50 of PCAF was assessed by a time resolved fluorescence resonance energy transfer assay

>  <EC50 (nM)>


>  <Assay (EC50)>


>  <Article DOI>
10.1021/acs.jmedchem.6b01566

>  <Molecular Weight>
377.286

>  <Exact Mass>
376.0898734

>  <XLogP3>
2.55

>  <Heavy Atom Count>
23

>  <Ring Count>
3

>  <Hydrogen Bond Acceptor Count>
5

>  <Hydrogen Bond Donor Count>
1

>  <Rotatable Bond Count>
3

>  <Topological Polar Surface Area>
50.16

>  <Molecular Formula>
C17H21BrN4O

>  <InChI>
InChI=1S/C17H21BrN4O/c1-21-10-13(12-6-4-3-5-7-12)8-14(11-21)20-15-9-19-22(2)17(23)16(15)18/h3-7,9,13-14,20H,8,10-11H2,1-2H3/t13-,14+/m1/s1

>  <InChI Key>
VZAFGXCWAWRULT-KGLIPLIRSA-N

>  <BindingDB>
50234927

>  <PubChem>
132941768

>  <ChEMBL>
CHEMBL4096641

$$$$
44
Actelion Java MolfileCreator 2.0

  0  0  0  0  0  0              0 V3000
M  V30 BEGIN CTAB
M  V30 COUNTS 19 21 0 0 0
M  V30 BEGIN ATOM
M  V30 1 O 1.732 -1.5 0.0 0
M  V30 2 C 1.732 -0.5 0.0 0
M  V30 3 N 2.598 0.0 0.0 0
M  V30 4 C 0.866 0.0 0.0 0 CFG=1
M  V30 5 C 2.598 0.9999 0.0 0
M  V30 6 N 0.0 -0.5 0.0 0
M  V30 7 C 0.866 1.0 0.0 0
M  V30 8 O 3.4641 1.4999 0.0 0
M  V30 9 C 1.732 1.4999 0.0 0
M  V30 10 C -0.9135 -0.0932 0.0 0
M  V30 11 C -0.1045 -1.4945 0.0 0
M  V30 12 O -1.1214 0.8848 0.0 0
M  V30 13 C -1.5826 -0.8364 0.0 0
M  V30 14 O 0.6386 -2.1636 0.0 0
M  V30 15 C -1.0826 -1.7024 0.0 0
M  V30 16 C -2.5826 -0.8364 0.0 0
M  V30 17 C -1.5826 -2.5684 0.0 0
M  V30 18 C -3.0826 -1.7024 0.0 0
M  V30 19 C -2.5826 -2.5684 0.0 0
M  V30 END ATOM
M  V30 BEGIN BOND
M  V30 1 2 1 2
M  V30 2 1 2 3
M  V30 3 1 4 2
M  V30 4 1 3 5
M  V30 5 1 4 6 CFG=1
M  V30 6 1 4 7
M  V30 7 2 5 8
M  V30 8 1 5 9
M  V30 9 1 6 10
M  V30 10 1 6 11
M  V30 11 2 10 12
M  V30 12 1 10 13
M  V30 13 2 11 14
M  V30 14 1 11 15
M  V30 15 1 13 16
M  V30 16 1 15 17
M  V30 17 2 16 18
M  V30 18 2 17 19
M  V30 19 1 7 9
M  V30 20 2 13 15
M  V30 21 1 18 19
M  V30 END BOND
M  V30 BEGIN COLLECTION
M  V30 MDLV30/STERAC1 ATOMS=(1 4)
M  V30 END COLLECTION
M  V30 END CTAB
M  END
>  <Molecule Name>
Compound 82

>  <Molecule Name 2>
Compound 82

>  <Compound ID>
44

>  <Name>
THALIDOMIDE

>  <Uniprot>
Q96SW2

>  <Target>
CRBN

>  <Smiles>
O=C1CCC(N2C(=O)C3=CC=CC=C3C2=O)C(=O)N1

>  <Kd (nM)>
250

>  <Assay (Kd)>
FP

>  <Ki (nM)>


>  <Assay (Ki)>


>  <IC50 (nM)>


>  <Assay (IC50)>


>  <EC50 (nM)>


>  <Assay (EC50)>


>  <Article DOI>
10.1038/nature13527

>  <Molecular Weight>
258.233

>  <Exact Mass>
258.0640568

>  <XLogP3>
0.33

>  <Heavy Atom Count>
19

>  <Ring Count>
3

>  <Hydrogen Bond Acceptor Count>
4

>  <Hydrogen Bond Donor Count>
1

>  <Rotatable Bond Count>
1

>  <Topological Polar Surface Area>
83.55

>  <Molecular Formula>
C13H10N2O4

>  <InChI>
InChI=1S/C13H10N2O4/c16-10-6-5-9(11(17)14-10)15-12(18)7-3-1-2-4-8(7)13(15)19/h1-4,9H,5-6H2,(H,14,16,17)

>  <InChI Key>
UEJJHQNACJXSKW-UHFFFAOYSA-N

>  <BindingDB>
50070114

>  <PubChem>
5426

>  <ChEMBL>
CHEMBL468

$$$$
45
Actelion Java MolfileCreator 2.0

  0  0  0  0  0  0              0 V3000
M  V30 BEGIN CTAB
M  V30 COUNTS 21 23 0 0 0
M  V30 BEGIN ATOM
M  V30 1 O 1.732 -1.5 0.0 0
M  V30 2 C 1.732 -0.5 0.0 0
M  V30 3 N 2.598 0.0 0.0 0
M  V30 4 C 0.866 0.0 0.0 0
M  V30 5 C 3.4641 -0.5 0.0 0
M  V30 6 C 0.0 -0.5 0.0 0
M  V30 7 N 3.5686 -1.4945 0.0 0
M  V30 8 C 4.3776 -0.0932 0.0 0
M  V30 9 C -0.866 0.0 0.0 0
M  V30 10 C 0.0 -1.4999 0.0 0
M  V30 11 N 4.5467 -1.7024 0.0 0
M  V30 12 C 5.0467 -0.8364 0.0 0
M  V30 13 C -1.732 -0.4999 0.0 0
M  V30 14 C -0.866 -1.9999 0.0 0
M  V30 15 C 6.0412 -0.7318 0.0 0
M  V30 16 C -1.732 -1.4999 0.0 0
M  V30 17 C 6.8184 -1.3612 0.0 0
M  V30 18 C 6.6706 0.0452 0.0 0
M  V30 19 O -2.598 -1.9999 0.0 0
M  V30 20 C 7.4477 -0.584 0.0 0
M  V30 21 C -2.598 -2.9999 0.0 0
M  V30 END ATOM
M  V30 BEGIN BOND
M  V30 1 2 1 2
M  V30 2 1 2 3
M  V30 3 1 2 4
M  V30 4 1 3 5
M  V30 5 1 4 6
M  V30 6 2 5 7
M  V30 7 1 5 8
M  V30 8 2 6 9
M  V30 9 1 6 10
M  V30 10 1 7 11
M  V30 11 2 8 12
M  V30 12 1 9 13
M  V30 13 2 10 14
M  V30 14 1 12 15
M  V30 15 2 13 16
M  V30 16 1 15 17
M  V30 17 1 15 18
M  V30 18 1 16 19
M  V30 19 1 17 20
M  V30 20 1 19 21
M  V30 21 1 11 12
M  V30 22 1 14 16
M  V30 23 1 18 20
M  V30 END BOND
M  V30 END CTAB
M  END
>  <Molecule Name>
Compound 83

>  <Molecule Name 2>
Compound 83

>  <Compound ID>
45

>  <Name>


>  <Uniprot>
P50750

>  <Target>
CDK9

>  <Smiles>
COC1=CC=C(CC(=O)NC2=N[NH]C(C3CCC3)=C2)C=C1

>  <Kd (nM)>


>  <Assay (Kd)>


>  <Ki (nM)>


>  <Assay (Ki)>


>  <IC50 (nM)>


>  <Assay (IC50)>


>  <EC50 (nM)>


>  <Assay (EC50)>


>  <Article DOI>
10.1039/c7cc03879h

>  <Molecular Weight>
285.347

>  <Exact Mass>
285.1477268

>  <XLogP3>
2.41

>  <Heavy Atom Count>
21

>  <Ring Count>
3

>  <Hydrogen Bond Acceptor Count>
3

>  <Hydrogen Bond Donor Count>
2

>  <Rotatable Bond Count>
5

>  <Topological Polar Surface Area>
67.01

>  <Molecular Formula>
C16H19N3O2

>  <InChI>
InChI=1S/C16H19N3O2/c1-21-13-7-5-11(6-8-13)9-16(20)17-15-10-14(18-19-15)12-3-2-4-12/h5-8,10,12H,2-4,9H2,1H3,(H2,17,18,19,20)

>  <InChI Key>
PFCAHEMJANLCHH-UHFFFAOYSA-N

>  <BindingDB>


>  <PubChem>


>  <ChEMBL>


$$$$
46
Actelion Java MolfileCreator 2.0

  0  0  0  0  0  0              0 V3000
M  V30 BEGIN CTAB
M  V30 COUNTS 30 34 0 0 0
M  V30 BEGIN ATOM
M  V30 1 F 1.732 -0.5 0.0 0
M  V30 2 C 0.866 0.0 0.0 0
M  V30 3 F 0.866 1.0 0.0 0
M  V30 4 C 0.0 -0.5 0.0 0
M  V30 5 N -0.9135 -0.0932 0.0 0
M  V30 6 N -0.1045 -1.4945 0.0 0
M  V30 7 C -1.5826 -0.8364 0.0 0
M  V30 8 C 0.6386 -2.1636 0.0 0
M  V30 9 C -1.0826 -1.7024 0.0 0
M  V30 10 C -2.5826 -0.8364 0.0 0
M  V30 11 N 0.4307 -3.1418 0.0 0
M  V30 12 N 1.5896 -1.8546 0.0 0
M  V30 13 C -1.5826 -2.5684 0.0 0
M  V30 14 C -3.0826 -1.7024 0.0 0
M  V30 15 C 1.1738 -3.8109 0.0 0
M  V30 16 C 2.3328 -2.5237 0.0 0
M  V30 17 C -2.5826 -2.5684 0.0 0
M  V30 18 N 2.1249 -3.5019 0.0 0
M  V30 19 N 0.9659 -4.789 0.0 0
M  V30 20 N 3.2838 -2.2147 0.0 0
M  V30 21 C 0.0148 -5.098 0.0 0
M  V30 22 C 1.709 -5.4582 0.0 0
M  V30 23 C 4.027 -2.8838 0.0 0
M  V30 24 C 3.4917 -1.2366 0.0 0
M  V30 25 C -0.193 -6.0762 0.0 0
M  V30 26 C 1.5011 -6.4363 0.0 0
M  V30 27 C 4.978 -2.5748 0.0 0
M  V30 28 C 4.4428 -0.9275 0.0 0
M  V30 29 O 0.5501 -6.7453 0.0 0
M  V30 30 O 5.1859 -1.5967 0.0 0
M  V30 END ATOM
M  V30 BEGIN BOND
M  V30 1 1 1 2
M  V30 2 1 2 3
M  V30 3 1 2 4
M  V30 4 2 4 5
M  V30 5 1 4 6
M  V30 6 1 5 7
M  V30 7 1 6 8
M  V30 8 1 6 9
M  V30 9 1 7 10
M  V30 10 2 8 11
M  V30 11 1 8 12
M  V30 12 1 9 13
M  V30 13 2 10 14
M  V30 14 1 11 15
M  V30 15 2 12 16
M  V30 16 2 13 17
M  V30 17 2 15 18
M  V30 18 1 15 19
M  V30 19 1 16 20
M  V30 20 1 19 21
M  V30 21 1 19 22
M  V30 22 1 20 23
M  V30 23 1 20 24
M  V30 24 1 21 25
M  V30 25 1 22 26
M  V30 26 1 23 27
M  V30 27 1 24 28
M  V30 28 1 25 29
M  V30 29 1 27 30
M  V30 30 2 7 9
M  V30 31 1 14 17
M  V30 32 1 16 18
M  V30 33 1 26 29
M  V30 34 1 28 30
M  V30 END BOND
M  V30 END CTAB
M  END
>  <Molecule Name>
Compound 84

>  <Molecule Name 2>
Compound 84

>  <Compound ID>
46

>  <Name>
ZSTK474

>  <Uniprot>
P42336

>  <Target>
PI3Kalpha

>  <Smiles>
FC(F)C1=NC2=CC=CC=C2N1C1=NC(N2CCOCC2)=NC(N2CCOCC2)=N1

>  <Kd (nM)>


>  <Assay (Kd)>


>  <Ki (nM)>


>  <Assay (Ki)>


>  <IC50 (nM)>
8.9

>  <Assay (IC50)>
IC50 of human His-tagged PI3Kalpha was assessed by HTRF assay

>  <EC50 (nM)>


>  <Assay (EC50)>


>  <Article DOI>
10.1021/jm200688y

>  <Molecular Weight>
417.42

>  <Exact Mass>
417.1724794

>  <XLogP3>
2.3

>  <Heavy Atom Count>
30

>  <Ring Count>
5

>  <Hydrogen Bond Acceptor Count>
9

>  <Hydrogen Bond Donor Count>
0

>  <Rotatable Bond Count>
4

>  <Topological Polar Surface Area>
81.43

>  <Molecular Formula>
C19H21F2N7O2

>  <InChI>
InChI=1S/C19H21F2N7O2/c20-15(21)16-22-13-3-1-2-4-14(13)28(16)19-24-17(26-5-9-29-10-6-26)23-18(25-19)27-7-11-30-12-8-27/h1-4,15H,5-12H2

>  <InChI Key>
HGVNLRPZOWWDKD-UHFFFAOYSA-N

>  <BindingDB>
50315213

>  <PubChem>
11647372

>  <ChEMBL>
CHEMBL586702

$$$$
47
Actelion Java MolfileCreator 2.0

  0  0  0  0  0  0              0 V3000
M  V30 BEGIN CTAB
M  V30 COUNTS 36 39 0 0 0
M  V30 BEGIN ATOM
M  V30 1 Cl 11.2583 2.9999 0.0 0
M  V30 2 C 10.3923 2.4999 0.0 0
M  V30 3 C 9.5262 2.9999 0.0 0
M  V30 4 C 10.3923 1.4999 0.0 0
M  V30 5 O 9.5262 3.9999 0.0 0
M  V30 6 C 8.6602 2.4999 0.0 0
M  V30 7 C 9.5262 0.9999 0.0 0
M  V30 8 C 8.6602 4.4999 0.0 0
M  V30 9 C 8.6602 1.4999 0.0 0
M  V30 10 Cl 9.5262 0.0 0.0 0
M  V30 11 N 7.7942 0.9999 0.0 0
M  V30 12 C 6.9282 1.4999 0.0 0
M  V30 13 C 6.9282 2.4999 0.0 0
M  V30 14 C 6.0621 0.9999 0.0 0
M  V30 15 C 7.7942 2.9999 0.0 0
M  V30 16 C 6.0621 2.9999 0.0 0
M  V30 17 C 5.1961 1.4999 0.0 0
M  V30 18 C 6.0621 0.0 0.0 0
M  V30 19 N 8.6602 3.4999 0.0 0
M  V30 20 N 5.1961 2.4999 0.0 0
M  V30 21 C 4.3301 0.9999 0.0 0
M  V30 22 C 5.1961 -0.5 0.0 0
M  V30 23 C 4.3301 0.0 0.0 0
M  V30 24 O 5.1961 -1.5 0.0 0
M  V30 25 O 3.4641 -0.5 0.0 0
M  V30 26 C 6.0621 -2.0 0.0 0
M  V30 27 C 2.598 0.0 0.0 0
M  V30 28 C 1.732 -0.5 0.0 0
M  V30 29 C 0.866 0.0 0.0 0
M  V30 30 N 0.0 -0.5 0.0 0
M  V30 31 C -0.866 0.0 0.0 0
M  V30 32 C 0.0 -1.4999 0.0 0
M  V30 33 C -1.732 -0.4999 0.0 0
M  V30 34 C -0.866 -1.9999 0.0 0
M  V30 35 N -1.732 -1.4999 0.0 0
M  V30 36 C -2.598 -1.9999 0.0 0
M  V30 END ATOM
M  V30 BEGIN BOND
M  V30 1 1 1 2
M  V30 2 2 2 3
M  V30 3 1 2 4
M  V30 4 1 3 5
M  V30 5 1 3 6
M  V30 6 2 4 7
M  V30 7 1 5 8
M  V30 8 2 6 9
M  V30 9 1 7 10
M  V30 10 1 9 11
M  V30 11 1 11 12
M  V30 12 2 12 13
M  V30 13 1 12 14
M  V30 14 1 13 15
M  V30 15 1 13 16
M  V30 16 1 14 17
M  V30 17 2 14 18
M  V30 18 3 15 19
M  V30 19 2 16 20
M  V30 20 2 17 21
M  V30 21 1 18 22
M  V30 22 1 21 23
M  V30 23 1 22 24
M  V30 24 1 23 25
M  V30 25 1 24 26
M  V30 26 1 25 27
M  V30 27 1 27 28
M  V30 28 1 28 29
M  V30 29 1 29 30
M  V30 30 1 30 31
M  V30 31 1 30 32
M  V30 32 1 31 33
M  V30 33 1 32 34
M  V30 34 1 33 35
M  V30 35 1 35 36
M  V30 36 1 7 9
M  V30 37 1 17 20
M  V30 38 2 22 23
M  V30 39 1 34 35
M  V30 END BOND
M  V30 END CTAB
M  END
>  <Molecule Name>
Compound 85

>  <Molecule Name 2>
Compound 85

>  <Compound ID>
47

>  <Name>
bosutinib

>  <Uniprot>


>  <Target>
BCR-ABL

>  <Smiles>
COC1=CC(NC2=C(C#N)C=NC3=CC(OCCCN4CCN(C)CC4)=C(OC)C=C23)=C(Cl)C=C1Cl

>  <Kd (nM)>
0.063/0.023

>  <Assay (Kd)>
Kd of non-phosphorylated/phosphorylated ABL was assessed by KINOMEscan Assay

>  <Ki (nM)>


>  <Assay (Ki)>


>  <IC50 (nM)>


>  <Assay (IC50)>


>  <EC50 (nM)>


>  <Assay (EC50)>


>  <Article DOI>
10.1002/anie.201507634

>  <Molecular Weight>
530.456

>  <Exact Mass>
529.1647451

>  <XLogP3>
5.38

>  <Heavy Atom Count>
36

>  <Ring Count>
4

>  <Hydrogen Bond Acceptor Count>
8

>  <Hydrogen Bond Donor Count>
1

>  <Rotatable Bond Count>
9

>  <Topological Polar Surface Area>
82.88

>  <Molecular Formula>
C26H29Cl2N5O3

>  <InChI>
InChI=1S/C26H29Cl2N5O3/c1-32-6-8-33(9-7-32)5-4-10-36-25-13-21-18(11-24(25)35-3)26(17(15-29)16-30-21)31-22-14-23(34-2)20(28)12-19(22)27/h11-14,16H,4-10H2,1-3H3,(H,30,31)

>  <InChI Key>
UBPYILGKFZZVDX-UHFFFAOYSA-N

>  <BindingDB>
4552

>  <PubChem>
5328940

>  <ChEMBL>
CHEMBL288441

$$$$
47
Actelion Java MolfileCreator 2.0

  0  0  0  0  0  0              0 V3000
M  V30 BEGIN CTAB
M  V30 COUNTS 36 39 0 0 0
M  V30 BEGIN ATOM
M  V30 1 Cl 11.2583 2.9999 0.0 0
M  V30 2 C 10.3923 2.4999 0.0 0
M  V30 3 C 9.5262 2.9999 0.0 0
M  V30 4 C 10.3923 1.4999 0.0 0
M  V30 5 O 9.5262 3.9999 0.0 0
M  V30 6 C 8.6602 2.4999 0.0 0
M  V30 7 C 9.5262 0.9999 0.0 0
M  V30 8 C 8.6602 4.4999 0.0 0
M  V30 9 C 8.6602 1.4999 0.0 0
M  V30 10 Cl 9.5262 0.0 0.0 0
M  V30 11 N 7.7942 0.9999 0.0 0
M  V30 12 C 6.9282 1.4999 0.0 0
M  V30 13 C 6.9282 2.4999 0.0 0
M  V30 14 C 6.0621 0.9999 0.0 0
M  V30 15 C 7.7942 2.9999 0.0 0
M  V30 16 C 6.0621 2.9999 0.0 0
M  V30 17 C 5.1961 1.4999 0.0 0
M  V30 18 C 6.0621 0.0 0.0 0
M  V30 19 N 8.6602 3.4999 0.0 0
M  V30 20 N 5.1961 2.4999 0.0 0
M  V30 21 C 4.3301 0.9999 0.0 0
M  V30 22 C 5.1961 -0.5 0.0 0
M  V30 23 C 4.3301 0.0 0.0 0
M  V30 24 O 5.1961 -1.5 0.0 0
M  V30 25 O 3.4641 -0.5 0.0 0
M  V30 26 C 6.0621 -2.0 0.0 0
M  V30 27 C 2.598 0.0 0.0 0
M  V30 28 C 1.732 -0.5 0.0 0
M  V30 29 C 0.866 0.0 0.0 0
M  V30 30 N 0.0 -0.5 0.0 0
M  V30 31 C -0.866 0.0 0.0 0
M  V30 32 C 0.0 -1.4999 0.0 0
M  V30 33 C -1.732 -0.4999 0.0 0
M  V30 34 C -0.866 -1.9999 0.0 0
M  V30 35 N -1.732 -1.4999 0.0 0
M  V30 36 C -2.598 -1.9999 0.0 0
M  V30 END ATOM
M  V30 BEGIN BOND
M  V30 1 1 1 2
M  V30 2 2 2 3
M  V30 3 1 2 4
M  V30 4 1 3 5
M  V30 5 1 3 6
M  V30 6 2 4 7
M  V30 7 1 5 8
M  V30 8 2 6 9
M  V30 9 1 7 10
M  V30 10 1 9 11
M  V30 11 1 11 12
M  V30 12 2 12 13
M  V30 13 1 12 14
M  V30 14 1 13 15
M  V30 15 1 13 16
M  V30 16 1 14 17
M  V30 17 2 14 18
M  V30 18 3 15 19
M  V30 19 2 16 20
M  V30 20 2 17 21
M  V30 21 1 18 22
M  V30 22 1 21 23
M  V30 23 1 22 24
M  V30 24 1 23 25
M  V30 25 1 24 26
M  V30 26 1 25 27
M  V30 27 1 27 28
M  V30 28 1 28 29
M  V30 29 1 29 30
M  V30 30 1 30 31
M  V30 31 1 30 32
M  V30 32 1 31 33
M  V30 33 1 32 34
M  V30 34 1 33 35
M  V30 35 1 35 36
M  V30 36 1 7 9
M  V30 37 1 17 20
M  V30 38 2 22 23
M  V30 39 1 34 35
M  V30 END BOND
M  V30 END CTAB
M  END
>  <Molecule Name>
Compound 86

>  <Molecule Name 2>
Compound 86

>  <Compound ID>
47

>  <Name>
bosutinib

>  <Uniprot>
Q06187

>  <Target>
BTK

>  <Smiles>
COC1=CC(NC2=C(C#N)C=NC3=CC(OCCCN4CCN(C)CC4)=C(OC)C=C23)=C(Cl)C=C1Cl

>  <Kd (nM)>
4.8

>  <Assay (Kd)>
Kd was assessed by competition binding assays

>  <Ki (nM)>


>  <Assay (Ki)>


>  <IC50 (nM)>


>  <Assay (IC50)>


>  <EC50 (nM)>


>  <Assay (EC50)>


>  <Article DOI>
10.1038/nbt.1990

>  <Molecular Weight>
530.456

>  <Exact Mass>
529.1647451

>  <XLogP3>
5.38

>  <Heavy Atom Count>
36

>  <Ring Count>
4

>  <Hydrogen Bond Acceptor Count>
8

>  <Hydrogen Bond Donor Count>
1

>  <Rotatable Bond Count>
9

>  <Topological Polar Surface Area>
82.88

>  <Molecular Formula>
C26H29Cl2N5O3

>  <InChI>
InChI=1S/C26H29Cl2N5O3/c1-32-6-8-33(9-7-32)5-4-10-36-25-13-21-18(11-24(25)35-3)26(17(15-29)16-30-21)31-22-14-23(34-2)20(28)12-19(22)27/h11-14,16H,4-10H2,1-3H3,(H,30,31)

>  <InChI Key>
UBPYILGKFZZVDX-UHFFFAOYSA-N

>  <BindingDB>
4552

>  <PubChem>
5328940

>  <ChEMBL>
CHEMBL288441

$$$$
48
Actelion Java MolfileCreator 2.0

  0  0  0  0  0  0              0 V3000
M  V30 BEGIN CTAB
M  V30 COUNTS 33 36 0 0 0
M  V30 BEGIN ATOM
M  V30 1 Cl 1.732 1.4999 0.0 0
M  V30 2 C 2.598 1.0 0.0 0
M  V30 3 C 2.598 0.0 0.0 0
M  V30 4 C 3.4641 1.4999 0.0 0
M  V30 5 N 1.732 -0.5 0.0 0
M  V30 6 C 3.4641 -0.5 0.0 0
M  V30 7 C 4.3301 1.0 0.0 0
M  V30 8 C 0.866 0.0 0.0 0
M  V30 9 C 4.3301 0.0 0.0 0
M  V30 10 C 3.4641 -1.5 0.0 0
M  V30 11 O 0.866 1.0 0.0 0
M  V30 12 C 0.0 -0.5 0.0 0
M  V30 13 S -0.9135 -0.0932 0.0 0
M  V30 14 C -0.1045 -1.4945 0.0 0
M  V30 15 C -1.5826 -0.8364 0.0 0
M  V30 16 N -1.0826 -1.7024 0.0 0
M  V30 17 N -2.5771 -0.7318 0.0 0
M  V30 18 C -3.1649 -1.5408 0.0 0
M  V30 19 N -4.1595 -1.4363 0.0 0
M  V30 20 C -2.7582 -2.4544 0.0 0
M  V30 21 C -4.7472 -2.2453 0.0 0
M  V30 22 C -3.346 -3.2634 0.0 0
M  V30 23 N -4.3405 -3.1589 0.0 0
M  V30 24 C -5.7418 -2.1408 0.0 0
M  V30 25 N -2.9392 -4.177 0.0 0
M  V30 26 C -3.527 -4.986 0.0 0
M  V30 27 C -1.9447 -4.2815 0.0 0
M  V30 28 C -3.1203 -5.8995 0.0 0
M  V30 29 C -1.538 -5.195 0.0 0
M  V30 30 N -2.1258 -6.004 0.0 0
M  V30 31 C -1.719 -6.9176 0.0 0
M  V30 32 C -2.3068 -7.7266 0.0 0
M  V30 33 O -1.9001 -8.6402 0.0 0
M  V30 END ATOM
M  V30 BEGIN BOND
M  V30 1 1 1 2
M  V30 2 2 2 3
M  V30 3 1 2 4
M  V30 4 1 3 5
M  V30 5 1 3 6
M  V30 6 2 4 7
M  V30 7 1 5 8
M  V30 8 2 6 9
M  V30 9 1 6 10
M  V30 10 2 8 11
M  V30 11 1 8 12
M  V30 12 1 12 13
M  V30 13 2 12 14
M  V30 14 1 13 15
M  V30 15 1 14 16
M  V30 16 1 15 17
M  V30 17 1 17 18
M  V30 18 2 18 19
M  V30 19 1 18 20
M  V30 20 1 19 21
M  V30 21 2 20 22
M  V30 22 2 21 23
M  V30 23 1 21 24
M  V30 24 1 22 25
M  V30 25 1 25 26
M  V30 26 1 25 27
M  V30 27 1 26 28
M  V30 28 1 27 29
M  V30 29 1 28 30
M  V30 30 1 30 31
M  V30 31 1 31 32
M  V30 32 1 32 33
M  V30 33 1 7 9
M  V30 34 2 15 16
M  V30 35 1 22 23
M  V30 36 1 29 30
M  V30 END BOND
M  V30 END CTAB
M  END
>  <Molecule Name>
Compound 87

>  <Molecule Name 2>
Compound 87

>  <Compound ID>
48

>  <Name>
dasatinib

>  <Uniprot>
P42684

>  <Target>
ABL2

>  <Smiles>
CC1=NC(NC2=NC=C(C(=O)NC3=C(C)C=CC=C3Cl)S2)=CC(N2CCN(CCO)CC2)=N1

>  <Kd (nM)>
0.17

>  <Assay (Kd)>
Kd was assessed by competition binding assays

>  <Ki (nM)>


>  <Assay (Ki)>


>  <IC50 (nM)>


>  <Assay (IC50)>


>  <EC50 (nM)>


>  <Assay (EC50)>


>  <Article DOI>
10.1038/nbt.1990

>  <Molecular Weight>
488.017

>  <Exact Mass>
487.1557218

>  <XLogP3>
3.59

>  <Heavy Atom Count>
33

>  <Ring Count>
4

>  <Hydrogen Bond Acceptor Count>
9

>  <Hydrogen Bond Donor Count>
3

>  <Rotatable Bond Count>
7

>  <Topological Polar Surface Area>
106.51

>  <Molecular Formula>
C22H26ClN7O2S

>  <InChI>
InChI=1S/C22H26ClN7O2S/c1-14-4-3-5-16(23)20(14)28-21(32)17-13-24-22(33-17)27-18-12-19(26-15(2)25-18)30-8-6-29(7-9-30)10-11-31/h3-5,12-13,31H,6-11H2,1-2H3,(H,28,32)(H,24,25,26,27)

>  <InChI Key>
ZBNZXTGUTAYRHI-UHFFFAOYSA-N

>  <BindingDB>
13216

>  <PubChem>
3062316

>  <ChEMBL>
CHEMBL1421

$$$$
48
Actelion Java MolfileCreator 2.0

  0  0  0  0  0  0              0 V3000
M  V30 BEGIN CTAB
M  V30 COUNTS 33 36 0 0 0
M  V30 BEGIN ATOM
M  V30 1 Cl 1.732 1.4999 0.0 0
M  V30 2 C 2.598 1.0 0.0 0
M  V30 3 C 2.598 0.0 0.0 0
M  V30 4 C 3.4641 1.4999 0.0 0
M  V30 5 N 1.732 -0.5 0.0 0
M  V30 6 C 3.4641 -0.5 0.0 0
M  V30 7 C 4.3301 1.0 0.0 0
M  V30 8 C 0.866 0.0 0.0 0
M  V30 9 C 4.3301 0.0 0.0 0
M  V30 10 C 3.4641 -1.5 0.0 0
M  V30 11 O 0.866 1.0 0.0 0
M  V30 12 C 0.0 -0.5 0.0 0
M  V30 13 S -0.9135 -0.0932 0.0 0
M  V30 14 C -0.1045 -1.4945 0.0 0
M  V30 15 C -1.5826 -0.8364 0.0 0
M  V30 16 N -1.0826 -1.7024 0.0 0
M  V30 17 N -2.5771 -0.7318 0.0 0
M  V30 18 C -3.1649 -1.5408 0.0 0
M  V30 19 N -4.1595 -1.4363 0.0 0
M  V30 20 C -2.7582 -2.4544 0.0 0
M  V30 21 C -4.7472 -2.2453 0.0 0
M  V30 22 C -3.346 -3.2634 0.0 0
M  V30 23 N -4.3405 -3.1589 0.0 0
M  V30 24 C -5.7418 -2.1408 0.0 0
M  V30 25 N -2.9392 -4.177 0.0 0
M  V30 26 C -3.527 -4.986 0.0 0
M  V30 27 C -1.9447 -4.2815 0.0 0
M  V30 28 C -3.1203 -5.8995 0.0 0
M  V30 29 C -1.538 -5.195 0.0 0
M  V30 30 N -2.1258 -6.004 0.0 0
M  V30 31 C -1.719 -6.9176 0.0 0
M  V30 32 C -2.3068 -7.7266 0.0 0
M  V30 33 O -1.9001 -8.6402 0.0 0
M  V30 END ATOM
M  V30 BEGIN BOND
M  V30 1 1 1 2
M  V30 2 2 2 3
M  V30 3 1 2 4
M  V30 4 1 3 5
M  V30 5 1 3 6
M  V30 6 2 4 7
M  V30 7 1 5 8
M  V30 8 2 6 9
M  V30 9 1 6 10
M  V30 10 2 8 11
M  V30 11 1 8 12
M  V30 12 1 12 13
M  V30 13 2 12 14
M  V30 14 1 13 15
M  V30 15 1 14 16
M  V30 16 1 15 17
M  V30 17 1 17 18
M  V30 18 2 18 19
M  V30 19 1 18 20
M  V30 20 1 19 21
M  V30 21 2 20 22
M  V30 22 2 21 23
M  V30 23 1 21 24
M  V30 24 1 22 25
M  V30 25 1 25 26
M  V30 26 1 25 27
M  V30 27 1 26 28
M  V30 28 1 27 29
M  V30 29 1 28 30
M  V30 30 1 30 31
M  V30 31 1 31 32
M  V30 32 1 32 33
M  V30 33 1 7 9
M  V30 34 2 15 16
M  V30 35 1 22 23
M  V30 36 1 29 30
M  V30 END BOND
M  V30 END CTAB
M  END
>  <Molecule Name>
Compound 88

>  <Molecule Name 2>
Compound 88

>  <Compound ID>
48

>  <Name>
dasatinib

>  <Uniprot>


>  <Target>
BCR-ABL

>  <Smiles>
CC1=NC(NC2=NC=C(C(=O)NC3=C(C)C=CC=C3Cl)S2)=CC(N2CCN(CCO)CC2)=N1

>  <Kd (nM)>
0.03/0.02

>  <Assay (Kd)>
Kd of non-phosphorylated/phosphorylated ABL was assessed by KINOMEscan Assay

>  <Ki (nM)>


>  <Assay (Ki)>


>  <IC50 (nM)>


>  <Assay (IC50)>


>  <EC50 (nM)>


>  <Assay (EC50)>


>  <Article DOI>
10.1002/anie.201507634

>  <Molecular Weight>
488.017

>  <Exact Mass>
487.1557218

>  <XLogP3>
3.59

>  <Heavy Atom Count>
33

>  <Ring Count>
4

>  <Hydrogen Bond Acceptor Count>
9

>  <Hydrogen Bond Donor Count>
3

>  <Rotatable Bond Count>
7

>  <Topological Polar Surface Area>
106.51

>  <Molecular Formula>
C22H26ClN7O2S

>  <InChI>
InChI=1S/C22H26ClN7O2S/c1-14-4-3-5-16(23)20(14)28-21(32)17-13-24-22(33-17)27-18-12-19(26-15(2)25-18)30-8-6-29(7-9-30)10-11-31/h3-5,12-13,31H,6-11H2,1-2H3,(H,28,32)(H,24,25,26,27)

>  <InChI Key>
ZBNZXTGUTAYRHI-UHFFFAOYSA-N

>  <BindingDB>
13216

>  <PubChem>
3062316

>  <ChEMBL>
CHEMBL1421

$$$$
48
Actelion Java MolfileCreator 2.0

  0  0  0  0  0  0              0 V3000
M  V30 BEGIN CTAB
M  V30 COUNTS 33 36 0 0 0
M  V30 BEGIN ATOM
M  V30 1 Cl 1.732 1.4999 0.0 0
M  V30 2 C 2.598 1.0 0.0 0
M  V30 3 C 2.598 0.0 0.0 0
M  V30 4 C 3.4641 1.4999 0.0 0
M  V30 5 N 1.732 -0.5 0.0 0
M  V30 6 C 3.4641 -0.5 0.0 0
M  V30 7 C 4.3301 1.0 0.0 0
M  V30 8 C 0.866 0.0 0.0 0
M  V30 9 C 4.3301 0.0 0.0 0
M  V30 10 C 3.4641 -1.5 0.0 0
M  V30 11 O 0.866 1.0 0.0 0
M  V30 12 C 0.0 -0.5 0.0 0
M  V30 13 S -0.9135 -0.0932 0.0 0
M  V30 14 C -0.1045 -1.4945 0.0 0
M  V30 15 C -1.5826 -0.8364 0.0 0
M  V30 16 N -1.0826 -1.7024 0.0 0
M  V30 17 N -2.5771 -0.7318 0.0 0
M  V30 18 C -3.1649 -1.5408 0.0 0
M  V30 19 N -4.1595 -1.4363 0.0 0
M  V30 20 C -2.7582 -2.4544 0.0 0
M  V30 21 C -4.7472 -2.2453 0.0 0
M  V30 22 C -3.346 -3.2634 0.0 0
M  V30 23 N -4.3405 -3.1589 0.0 0
M  V30 24 C -5.7418 -2.1408 0.0 0
M  V30 25 N -2.9392 -4.177 0.0 0
M  V30 26 C -3.527 -4.986 0.0 0
M  V30 27 C -1.9447 -4.2815 0.0 0
M  V30 28 C -3.1203 -5.8995 0.0 0
M  V30 29 C -1.538 -5.195 0.0 0
M  V30 30 N -2.1258 -6.004 0.0 0
M  V30 31 C -1.719 -6.9176 0.0 0
M  V30 32 C -2.3068 -7.7266 0.0 0
M  V30 33 O -1.9001 -8.6402 0.0 0
M  V30 END ATOM
M  V30 BEGIN BOND
M  V30 1 1 1 2
M  V30 2 2 2 3
M  V30 3 1 2 4
M  V30 4 1 3 5
M  V30 5 1 3 6
M  V30 6 2 4 7
M  V30 7 1 5 8
M  V30 8 2 6 9
M  V30 9 1 6 10
M  V30 10 2 8 11
M  V30 11 1 8 12
M  V30 12 1 12 13
M  V30 13 2 12 14
M  V30 14 1 13 15
M  V30 15 1 14 16
M  V30 16 1 15 17
M  V30 17 1 17 18
M  V30 18 2 18 19
M  V30 19 1 18 20
M  V30 20 1 19 21
M  V30 21 2 20 22
M  V30 22 2 21 23
M  V30 23 1 21 24
M  V30 24 1 22 25
M  V30 25 1 25 26
M  V30 26 1 25 27
M  V30 27 1 26 28
M  V30 28 1 27 29
M  V30 29 1 28 30
M  V30 30 1 30 31
M  V30 31 1 31 32
M  V30 32 1 32 33
M  V30 33 1 7 9
M  V30 34 2 15 16
M  V30 35 1 22 23
M  V30 36 1 29 30
M  V30 END BOND
M  V30 END CTAB
M  END
>  <Molecule Name>
Compound 89

>  <Molecule Name 2>
Compound 89

>  <Compound ID>
48

>  <Name>
dasatinib

>  <Uniprot>
P51451

>  <Target>
BLK

>  <Smiles>
CC1=NC(NC2=NC=C(C(=O)NC3=C(C)C=CC=C3Cl)S2)=CC(N2CCN(CCO)CC2)=N1

>  <Kd (nM)>
0.21

>  <Assay (Kd)>
Kd of BLK

>  <Ki (nM)>


>  <Assay (Ki)>


>  <IC50 (nM)>


>  <Assay (IC50)>


>  <EC50 (nM)>


>  <Assay (EC50)>


>  <Article DOI>
10.1038/nbt1358

>  <Molecular Weight>
488.017

>  <Exact Mass>
487.1557218

>  <XLogP3>
3.59

>  <Heavy Atom Count>
33

>  <Ring Count>
4

>  <Hydrogen Bond Acceptor Count>
9

>  <Hydrogen Bond Donor Count>
3

>  <Rotatable Bond Count>
7

>  <Topological Polar Surface Area>
106.51

>  <Molecular Formula>
C22H26ClN7O2S

>  <InChI>
InChI=1S/C22H26ClN7O2S/c1-14-4-3-5-16(23)20(14)28-21(32)17-13-24-22(33-17)27-18-12-19(26-15(2)25-18)30-8-6-29(7-9-30)10-11-31/h3-5,12-13,31H,6-11H2,1-2H3,(H,28,32)(H,24,25,26,27)

>  <InChI Key>
ZBNZXTGUTAYRHI-UHFFFAOYSA-N

>  <BindingDB>
13216

>  <PubChem>
3062316

>  <ChEMBL>
CHEMBL1421

$$$$
48
Actelion Java MolfileCreator 2.0

  0  0  0  0  0  0              0 V3000
M  V30 BEGIN CTAB
M  V30 COUNTS 33 36 0 0 0
M  V30 BEGIN ATOM
M  V30 1 Cl 1.732 1.4999 0.0 0
M  V30 2 C 2.598 1.0 0.0 0
M  V30 3 C 2.598 0.0 0.0 0
M  V30 4 C 3.4641 1.4999 0.0 0
M  V30 5 N 1.732 -0.5 0.0 0
M  V30 6 C 3.4641 -0.5 0.0 0
M  V30 7 C 4.3301 1.0 0.0 0
M  V30 8 C 0.866 0.0 0.0 0
M  V30 9 C 4.3301 0.0 0.0 0
M  V30 10 C 3.4641 -1.5 0.0 0
M  V30 11 O 0.866 1.0 0.0 0
M  V30 12 C 0.0 -0.5 0.0 0
M  V30 13 S -0.9135 -0.0932 0.0 0
M  V30 14 C -0.1045 -1.4945 0.0 0
M  V30 15 C -1.5826 -0.8364 0.0 0
M  V30 16 N -1.0826 -1.7024 0.0 0
M  V30 17 N -2.5771 -0.7318 0.0 0
M  V30 18 C -3.1649 -1.5408 0.0 0
M  V30 19 N -4.1595 -1.4363 0.0 0
M  V30 20 C -2.7582 -2.4544 0.0 0
M  V30 21 C -4.7472 -2.2453 0.0 0
M  V30 22 C -3.346 -3.2634 0.0 0
M  V30 23 N -4.3405 -3.1589 0.0 0
M  V30 24 C -5.7418 -2.1408 0.0 0
M  V30 25 N -2.9392 -4.177 0.0 0
M  V30 26 C -3.527 -4.986 0.0 0
M  V30 27 C -1.9447 -4.2815 0.0 0
M  V30 28 C -3.1203 -5.8995 0.0 0
M  V30 29 C -1.538 -5.195 0.0 0
M  V30 30 N -2.1258 -6.004 0.0 0
M  V30 31 C -1.719 -6.9176 0.0 0
M  V30 32 C -2.3068 -7.7266 0.0 0
M  V30 33 O -1.9001 -8.6402 0.0 0
M  V30 END ATOM
M  V30 BEGIN BOND
M  V30 1 1 1 2
M  V30 2 2 2 3
M  V30 3 1 2 4
M  V30 4 1 3 5
M  V30 5 1 3 6
M  V30 6 2 4 7
M  V30 7 1 5 8
M  V30 8 2 6 9
M  V30 9 1 6 10
M  V30 10 2 8 11
M  V30 11 1 8 12
M  V30 12 1 12 13
M  V30 13 2 12 14
M  V30 14 1 13 15
M  V30 15 1 14 16
M  V30 16 1 15 17
M  V30 17 1 17 18
M  V30 18 2 18 19
M  V30 19 1 18 20
M  V30 20 1 19 21
M  V30 21 2 20 22
M  V30 22 2 21 23
M  V30 23 1 21 24
M  V30 24 1 22 25
M  V30 25 1 25 26
M  V30 26 1 25 27
M  V30 27 1 26 28
M  V30 28 1 27 29
M  V30 29 1 28 30
M  V30 30 1 30 31
M  V30 31 1 31 32
M  V30 32 1 32 33
M  V30 33 1 7 9
M  V30 34 2 15 16
M  V30 35 1 22 23
M  V30 36 1 29 30
M  V30 END BOND
M  V30 END CTAB
M  END
>  <Molecule Name>
Compound 90

>  <Molecule Name 2>
Compound 90

>  <Compound ID>
48

>  <Name>
dasatinib

>  <Uniprot>
P41240

>  <Target>
CSK

>  <Smiles>
CC1=NC(NC2=NC=C(C(=O)NC3=C(C)C=CC=C3Cl)S2)=CC(N2CCN(CCO)CC2)=N1

>  <Kd (nM)>
1

>  <Assay (Kd)>
Kd was assessed by competition binding assays

>  <Ki (nM)>


>  <Assay (Ki)>


>  <IC50 (nM)>


>  <Assay (IC50)>


>  <EC50 (nM)>


>  <Assay (EC50)>


>  <Article DOI>
10.1038/nbt.1990

>  <Molecular Weight>
488.017

>  <Exact Mass>
487.1557218

>  <XLogP3>
3.59

>  <Heavy Atom Count>
33

>  <Ring Count>
4

>  <Hydrogen Bond Acceptor Count>
9

>  <Hydrogen Bond Donor Count>
3

>  <Rotatable Bond Count>
7

>  <Topological Polar Surface Area>
106.51

>  <Molecular Formula>
C22H26ClN7O2S

>  <InChI>
InChI=1S/C22H26ClN7O2S/c1-14-4-3-5-16(23)20(14)28-21(32)17-13-24-22(33-17)27-18-12-19(26-15(2)25-18)30-8-6-29(7-9-30)10-11-31/h3-5,12-13,31H,6-11H2,1-2H3,(H,28,32)(H,24,25,26,27)

>  <InChI Key>
ZBNZXTGUTAYRHI-UHFFFAOYSA-N

>  <BindingDB>
13216

>  <PubChem>
3062316

>  <ChEMBL>
CHEMBL1421

$$$$
48
Actelion Java MolfileCreator 2.0

  0  0  0  0  0  0              0 V3000
M  V30 BEGIN CTAB
M  V30 COUNTS 33 36 0 0 0
M  V30 BEGIN ATOM
M  V30 1 Cl 1.732 1.4999 0.0 0
M  V30 2 C 2.598 1.0 0.0 0
M  V30 3 C 2.598 0.0 0.0 0
M  V30 4 C 3.4641 1.4999 0.0 0
M  V30 5 N 1.732 -0.5 0.0 0
M  V30 6 C 3.4641 -0.5 0.0 0
M  V30 7 C 4.3301 1.0 0.0 0
M  V30 8 C 0.866 0.0 0.0 0
M  V30 9 C 4.3301 0.0 0.0 0
M  V30 10 C 3.4641 -1.5 0.0 0
M  V30 11 O 0.866 1.0 0.0 0
M  V30 12 C 0.0 -0.5 0.0 0
M  V30 13 S -0.9135 -0.0932 0.0 0
M  V30 14 C -0.1045 -1.4945 0.0 0
M  V30 15 C -1.5826 -0.8364 0.0 0
M  V30 16 N -1.0826 -1.7024 0.0 0
M  V30 17 N -2.5771 -0.7318 0.0 0
M  V30 18 C -3.1649 -1.5408 0.0 0
M  V30 19 N -4.1595 -1.4363 0.0 0
M  V30 20 C -2.7582 -2.4544 0.0 0
M  V30 21 C -4.7472 -2.2453 0.0 0
M  V30 22 C -3.346 -3.2634 0.0 0
M  V30 23 N -4.3405 -3.1589 0.0 0
M  V30 24 C -5.7418 -2.1408 0.0 0
M  V30 25 N -2.9392 -4.177 0.0 0
M  V30 26 C -3.527 -4.986 0.0 0
M  V30 27 C -1.9447 -4.2815 0.0 0
M  V30 28 C -3.1203 -5.8995 0.0 0
M  V30 29 C -1.538 -5.195 0.0 0
M  V30 30 N -2.1258 -6.004 0.0 0
M  V30 31 C -1.719 -6.9176 0.0 0
M  V30 32 C -2.3068 -7.7266 0.0 0
M  V30 33 O -1.9001 -8.6402 0.0 0
M  V30 END ATOM
M  V30 BEGIN BOND
M  V30 1 1 1 2
M  V30 2 2 2 3
M  V30 3 1 2 4
M  V30 4 1 3 5
M  V30 5 1 3 6
M  V30 6 2 4 7
M  V30 7 1 5 8
M  V30 8 2 6 9
M  V30 9 1 6 10
M  V30 10 2 8 11
M  V30 11 1 8 12
M  V30 12 1 12 13
M  V30 13 2 12 14
M  V30 14 1 13 15
M  V30 15 1 14 16
M  V30 16 1 15 17
M  V30 17 1 17 18
M  V30 18 2 18 19
M  V30 19 1 18 20
M  V30 20 1 19 21
M  V30 21 2 20 22
M  V30 22 2 21 23
M  V30 23 1 21 24
M  V30 24 1 22 25
M  V30 25 1 25 26
M  V30 26 1 25 27
M  V30 27 1 26 28
M  V30 28 1 27 29
M  V30 29 1 28 30
M  V30 30 1 30 31
M  V30 31 1 31 32
M  V30 32 1 32 33
M  V30 33 1 7 9
M  V30 34 2 15 16
M  V30 35 1 22 23
M  V30 36 1 29 30
M  V30 END BOND
M  V30 END CTAB
M  END
>  <Molecule Name>
Compound 91

>  <Molecule Name 2>
Compound 91

>  <Compound ID>
48

>  <Name>
dasatinib

>  <Uniprot>
P30291

>  <Target>
Wee1

>  <Smiles>
CC1=NC(NC2=NC=C(C(=O)NC3=C(C)C=CC=C3Cl)S2)=CC(N2CCN(CCO)CC2)=N1

>  <Kd (nM)>
7000

>  <Assay (Kd)>
Kd of Wee1

>  <Ki (nM)>


>  <Assay (Ki)>


>  <IC50 (nM)>


>  <Assay (IC50)>


>  <EC50 (nM)>


>  <Assay (EC50)>


>  <Article DOI>
10.1038/nbt1358

>  <Molecular Weight>
488.017

>  <Exact Mass>
487.1557218

>  <XLogP3>
3.59

>  <Heavy Atom Count>
33

>  <Ring Count>
4

>  <Hydrogen Bond Acceptor Count>
9

>  <Hydrogen Bond Donor Count>
3

>  <Rotatable Bond Count>
7

>  <Topological Polar Surface Area>
106.51

>  <Molecular Formula>
C22H26ClN7O2S

>  <InChI>
InChI=1S/C22H26ClN7O2S/c1-14-4-3-5-16(23)20(14)28-21(32)17-13-24-22(33-17)27-18-12-19(26-15(2)25-18)30-8-6-29(7-9-30)10-11-31/h3-5,12-13,31H,6-11H2,1-2H3,(H,28,32)(H,24,25,26,27)

>  <InChI Key>
ZBNZXTGUTAYRHI-UHFFFAOYSA-N

>  <BindingDB>
13216

>  <PubChem>
3062316

>  <ChEMBL>
CHEMBL1421

$$$$
49
Actelion Java MolfileCreator 2.0

  0  0  0  0  0  0              0 V3000
M  V30 BEGIN CTAB
M  V30 COUNTS 34 38 0 0 0
M  V30 BEGIN ATOM
M  V30 1 Cl 2.9434 -5.9996 0.0 0
M  V30 2 C 3.2381 -5.044 0.0 0
M  V30 3 C 4.213 -4.8215 0.0 0
M  V30 4 C 2.5579 -4.311 0.0 0
M  V30 5 C 4.5078 -3.866 0.0 0
M  V30 6 C 2.8527 -3.3554 0.0 0
M  V30 7 C 3.8276 -3.1329 0.0 0
M  V30 8 C 4.1224 -2.1773 0.0 0
M  V30 9 N 3.3893 -1.4972 0.0 0
M  V30 10 C 5.1112 -2.0283 0.0 0
M  V30 11 C 3.4641 -0.5 0.0 0 CFG=2
M  V30 12 C 5.6112 -1.1623 0.0 0
M  V30 13 C 5.7803 -2.7714 0.0 0
M  V30 14 C 4.2903 0.0633 0.0 0
M  V30 15 C 2.598 0.0 0.0 0
M  V30 16 S 6.5894 -1.3702 0.0 0
M  V30 17 N 5.2459 -0.2314 0.0 0
M  V30 18 C 6.6939 -2.3647 0.0 0
M  V30 19 C 5.5724 -3.7496 0.0 0
M  V30 20 N 4.2753 1.0632 0.0 0
M  V30 21 C 1.732 -0.5 0.0 0
M  V30 22 C 5.8215 0.5862 0.0 0
M  V30 23 C 7.5599 -2.8647 0.0 0
M  V30 24 N 5.2217 1.3864 0.0 0
M  V30 25 O 1.732 -1.5 0.0 0
M  V30 26 N 0.866 0.0 0.0 0
M  V30 27 C 6.8214 0.6012 0.0 0
M  V30 28 C 0.0 -0.5 0.0 0
M  V30 29 C -0.866 0.0 0.0 0
M  V30 30 C 0.0 -1.4999 0.0 0
M  V30 31 C -1.732 -0.4999 0.0 0
M  V30 32 C -0.866 -1.9999 0.0 0
M  V30 33 C -1.732 -1.4999 0.0 0
M  V30 34 O -2.598 -1.9999 0.0 0
M  V30 END ATOM
M  V30 BEGIN BOND
M  V30 1 1 1 2
M  V30 2 2 2 3
M  V30 3 1 2 4
M  V30 4 1 3 5
M  V30 5 2 4 6
M  V30 6 2 5 7
M  V30 7 1 7 8
M  V30 8 2 8 9
M  V30 9 1 8 10
M  V30 10 1 11 9
M  V30 11 2 10 12
M  V30 12 1 10 13
M  V30 13 1 11 14
M  V30 14 1 11 15 CFG=1
M  V30 15 1 12 16
M  V30 16 1 12 17
M  V30 17 2 13 18
M  V30 18 1 13 19
M  V30 19 2 14 20
M  V30 20 1 15 21
M  V30 21 1 17 22
M  V30 22 1 18 23
M  V30 23 1 20 24
M  V30 24 2 21 25
M  V30 25 1 21 26
M  V30 26 1 22 27
M  V30 27 1 26 28
M  V30 28 2 28 29
M  V30 29 1 28 30
M  V30 30 1 29 31
M  V30 31 2 30 32
M  V30 32 2 31 33
M  V30 33 1 33 34
M  V30 34 1 6 7
M  V30 35 1 14 17
M  V30 36 1 16 18
M  V30 37 2 22 24
M  V30 38 1 32 33
M  V30 END BOND
M  V30 BEGIN COLLECTION
M  V30 MDLV30/STEABS ATOMS=(1 11)
M  V30 END COLLECTION
M  V30 END CTAB
M  END
>  <Molecule Name>
Compound 92

>  <Molecule Name 2>
Compound 92

>  <Compound ID>
49

>  <Name>
OTX015

>  <Uniprot>
P25440

>  <Target>
BRD2

>  <Smiles>
CC1=C(C)C2=C(S1)N1C(C)=NN=C1[C@H](CC(=O)NC1=CC=C(O)C=C1)N=C2C1=CC=C(Cl)C=C1

>  <Kd (nM)>


>  <Assay (Kd)>


>  <Ki (nM)>
16.6/5.4

>  <Assay (Ki)>
FP in BRD2 BD1/2

>  <IC50 (nM)>


>  <Assay (IC50)>


>  <EC50 (nM)>


>  <Assay (EC50)>


>  <Article DOI>
10.1021/acs.jmedchem.5b00613

>  <Molecular Weight>
492.004

>  <Exact Mass>
491.1182736

>  <XLogP3>
4.5

>  <Heavy Atom Count>
34

>  <Ring Count>
5

>  <Hydrogen Bond Acceptor Count>
7

>  <Hydrogen Bond Donor Count>
2

>  <Rotatable Bond Count>
4

>  <Topological Polar Surface Area>
92.4

>  <Molecular Formula>
C25H22ClN5O2S

>  <InChI>
InChI=1S/C25H22ClN5O2S/c1-13-14(2)34-25-22(13)23(16-4-6-17(26)7-5-16)28-20(24-30-29-15(3)31(24)25)12-21(33)27-18-8-10-19(32)11-9-18/h4-11,20,32H,12H2,1-3H3,(H,27,33)/t20-/m0/s1

>  <InChI Key>
GNMUEVRJHCWKTO-FQEVSTJZSA-N

>  <BindingDB>
50092312

>  <PubChem>
9936746

>  <ChEMBL>
CHEMBL3581647

$$$$
49
Actelion Java MolfileCreator 2.0

  0  0  0  0  0  0              0 V3000
M  V30 BEGIN CTAB
M  V30 COUNTS 34 38 0 0 0
M  V30 BEGIN ATOM
M  V30 1 Cl 2.9434 -5.9996 0.0 0
M  V30 2 C 3.2381 -5.044 0.0 0
M  V30 3 C 4.213 -4.8215 0.0 0
M  V30 4 C 2.5579 -4.311 0.0 0
M  V30 5 C 4.5078 -3.866 0.0 0
M  V30 6 C 2.8527 -3.3554 0.0 0
M  V30 7 C 3.8276 -3.1329 0.0 0
M  V30 8 C 4.1224 -2.1773 0.0 0
M  V30 9 N 3.3893 -1.4972 0.0 0
M  V30 10 C 5.1112 -2.0283 0.0 0
M  V30 11 C 3.4641 -0.5 0.0 0 CFG=2
M  V30 12 C 5.6112 -1.1623 0.0 0
M  V30 13 C 5.7803 -2.7714 0.0 0
M  V30 14 C 4.2903 0.0633 0.0 0
M  V30 15 C 2.598 0.0 0.0 0
M  V30 16 S 6.5894 -1.3702 0.0 0
M  V30 17 N 5.2459 -0.2314 0.0 0
M  V30 18 C 6.6939 -2.3647 0.0 0
M  V30 19 C 5.5724 -3.7496 0.0 0
M  V30 20 N 4.2753 1.0632 0.0 0
M  V30 21 C 1.732 -0.5 0.0 0
M  V30 22 C 5.8215 0.5862 0.0 0
M  V30 23 C 7.5599 -2.8647 0.0 0
M  V30 24 N 5.2217 1.3864 0.0 0
M  V30 25 O 1.732 -1.5 0.0 0
M  V30 26 N 0.866 0.0 0.0 0
M  V30 27 C 6.8214 0.6012 0.0 0
M  V30 28 C 0.0 -0.5 0.0 0
M  V30 29 C -0.866 0.0 0.0 0
M  V30 30 C 0.0 -1.4999 0.0 0
M  V30 31 C -1.732 -0.4999 0.0 0
M  V30 32 C -0.866 -1.9999 0.0 0
M  V30 33 C -1.732 -1.4999 0.0 0
M  V30 34 O -2.598 -1.9999 0.0 0
M  V30 END ATOM
M  V30 BEGIN BOND
M  V30 1 1 1 2
M  V30 2 2 2 3
M  V30 3 1 2 4
M  V30 4 1 3 5
M  V30 5 2 4 6
M  V30 6 2 5 7
M  V30 7 1 7 8
M  V30 8 2 8 9
M  V30 9 1 8 10
M  V30 10 1 11 9
M  V30 11 2 10 12
M  V30 12 1 10 13
M  V30 13 1 11 14
M  V30 14 1 11 15 CFG=1
M  V30 15 1 12 16
M  V30 16 1 12 17
M  V30 17 2 13 18
M  V30 18 1 13 19
M  V30 19 2 14 20
M  V30 20 1 15 21
M  V30 21 1 17 22
M  V30 22 1 18 23
M  V30 23 1 20 24
M  V30 24 2 21 25
M  V30 25 1 21 26
M  V30 26 1 22 27
M  V30 27 1 26 28
M  V30 28 2 28 29
M  V30 29 1 28 30
M  V30 30 1 29 31
M  V30 31 2 30 32
M  V30 32 2 31 33
M  V30 33 1 33 34
M  V30 34 1 6 7
M  V30 35 1 14 17
M  V30 36 1 16 18
M  V30 37 2 22 24
M  V30 38 1 32 33
M  V30 END BOND
M  V30 BEGIN COLLECTION
M  V30 MDLV30/STEABS ATOMS=(1 11)
M  V30 END COLLECTION
M  V30 END CTAB
M  END
>  <Molecule Name>
Compound 93

>  <Molecule Name 2>
Compound 93

>  <Compound ID>
49

>  <Name>
OTX015

>  <Uniprot>
Q15059

>  <Target>
BRD3

>  <Smiles>
CC1=C(C)C2=C(S1)N1C(C)=NN=C1[C@H](CC(=O)NC1=CC=C(O)C=C1)N=C2C1=CC=C(Cl)C=C1

>  <Kd (nM)>


>  <Assay (Kd)>


>  <Ki (nM)>
10.7/4

>  <Assay (Ki)>
FP in BRD3 BD1/2

>  <IC50 (nM)>


>  <Assay (IC50)>


>  <EC50 (nM)>


>  <Assay (EC50)>


>  <Article DOI>
10.1021/acs.jmedchem.5b00613

>  <Molecular Weight>
492.004

>  <Exact Mass>
491.1182736

>  <XLogP3>
4.5

>  <Heavy Atom Count>
34

>  <Ring Count>
5

>  <Hydrogen Bond Acceptor Count>
7

>  <Hydrogen Bond Donor Count>
2

>  <Rotatable Bond Count>
4

>  <Topological Polar Surface Area>
92.4

>  <Molecular Formula>
C25H22ClN5O2S

>  <InChI>
InChI=1S/C25H22ClN5O2S/c1-13-14(2)34-25-22(13)23(16-4-6-17(26)7-5-16)28-20(24-30-29-15(3)31(24)25)12-21(33)27-18-8-10-19(32)11-9-18/h4-11,20,32H,12H2,1-3H3,(H,27,33)/t20-/m0/s1

>  <InChI Key>
GNMUEVRJHCWKTO-FQEVSTJZSA-N

>  <BindingDB>
50092312

>  <PubChem>
9936746

>  <ChEMBL>
CHEMBL3581647

$$$$
49
Actelion Java MolfileCreator 2.0

  0  0  0  0  0  0              0 V3000
M  V30 BEGIN CTAB
M  V30 COUNTS 34 38 0 0 0
M  V30 BEGIN ATOM
M  V30 1 Cl 2.9434 -5.9996 0.0 0
M  V30 2 C 3.2381 -5.044 0.0 0
M  V30 3 C 4.213 -4.8215 0.0 0
M  V30 4 C 2.5579 -4.311 0.0 0
M  V30 5 C 4.5078 -3.866 0.0 0
M  V30 6 C 2.8527 -3.3554 0.0 0
M  V30 7 C 3.8276 -3.1329 0.0 0
M  V30 8 C 4.1224 -2.1773 0.0 0
M  V30 9 N 3.3893 -1.4972 0.0 0
M  V30 10 C 5.1112 -2.0283 0.0 0
M  V30 11 C 3.4641 -0.5 0.0 0 CFG=2
M  V30 12 C 5.6112 -1.1623 0.0 0
M  V30 13 C 5.7803 -2.7714 0.0 0
M  V30 14 C 4.2903 0.0633 0.0 0
M  V30 15 C 2.598 0.0 0.0 0
M  V30 16 S 6.5894 -1.3702 0.0 0
M  V30 17 N 5.2459 -0.2314 0.0 0
M  V30 18 C 6.6939 -2.3647 0.0 0
M  V30 19 C 5.5724 -3.7496 0.0 0
M  V30 20 N 4.2753 1.0632 0.0 0
M  V30 21 C 1.732 -0.5 0.0 0
M  V30 22 C 5.8215 0.5862 0.0 0
M  V30 23 C 7.5599 -2.8647 0.0 0
M  V30 24 N 5.2217 1.3864 0.0 0
M  V30 25 O 1.732 -1.5 0.0 0
M  V30 26 N 0.866 0.0 0.0 0
M  V30 27 C 6.8214 0.6012 0.0 0
M  V30 28 C 0.0 -0.5 0.0 0
M  V30 29 C -0.866 0.0 0.0 0
M  V30 30 C 0.0 -1.4999 0.0 0
M  V30 31 C -1.732 -0.4999 0.0 0
M  V30 32 C -0.866 -1.9999 0.0 0
M  V30 33 C -1.732 -1.4999 0.0 0
M  V30 34 O -2.598 -1.9999 0.0 0
M  V30 END ATOM
M  V30 BEGIN BOND
M  V30 1 1 1 2
M  V30 2 2 2 3
M  V30 3 1 2 4
M  V30 4 1 3 5
M  V30 5 2 4 6
M  V30 6 2 5 7
M  V30 7 1 7 8
M  V30 8 2 8 9
M  V30 9 1 8 10
M  V30 10 1 11 9
M  V30 11 2 10 12
M  V30 12 1 10 13
M  V30 13 1 11 14
M  V30 14 1 11 15 CFG=1
M  V30 15 1 12 16
M  V30 16 1 12 17
M  V30 17 2 13 18
M  V30 18 1 13 19
M  V30 19 2 14 20
M  V30 20 1 15 21
M  V30 21 1 17 22
M  V30 22 1 18 23
M  V30 23 1 20 24
M  V30 24 2 21 25
M  V30 25 1 21 26
M  V30 26 1 22 27
M  V30 27 1 26 28
M  V30 28 2 28 29
M  V30 29 1 28 30
M  V30 30 1 29 31
M  V30 31 2 30 32
M  V30 32 2 31 33
M  V30 33 1 33 34
M  V30 34 1 6 7
M  V30 35 1 14 17
M  V30 36 1 16 18
M  V30 37 2 22 24
M  V30 38 1 32 33
M  V30 END BOND
M  V30 BEGIN COLLECTION
M  V30 MDLV30/STEABS ATOMS=(1 11)
M  V30 END COLLECTION
M  V30 END CTAB
M  END
>  <Molecule Name>
Compound 94

>  <Molecule Name 2>
Compound 94

>  <Compound ID>
49

>  <Name>
OTX015

>  <Uniprot>
O60885

>  <Target>
BRD4

>  <Smiles>
CC1=C(C)C2=C(S1)N1C(C)=NN=C1[C@H](CC(=O)NC1=CC=C(O)C=C1)N=C2C1=CC=C(Cl)C=C1

>  <Kd (nM)>


>  <Assay (Kd)>


>  <Ki (nM)>
10.9/6

>  <Assay (Ki)>
FP in BRD4 BD1/2

>  <IC50 (nM)>


>  <Assay (IC50)>


>  <EC50 (nM)>


>  <Assay (EC50)>


>  <Article DOI>
10.1021/acs.jmedchem.5b00613

>  <Molecular Weight>
492.004

>  <Exact Mass>
491.1182736

>  <XLogP3>
4.5

>  <Heavy Atom Count>
34

>  <Ring Count>
5

>  <Hydrogen Bond Acceptor Count>
7

>  <Hydrogen Bond Donor Count>
2

>  <Rotatable Bond Count>
4

>  <Topological Polar Surface Area>
92.4

>  <Molecular Formula>
C25H22ClN5O2S

>  <InChI>
InChI=1S/C25H22ClN5O2S/c1-13-14(2)34-25-22(13)23(16-4-6-17(26)7-5-16)28-20(24-30-29-15(3)31(24)25)12-21(33)27-18-8-10-19(32)11-9-18/h4-11,20,32H,12H2,1-3H3,(H,27,33)/t20-/m0/s1

>  <InChI Key>
GNMUEVRJHCWKTO-FQEVSTJZSA-N

>  <BindingDB>
50092312

>  <PubChem>
9936746

>  <ChEMBL>
CHEMBL3581647

$$$$
50
Actelion Java MolfileCreator 2.0

  0  0  0  0  0  0              0 V3000
M  V30 BEGIN CTAB
M  V30 COUNTS 38 40 0 0 0
M  V30 BEGIN ATOM
M  V30 1 O 7.7942 2.25 0.0 0
M  V30 2 C 9.0932 1.5 0.0 0
M  V30 3 N 9.0932 0.0 0.0 0
M  V30 4 C 10.3923 2.25 0.0 0
M  V30 5 C 7.7942 -0.75 0.0 0 CFG=2
M  V30 6 C 10.3923 -0.75 0.0 0
M  V30 7 O 10.3923 3.75 0.0 0
M  V30 8 C 11.6913 1.5 0.0 0
M  V30 9 C 6.4951 0.0 0.0 0
M  V30 10 C 7.7942 -2.25 0.0 0
M  V30 11 C 10.3923 -2.25 0.0 0
M  V30 12 C 11.6913 0.0 0.0 0
M  V30 13 C 13.1913 1.4999 0.0 0
M  V30 14 C 12.4413 2.799 0.0 0
M  V30 15 O 6.4951 1.5 0.0 0
M  V30 16 O 5.1961 -0.75 0.0 0
M  V30 17 C 9.0932 -3.0 0.0 0
M  V30 18 C 12.9903 -0.75 0.0 0
M  V30 19 C 3.8971 0.0 0.0 0 CFG=1
M  V30 20 C 3.8971 1.5 0.0 0
M  V30 21 C 2.598 -0.75 0.0 0
M  V30 22 C 5.1961 2.25 0.0 0
M  V30 23 C 2.598 2.25 0.0 0
M  V30 24 C 1.299 0.0 0.0 0
M  V30 25 C 5.1961 3.75 0.0 0
M  V30 26 C 2.598 3.75 0.0 0
M  V30 27 C 0.0 -0.75 0.0 0
M  V30 28 N 6.4951 4.5 0.0 0
M  V30 29 C 3.8971 4.5 0.0 0
M  V30 30 C -1.299 0.0 0.0 0
M  V30 31 C 0.0 -2.25 0.0 0
M  V30 32 C -2.598 -0.75 0.0 0
M  V30 33 C -1.299 -3.0 0.0 0
M  V30 34 O -3.8971 0.0 0.0 0
M  V30 35 C -2.598 -2.25 0.0 0
M  V30 36 C -5.1961 -0.75 0.0 0
M  V30 37 O -3.8971 -3.0 0.0 0
M  V30 38 C -3.8971 -4.5 0.0 0
M  V30 END ATOM
M  V30 BEGIN BOND
M  V30 1 2 1 2
M  V30 2 1 2 3
M  V30 3 1 2 4
M  V30 4 1 5 3
M  V30 5 1 3 6
M  V30 6 2 4 7
M  V30 7 1 4 8
M  V30 8 1 5 9 CFG=1
M  V30 9 1 5 10
M  V30 10 1 6 11
M  V30 11 1 8 12
M  V30 12 1 8 13
M  V30 13 1 8 14
M  V30 14 2 9 15
M  V30 15 1 9 16
M  V30 16 1 10 17
M  V30 17 1 12 18
M  V30 18 1 19 16 CFG=3
M  V30 19 1 19 20
M  V30 20 1 19 21
M  V30 21 2 20 22
M  V30 22 1 20 23
M  V30 23 1 21 24
M  V30 24 1 22 25
M  V30 25 2 23 26
M  V30 26 1 24 27
M  V30 27 1 25 28
M  V30 28 2 25 29
M  V30 29 2 27 30
M  V30 30 1 27 31
M  V30 31 1 30 32
M  V30 32 2 31 33
M  V30 33 1 32 34
M  V30 34 2 32 35
M  V30 35 1 34 36
M  V30 36 1 35 37
M  V30 37 1 37 38
M  V30 38 1 11 17
M  V30 39 1 26 29
M  V30 40 1 33 35
M  V30 END BOND
M  V30 BEGIN COLLECTION
M  V30 MDLV30/STEABS ATOMS=(2 5 19)
M  V30 END COLLECTION
M  V30 END CTAB
M  END
>  <Molecule Name>
Compound 95

>  <Molecule Name 2>
Compound 95

>  <Compound ID>
50

>  <Name>


>  <Uniprot>
P62942

>  <Target>
FKBP12

>  <Smiles>
CCC(C)(C)C(=O)C(=O)N1CCCC[C@H]1C(=O)O[C@H](CCC1=CC=C(OC)C(OC)=C1)C1=CC=CC(N)=C1

>  <Kd (nM)>


>  <Assay (Kd)>


>  <Ki (nM)>


>  <Assay (Ki)>


>  <IC50 (nM)>
100

>  <Assay (IC50)>
IC50 of FKBP12 was assessed by fluorescence polarization assay

>  <EC50 (nM)>


>  <Assay (EC50)>


>  <Article DOI>
10.1021/jm201746x

>  <Molecular Weight>
524.658

>  <Exact Mass>
524.288637

>  <XLogP3>
5.27

>  <Heavy Atom Count>
38

>  <Ring Count>
3

>  <Hydrogen Bond Acceptor Count>
7

>  <Hydrogen Bond Donor Count>
1

>  <Rotatable Bond Count>
11

>  <Topological Polar Surface Area>
108.16

>  <Molecular Formula>
C30H40N2O6

>  <InChI>
InChI=1S/C30H40N2O6/c1-6-30(2,3)27(33)28(34)32-17-8-7-12-23(32)29(35)38-24(21-10-9-11-22(31)19-21)15-13-20-14-16-25(36-4)26(18-20)37-5/h9-11,14,16,18-19,23-24H,6-8,12-13,15,17,31H2,1-5H3/t23-,24+/m0/s1

>  <InChI Key>
IIDSDBBDZNDWCN-BJKOFHAPSA-N

>  <BindingDB>
50388311

>  <PubChem>
35027274

>  <ChEMBL>
CHEMBL2059026

$$$$
51
Actelion Java MolfileCreator 2.0

  0  0  0  0  0  0              0 V3000
M  V30 BEGIN CTAB
M  V30 COUNTS 29 31 0 0 0
M  V30 BEGIN ATOM
M  V30 1 S 1.8365 -1.4945 0.0 0
M  V30 2 C 2.8147 -1.7024 0.0 0
M  V30 3 C 1.732 -0.5 0.0 0
M  V30 4 O 3.2214 -2.6159 0.0 0
M  V30 5 N 3.3147 -0.8364 0.0 0
M  V30 6 C 2.6455 -0.0932 0.0 0
M  V30 7 C 0.866 0.0 0.0 0
M  V30 8 O 2.8535 0.8848 0.0 0
M  V30 9 C 0.0 -0.5 0.0 0
M  V30 10 C -0.866 0.0 0.0 0
M  V30 11 C 0.0 -1.4999 0.0 0
M  V30 12 C -1.732 -0.4999 0.0 0
M  V30 13 C -0.866 -1.9999 0.0 0
M  V30 14 O -2.598 0.0 0.0 0
M  V30 15 C -1.732 -1.4999 0.0 0
M  V30 16 C -3.4641 -0.4999 0.0 0
M  V30 17 O -2.598 -1.9999 0.0 0
M  V30 18 C -2.598 -2.9999 0.0 0
M  V30 19 C -3.4641 -3.4999 0.0 0
M  V30 20 C -1.732 -3.4999 0.0 0
M  V30 21 C -3.4641 -4.4999 0.0 0
M  V30 22 C -4.3301 -2.9999 0.0 0
M  V30 23 C -1.732 -4.4999 0.0 0
M  V30 24 C -2.598 -4.9999 0.0 0
M  V30 25 F -4.8301 -3.866 0.0 0
M  V30 26 F -5.1961 -2.4999 0.0 0
M  V30 27 F -3.8301 -2.1339 0.0 0
M  V30 28 C -2.598 -5.9999 0.0 0
M  V30 29 N -2.598 -6.9999 0.0 0
M  V30 END ATOM
M  V30 BEGIN BOND
M  V30 1 1 1 2
M  V30 2 1 1 3
M  V30 3 2 2 4
M  V30 4 1 2 5
M  V30 5 1 3 6
M  V30 6 2 3 7
M  V30 7 2 6 8
M  V30 8 1 7 9
M  V30 9 2 9 10
M  V30 10 1 9 11
M  V30 11 1 10 12
M  V30 12 2 11 13
M  V30 13 1 12 14
M  V30 14 2 12 15
M  V30 15 1 14 16
M  V30 16 1 15 17
M  V30 17 1 17 18
M  V30 18 2 18 19
M  V30 19 1 18 20
M  V30 20 1 19 21
M  V30 21 1 19 22
M  V30 22 2 20 23
M  V30 23 2 21 24
M  V30 24 1 22 25
M  V30 25 1 22 26
M  V30 26 1 22 27
M  V30 27 1 24 28
M  V30 28 3 28 29
M  V30 29 1 5 6
M  V30 30 1 13 15
M  V30 31 1 23 24
M  V30 END BOND
M  V30 END CTAB
M  END
>  <Molecule Name>
Compound 96

>  <Molecule Name 2>
Compound 96

>  <Compound ID>
51

>  <Name>


>  <Uniprot>
P11474

>  <Target>
ERRalpha

>  <Smiles>
COC1=CC(/C=C2\SC(=O)NC2=O)=CC=C1OC1=CC=C(C#N)C=C1C(F)(F)F

>  <Kd (nM)>


>  <Assay (Kd)>


>  <Ki (nM)>


>  <Assay (Ki)>


>  <IC50 (nM)>
0.6

>  <Assay (IC50)>
IC50 of ERRalpha was assessed by two-hybrid reporter assay

>  <EC50 (nM)>


>  <Assay (EC50)>


>  <Article DOI>
10.1021/jm101063h

>  <Molecular Weight>
420.368

>  <Exact Mass>
420.0391625

>  <XLogP3>
4.3

>  <Heavy Atom Count>
29

>  <Ring Count>
3

>  <Hydrogen Bond Acceptor Count>
6

>  <Hydrogen Bond Donor Count>
1

>  <Rotatable Bond Count>
4

>  <Topological Polar Surface Area>
88.42

>  <Molecular Formula>
C19H11F3N2O4S

>  <InChI>
InChI=1S/C19H11F3N2O4S/c1-27-15-7-10(8-16-17(25)24-18(26)29-16)2-5-14(15)28-13-4-3-11(9-23)6-12(13)19(20,21)22/h2-8H,1H3,(H,24,25,26)/b16-8-

>  <InChI Key>
OBBIOCQFTMNSJI-PXNMLYILSA-N

>  <BindingDB>
50336730

>  <PubChem>
46916268

>  <ChEMBL>
CHEMBL1671971

$$$$
52
Actelion Java MolfileCreator 2.0

  0  0  0  0  0  0              0 V3000
M  V30 BEGIN CTAB
M  V30 COUNTS 29 32 0 0 0
M  V30 BEGIN ATOM
M  V30 1 S 1.299 0.0 0.0 0
M  V30 2 O 0.549 -1.299 0.0 0
M  V30 3 O -0.2009 0.0 0.0 0
M  V30 4 C 2.598 -0.75 0.0 0
M  V30 5 C 1.299 1.5 0.0 0
M  V30 6 C 2.598 -2.25 0.0 0
M  V30 7 C 3.8971 0.0 0.0 0
M  V30 8 C 2.799 1.5 0.0 0
M  V30 9 C 1.299 3.0 0.0 0
M  V30 10 C -0.2009 1.5 0.0 0
M  V30 11 O 1.299 -3.0 0.0 0
M  V30 12 C 3.8971 -3.0 0.0 0
M  V30 13 C 5.1961 -0.75 0.0 0
M  V30 14 C 1.299 -4.5 0.0 0
M  V30 15 C 5.1961 -2.25 0.0 0
M  V30 16 C 6.4951 0.0 0.0 0
M  V30 17 N 6.4951 -3.0 0.0 0
M  V30 18 N 6.4951 1.5 0.0 0
M  V30 19 C 7.7942 -0.75 0.0 0
M  V30 20 C 7.7942 -2.25 0.0 0
M  V30 21 C 7.7942 2.25 0.0 0
M  V30 22 C 7.7942 3.75 0.0 0
M  V30 23 C 9.0932 1.5 0.0 0
M  V30 24 C 9.0932 4.5 0.0 0
M  V30 25 C 10.3923 2.25 0.0 0
M  V30 26 N 9.4051 5.9672 0.0 0
M  V30 27 C 10.3923 3.75 0.0 0
M  V30 28 C 10.8969 6.124 0.0 0
M  V30 29 S 11.507 4.7537 0.0 0
M  V30 END ATOM
M  V30 BEGIN BOND
M  V30 1 2 1 2
M  V30 2 2 1 3
M  V30 3 1 1 4
M  V30 4 1 1 5
M  V30 5 1 4 6
M  V30 6 2 4 7
M  V30 7 1 5 8
M  V30 8 1 5 9
M  V30 9 1 5 10
M  V30 10 1 6 11
M  V30 11 2 6 12
M  V30 12 1 7 13
M  V30 13 1 11 14
M  V30 14 1 12 15
M  V30 15 2 13 16
M  V30 16 2 15 17
M  V30 17 1 16 18
M  V30 18 1 16 19
M  V30 19 1 17 20
M  V30 20 1 18 21
M  V30 21 2 21 22
M  V30 22 1 21 23
M  V30 23 1 22 24
M  V30 24 2 23 25
M  V30 25 1 24 26
M  V30 26 2 24 27
M  V30 27 2 26 28
M  V30 28 1 27 29
M  V30 29 1 13 15
M  V30 30 2 19 20
M  V30 31 1 25 27
M  V30 32 1 28 29
M  V30 END BOND
M  V30 END CTAB
M  END
>  <Molecule Name>
Compound 97

>  <Molecule Name 2>
Compound 97

>  <Compound ID>
52

>  <Name>


>  <Uniprot>
O43353

>  <Target>
RIPK2

>  <Smiles>
COC1=CC2=NC=CC(NC3=CC=C4SC=NC4=C3)=C2C=C1S(=O)(=O)C(C)(C)C

>  <Kd (nM)>


>  <Assay (Kd)>


>  <Ki (nM)>


>  <Assay (Ki)>


>  <IC50 (nM)>


>  <Assay (IC50)>


>  <EC50 (nM)>


>  <Assay (EC50)>


>  <Article DOI>
10.1038/nchembio.1858

>  <Molecular Weight>
427.551

>  <Exact Mass>
427.1024335

>  <XLogP3>
4.38

>  <Heavy Atom Count>
29

>  <Ring Count>
4

>  <Hydrogen Bond Acceptor Count>
7

>  <Hydrogen Bond Donor Count>
1

>  <Rotatable Bond Count>
4

>  <Topological Polar Surface Area>
81.18

>  <Molecular Formula>
C21H21N3O3S2

>  <InChI>
InChI=1S/C21H21N3O3S2/c1-21(2,3)29(25,26)20-10-14-15(7-8-22-16(14)11-18(20)27-4)24-13-5-6-19-17(9-13)23-12-28-19/h5-12H,1-4H3,(H,22,24)

>  <InChI Key>
QHDKGTSCQKHQIJ-UHFFFAOYSA-N

>  <BindingDB>


>  <PubChem>
60199431

>  <ChEMBL>


$$$$
53
Actelion Java MolfileCreator 2.0

  0  0  0  0  0  0              0 V3000
M  V30 BEGIN CTAB
M  V30 COUNTS 37 41 0 0 0
M  V30 BEGIN ATOM
M  V30 1 O 2.598 0.0 0.0 0
M  V30 2 C 1.732 -0.5 0.0 0
M  V30 3 N 0.866 0.0 0.0 0
M  V30 4 C 1.732 -1.5 0.0 0
M  V30 5 C 0.0 -0.5 0.0 0
M  V30 6 C 0.866 -1.9999 0.0 0
M  V30 7 C 2.598 -1.9999 0.0 0
M  V30 8 C -0.866 0.0 0.0 0
M  V30 9 C 0.0 -1.4999 0.0 0
M  V30 10 C 0.866 -2.9999 0.0 0
M  V30 11 C 2.598 -2.9999 0.0 0
M  V30 12 C -1.732 -0.4999 0.0 0
M  V30 13 C -0.866 -1.9999 0.0 0
M  V30 14 C 1.732 -3.4999 0.0 0
M  V30 15 N -2.598 0.0 0.0 0
M  V30 16 C -1.732 -1.4999 0.0 0
M  V30 17 C 1.732 -4.5 0.0 0
M  V30 18 C -3.4641 -0.4999 0.0 0
M  V30 19 C -2.598 -1.9999 0.0 0
M  V30 20 N 2.598 -4.9999 0.0 0
M  V30 21 N -4.3301 0.0 0.0 0
M  V30 22 N -3.4641 -1.4999 0.0 0
M  V30 23 C 2.598 -5.9999 0.0 0
M  V30 24 C 3.4641 -4.5 0.0 0
M  V30 25 C -5.1961 -0.4999 0.0 0
M  V30 26 C -4.3301 -1.9999 0.0 0
M  V30 27 C 3.4641 -6.4999 0.0 0
M  V30 28 C 4.3301 -5.0 0.0 0
M  V30 29 C -6.0621 0.0 0.0 0
M  V30 30 C -5.1961 -1.4999 0.0 0
M  V30 31 N 4.3301 -5.9999 0.0 0
M  V30 32 C -6.0621 1.0 0.0 0
M  V30 33 C -6.9282 -0.4999 0.0 0
M  V30 34 C 5.1961 -6.4999 0.0 0
M  V30 35 N -6.9282 1.5 0.0 0
M  V30 36 C -7.7942 0.0 0.0 0
M  V30 37 C -7.7942 1.0 0.0 0
M  V30 END ATOM
M  V30 BEGIN BOND
M  V30 1 2 1 2
M  V30 2 1 2 3
M  V30 3 1 2 4
M  V30 4 1 3 5
M  V30 5 2 4 6
M  V30 6 1 4 7
M  V30 7 2 5 8
M  V30 8 1 5 9
M  V30 9 1 6 10
M  V30 10 2 7 11
M  V30 11 1 8 12
M  V30 12 2 9 13
M  V30 13 2 10 14
M  V30 14 1 12 15
M  V30 15 2 12 16
M  V30 16 1 14 17
M  V30 17 1 15 18
M  V30 18 1 16 19
M  V30 19 1 17 20
M  V30 20 2 18 21
M  V30 21 1 18 22
M  V30 22 1 20 23
M  V30 23 1 20 24
M  V30 24 1 21 25
M  V30 25 2 22 26
M  V30 26 1 23 27
M  V30 27 1 24 28
M  V30 28 1 25 29
M  V30 29 2 25 30
M  V30 30 1 27 31
M  V30 31 2 29 32
M  V30 32 1 29 33
M  V30 33 1 31 34
M  V30 34 1 32 35
M  V30 35 2 33 36
M  V30 36 2 35 37
M  V30 37 1 11 14
M  V30 38 1 13 16
M  V30 39 1 26 30
M  V30 40 1 28 31
M  V30 41 1 36 37
M  V30 END BOND
M  V30 END CTAB
M  END
>  <Molecule Name>
Compound 98

>  <Molecule Name 2>
Compound 98

>  <Compound ID>
53

>  <Name>
imatinib

>  <Uniprot>


>  <Target>
BCR-ABL

>  <Smiles>
CC1=CC=C(NC(=O)C2=CC=C(CN3CCN(C)CC3)C=C2)C=C1NC1=NC=CC(C2=CC=CN=C2)=N1

>  <Kd (nM)>
0.86/36

>  <Assay (Kd)>
Kd of non-phosphorylated/phosphorylated ABL was assessed by KINOMEscan Assay

>  <Ki (nM)>


>  <Assay (Ki)>


>  <IC50 (nM)>


>  <Assay (IC50)>


>  <EC50 (nM)>


>  <Assay (EC50)>


>  <Article DOI>
10.1002/anie.201507634

>  <Molecular Weight>
493.615

>  <Exact Mass>
493.2590086

>  <XLogP3>
3.52

>  <Heavy Atom Count>
37

>  <Ring Count>
5

>  <Hydrogen Bond Acceptor Count>
7

>  <Hydrogen Bond Donor Count>
2

>  <Rotatable Bond Count>
7

>  <Topological Polar Surface Area>
86.28

>  <Molecular Formula>
C29H31N7O

>  <InChI>
InChI=1S/C29H31N7O/c1-21-5-10-25(18-27(21)34-29-31-13-11-26(33-29)24-4-3-12-30-19-24)32-28(37)23-8-6-22(7-9-23)20-36-16-14-35(2)15-17-36/h3-13,18-19H,14-17,20H2,1-2H3,(H,32,37)(H,31,33,34)

>  <InChI Key>
KTUFNOKKBVMGRW-UHFFFAOYSA-N

>  <BindingDB>
13530

>  <PubChem>
5291

>  <ChEMBL>
CHEMBL941

$$$$
54
Actelion Java MolfileCreator 2.0

  0  0  0  0  0  0              0 V3000
M  V30 BEGIN CTAB
M  V30 COUNTS 37 41 0 0 0
M  V30 BEGIN ATOM
M  V30 1 F 6.4951 -3.0 0.0 0
M  V30 2 C 5.1961 -2.25 0.0 0
M  V30 3 C 5.1961 -0.75 0.0 0
M  V30 4 C 3.8971 -2.9999 0.0 0
M  V30 5 N 3.8971 0.0 0.0 0
M  V30 6 C 6.4951 0.0 0.0 0
M  V30 7 N 2.598 -2.25 0.0 0
M  V30 8 C 2.598 -0.75 0.0 0
M  V30 9 C 7.7942 -0.75 0.0 0
M  V30 10 C 6.4951 1.4999 0.0 0
M  V30 11 N 1.299 0.0 0.0 0
M  V30 12 C 9.0932 0.0 0.0 0
M  V30 13 C 7.7942 2.25 0.0 0
M  V30 14 C 0.0 -0.75 0.0 0
M  V30 15 F 10.3923 -0.75 0.0 0
M  V30 16 C 9.0932 1.4999 0.0 0
M  V30 17 N 8.106 3.7172 0.0 0
M  V30 18 N -1.299 0.0 0.0 0
M  V30 19 C 0.0 -2.25 0.0 0
M  V30 20 N 10.2079 2.5036 0.0 0
M  V30 21 C 9.5978 3.874 0.0 0
M  V30 22 C 7.1024 4.8319 0.0 0
M  V30 23 C -2.598 -0.7499 0.0 0
M  V30 24 C -1.299 -2.9999 0.0 0
M  V30 25 C 10.3478 5.173 0.0 0
M  V30 26 C 7.5659 6.2585 0.0 0
M  V30 27 C 5.6351 4.52 0.0 0
M  V30 28 C -2.598 -2.2499 0.0 0
M  V30 29 C -3.8971 -2.9999 0.0 0
M  V30 30 N -3.8971 -4.4999 0.0 0
M  V30 31 C -5.1961 -5.2499 0.0 0
M  V30 32 C -2.598 -5.2499 0.0 0
M  V30 33 C -5.1961 -6.7499 0.0 0
M  V30 34 C -2.598 -6.7499 0.0 0
M  V30 35 N -3.8971 -7.4999 0.0 0
M  V30 36 C -3.8971 -9.0 0.0 0
M  V30 37 C -2.598 -9.75 0.0 0
M  V30 END ATOM
M  V30 BEGIN BOND
M  V30 1 1 1 2
M  V30 2 2 2 3
M  V30 3 1 2 4
M  V30 4 1 3 5
M  V30 5 1 3 6
M  V30 6 2 4 7
M  V30 7 2 5 8
M  V30 8 2 6 9
M  V30 9 1 6 10
M  V30 10 1 8 11
M  V30 11 1 9 12
M  V30 12 2 10 13
M  V30 13 1 11 14
M  V30 14 1 12 15
M  V30 15 2 12 16
M  V30 16 1 13 17
M  V30 17 2 14 18
M  V30 18 1 14 19
M  V30 19 1 16 20
M  V30 20 1 17 21
M  V30 21 1 17 22
M  V30 22 1 18 23
M  V30 23 2 19 24
M  V30 24 1 21 25
M  V30 25 1 22 26
M  V30 26 1 22 27
M  V30 27 2 23 28
M  V30 28 1 28 29
M  V30 29 1 29 30
M  V30 30 1 30 31
M  V30 31 1 30 32
M  V30 32 1 31 33
M  V30 33 1 32 34
M  V30 34 1 33 35
M  V30 35 1 35 36
M  V30 36 1 36 37
M  V30 37 1 7 8
M  V30 38 1 13 16
M  V30 39 2 20 21
M  V30 40 1 24 28
M  V30 41 1 34 35
M  V30 END BOND
M  V30 END CTAB
M  END
>  <Molecule Name>
Compound 100

>  <Molecule Name 2>
Compound 100

>  <Compound ID>
54

>  <Name>
Abemaciclib

>  <Uniprot>
Q00534

>  <Target>
CDK6

>  <Smiles>
CCN1CCN(CC2=CC=C(NC3=NC=C(F)C(C4=CC(F)=C5N=C(C)N(C(C)C)C5=C4)=N3)N=C2)CC1

>  <Kd (nM)>


>  <Assay (Kd)>


>  <Ki (nM)>
2.4

>  <Assay (Ki)>
Ki of CDK6/cyclinD1 was measured by the phosphorylation of CTRF using ATP

>  <IC50 (nM)>
9.9

>  <Assay (IC50)>
IC50 of human CDK6/cyclin D1 expressed in insect cells was assessed by microplate scintillation counter

>  <EC50 (nM)>


>  <Assay (EC50)>


>  <Article DOI>
10.1007/s10637-014-0120-7

>  <Molecular Weight>
506.605

>  <Exact Mass>
506.2717995

>  <XLogP3>
3.84

>  <Heavy Atom Count>
37

>  <Ring Count>
5

>  <Hydrogen Bond Acceptor Count>
8

>  <Hydrogen Bond Donor Count>
1

>  <Rotatable Bond Count>
7

>  <Topological Polar Surface Area>
75

>  <Molecular Formula>
C27H32F2N8

>  <InChI>
InChI=1S/C27H32F2N8/c1-5-35-8-10-36(11-9-35)16-19-6-7-24(30-14-19)33-27-31-15-22(29)25(34-27)20-12-21(28)26-23(13-20)37(17(2)3)18(4)32-26/h6-7,12-15,17H,5,8-11,16H2,1-4H3,(H,30,31,33,34)

>  <InChI Key>
UZWDCWONPYILKI-UHFFFAOYSA-N

>  <BindingDB>
50110183

>  <PubChem>
46220502

>  <ChEMBL>
CHEMBL3301610

$$$$
54
Actelion Java MolfileCreator 2.0

  0  0  0  0  0  0              0 V3000
M  V30 BEGIN CTAB
M  V30 COUNTS 37 41 0 0 0
M  V30 BEGIN ATOM
M  V30 1 F 6.4951 -3.0 0.0 0
M  V30 2 C 5.1961 -2.25 0.0 0
M  V30 3 C 5.1961 -0.75 0.0 0
M  V30 4 C 3.8971 -2.9999 0.0 0
M  V30 5 N 3.8971 0.0 0.0 0
M  V30 6 C 6.4951 0.0 0.0 0
M  V30 7 N 2.598 -2.25 0.0 0
M  V30 8 C 2.598 -0.75 0.0 0
M  V30 9 C 7.7942 -0.75 0.0 0
M  V30 10 C 6.4951 1.4999 0.0 0
M  V30 11 N 1.299 0.0 0.0 0
M  V30 12 C 9.0932 0.0 0.0 0
M  V30 13 C 7.7942 2.25 0.0 0
M  V30 14 C 0.0 -0.75 0.0 0
M  V30 15 F 10.3923 -0.75 0.0 0
M  V30 16 C 9.0932 1.4999 0.0 0
M  V30 17 N 8.106 3.7172 0.0 0
M  V30 18 N -1.299 0.0 0.0 0
M  V30 19 C 0.0 -2.25 0.0 0
M  V30 20 N 10.2079 2.5036 0.0 0
M  V30 21 C 9.5978 3.874 0.0 0
M  V30 22 C 7.1024 4.8319 0.0 0
M  V30 23 C -2.598 -0.7499 0.0 0
M  V30 24 C -1.299 -2.9999 0.0 0
M  V30 25 C 10.3478 5.173 0.0 0
M  V30 26 C 7.5659 6.2585 0.0 0
M  V30 27 C 5.6351 4.52 0.0 0
M  V30 28 C -2.598 -2.2499 0.0 0
M  V30 29 C -3.8971 -2.9999 0.0 0
M  V30 30 N -3.8971 -4.4999 0.0 0
M  V30 31 C -5.1961 -5.2499 0.0 0
M  V30 32 C -2.598 -5.2499 0.0 0
M  V30 33 C -5.1961 -6.7499 0.0 0
M  V30 34 C -2.598 -6.7499 0.0 0
M  V30 35 N -3.8971 -7.4999 0.0 0
M  V30 36 C -3.8971 -9.0 0.0 0
M  V30 37 C -2.598 -9.75 0.0 0
M  V30 END ATOM
M  V30 BEGIN BOND
M  V30 1 1 1 2
M  V30 2 2 2 3
M  V30 3 1 2 4
M  V30 4 1 3 5
M  V30 5 1 3 6
M  V30 6 2 4 7
M  V30 7 2 5 8
M  V30 8 2 6 9
M  V30 9 1 6 10
M  V30 10 1 8 11
M  V30 11 1 9 12
M  V30 12 2 10 13
M  V30 13 1 11 14
M  V30 14 1 12 15
M  V30 15 2 12 16
M  V30 16 1 13 17
M  V30 17 2 14 18
M  V30 18 1 14 19
M  V30 19 1 16 20
M  V30 20 1 17 21
M  V30 21 1 17 22
M  V30 22 1 18 23
M  V30 23 2 19 24
M  V30 24 1 21 25
M  V30 25 1 22 26
M  V30 26 1 22 27
M  V30 27 2 23 28
M  V30 28 1 28 29
M  V30 29 1 29 30
M  V30 30 1 30 31
M  V30 31 1 30 32
M  V30 32 1 31 33
M  V30 33 1 32 34
M  V30 34 1 33 35
M  V30 35 1 35 36
M  V30 36 1 36 37
M  V30 37 1 7 8
M  V30 38 1 13 16
M  V30 39 2 20 21
M  V30 40 1 24 28
M  V30 41 1 34 35
M  V30 END BOND
M  V30 END CTAB
M  END
>  <Molecule Name>
Compound 99

>  <Molecule Name 2>
Compound 99

>  <Compound ID>
54

>  <Name>
Abemaciclib

>  <Uniprot>
P11802

>  <Target>
CDK4

>  <Smiles>
CCN1CCN(CC2=CC=C(NC3=NC=C(F)C(C4=CC(F)=C5N=C(C)N(C(C)C)C5=C4)=N3)N=C2)CC1

>  <Kd (nM)>


>  <Assay (Kd)>


>  <Ki (nM)>
0.6

>  <Assay (Ki)>
Ki of CDK4/cyclinD1 was measured by the phosphorylation of CTRF using ATP

>  <IC50 (nM)>
2

>  <Assay (IC50)>
IC50 of human CDK4/cyclin D1 expressed in insect cells was assessed by microplate scintillation counter

>  <EC50 (nM)>


>  <Assay (EC50)>


>  <Article DOI>
10.1007/s10637-014-0120-7

>  <Molecular Weight>
506.605

>  <Exact Mass>
506.2717995

>  <XLogP3>
3.84

>  <Heavy Atom Count>
37

>  <Ring Count>
5

>  <Hydrogen Bond Acceptor Count>
8

>  <Hydrogen Bond Donor Count>
1

>  <Rotatable Bond Count>
7

>  <Topological Polar Surface Area>
75

>  <Molecular Formula>
C27H32F2N8

>  <InChI>
InChI=1S/C27H32F2N8/c1-5-35-8-10-36(11-9-35)16-19-6-7-24(30-14-19)33-27-31-15-22(29)25(34-27)20-12-21(28)26-23(13-20)37(17(2)3)18(4)32-26/h6-7,12-15,17H,5,8-11,16H2,1-4H3,(H,30,31,33,34)

>  <InChI Key>
UZWDCWONPYILKI-UHFFFAOYSA-N

>  <BindingDB>
50110183

>  <PubChem>
46220502

>  <ChEMBL>
CHEMBL3301610

$$$$
55
Actelion Java MolfileCreator 2.0

  0  0  0  0  0  0              0 V3000
M  V30 BEGIN CTAB
M  V30 COUNTS 32 36 0 0 0
M  V30 BEGIN ATOM
M  V30 1 O 0.866 0.0 0.0 0
M  V30 2 C 1.732 -0.5 0.0 0
M  V30 3 N 2.598 0.0 0.0 0
M  V30 4 C 1.732 -1.5 0.0 0
M  V30 5 C 2.598 1.0 0.0 0
M  V30 6 C 3.4641 -0.4999 0.0 0
M  V30 7 N 0.923 -2.0877 0.0 0
M  V30 8 C 2.541 -2.0877 0.0 0
M  V30 9 C 1.232 -3.0388 0.0 0
M  V30 10 C -0.028 -1.7787 0.0 0
M  V30 11 C 2.232 -3.0388 0.0 0
M  V30 12 N 0.732 -3.9048 0.0 0
M  V30 13 C -0.337 -0.8277 0.0 0
M  V30 14 C -0.837 -2.3665 0.0 0
M  V30 15 C 2.732 -3.9048 0.0 0
M  V30 16 C 1.232 -4.7708 0.0 0
M  V30 17 C -1.337 -0.8277 0.0 0
M  V30 18 C -1.646 -1.7787 0.0 0
M  V30 19 N 2.232 -4.7708 0.0 0
M  V30 20 N 0.732 -5.6369 0.0 0
M  V30 21 C 1.232 -6.5029 0.0 0
M  V30 22 N 0.732 -7.3689 0.0 0
M  V30 23 C 2.232 -6.5029 0.0 0
M  V30 24 C 1.232 -8.2349 0.0 0
M  V30 25 C 2.732 -7.3689 0.0 0
M  V30 26 C 2.232 -8.2349 0.0 0
M  V30 27 N 2.732 -9.101 0.0 0
M  V30 28 C 2.232 -9.967 0.0 0
M  V30 29 C 3.732 -9.101 0.0 0
M  V30 30 C 2.732 -10.833 0.0 0
M  V30 31 C 4.232 -9.967 0.0 0
M  V30 32 N 3.732 -10.833 0.0 0
M  V30 END ATOM
M  V30 BEGIN BOND
M  V30 1 2 1 2
M  V30 2 1 2 3
M  V30 3 1 2 4
M  V30 4 1 3 5
M  V30 5 1 3 6
M  V30 6 1 4 7
M  V30 7 2 4 8
M  V30 8 1 7 9
M  V30 9 1 7 10
M  V30 10 1 8 11
M  V30 11 1 9 12
M  V30 12 1 10 13
M  V30 13 1 10 14
M  V30 14 1 11 15
M  V30 15 2 12 16
M  V30 16 1 13 17
M  V30 17 1 14 18
M  V30 18 2 15 19
M  V30 19 1 16 20
M  V30 20 1 20 21
M  V30 21 2 21 22
M  V30 22 1 21 23
M  V30 23 1 22 24
M  V30 24 2 23 25
M  V30 25 2 24 26
M  V30 26 1 26 27
M  V30 27 1 27 28
M  V30 28 1 27 29
M  V30 29 1 28 30
M  V30 30 1 29 31
M  V30 31 1 30 32
M  V30 32 2 9 11
M  V30 33 1 16 19
M  V30 34 1 17 18
M  V30 35 1 25 26
M  V30 36 1 31 32
M  V30 END BOND
M  V30 END CTAB
M  END
>  <Molecule Name>
Compound 101

>  <Molecule Name 2>
Compound 101

>  <Compound ID>
55

>  <Name>
Ribociclib

>  <Uniprot>
O14874

>  <Target>
BCKDK

>  <Smiles>
CN(C)C(=O)C1=CC2=CN=C(NC3=CC=C(N4CCNCC4)C=N3)N=C2N1C1CCCC1

>  <Kd (nM)>


>  <Assay (Kd)>


>  <Ki (nM)>


>  <Assay (Ki)>


>  <IC50 (nM)>


>  <Assay (IC50)>


>  <EC50 (nM)>


>  <Assay (EC50)>


>  <Article DOI>
10.1016/j.cell.2020.10.038

>  <Molecular Weight>
434.548

>  <Exact Mass>
434.2542576

>  <XLogP3>
2.19

>  <Heavy Atom Count>
32

>  <Ring Count>
5

>  <Hydrogen Bond Acceptor Count>
8

>  <Hydrogen Bond Donor Count>
2

>  <Rotatable Bond Count>
5

>  <Topological Polar Surface Area>
91.21

>  <Molecular Formula>
C23H30N8O

>  <InChI>
InChI=1S/C23H30N8O/c1-29(2)22(32)19-13-16-14-26-23(28-21(16)31(19)17-5-3-4-6-17)27-20-8-7-18(15-25-20)30-11-9-24-10-12-30/h7-8,13-15,17,24H,3-6,9-12H2,1-2H3,(H,25,26,27,28)

>  <InChI Key>
RHXHGRAEPCAFML-UHFFFAOYSA-N

>  <BindingDB>
148264

>  <PubChem>
44631912

>  <ChEMBL>
CHEMBL3545110

$$$$
55
Actelion Java MolfileCreator 2.0

  0  0  0  0  0  0              0 V3000
M  V30 BEGIN CTAB
M  V30 COUNTS 32 36 0 0 0
M  V30 BEGIN ATOM
M  V30 1 O 0.866 0.0 0.0 0
M  V30 2 C 1.732 -0.5 0.0 0
M  V30 3 N 2.598 0.0 0.0 0
M  V30 4 C 1.732 -1.5 0.0 0
M  V30 5 C 2.598 1.0 0.0 0
M  V30 6 C 3.4641 -0.4999 0.0 0
M  V30 7 N 0.923 -2.0877 0.0 0
M  V30 8 C 2.541 -2.0877 0.0 0
M  V30 9 C 1.232 -3.0388 0.0 0
M  V30 10 C -0.028 -1.7787 0.0 0
M  V30 11 C 2.232 -3.0388 0.0 0
M  V30 12 N 0.732 -3.9048 0.0 0
M  V30 13 C -0.337 -0.8277 0.0 0
M  V30 14 C -0.837 -2.3665 0.0 0
M  V30 15 C 2.732 -3.9048 0.0 0
M  V30 16 C 1.232 -4.7708 0.0 0
M  V30 17 C -1.337 -0.8277 0.0 0
M  V30 18 C -1.646 -1.7787 0.0 0
M  V30 19 N 2.232 -4.7708 0.0 0
M  V30 20 N 0.732 -5.6369 0.0 0
M  V30 21 C 1.232 -6.5029 0.0 0
M  V30 22 N 0.732 -7.3689 0.0 0
M  V30 23 C 2.232 -6.5029 0.0 0
M  V30 24 C 1.232 -8.2349 0.0 0
M  V30 25 C 2.732 -7.3689 0.0 0
M  V30 26 C 2.232 -8.2349 0.0 0
M  V30 27 N 2.732 -9.101 0.0 0
M  V30 28 C 2.232 -9.967 0.0 0
M  V30 29 C 3.732 -9.101 0.0 0
M  V30 30 C 2.732 -10.833 0.0 0
M  V30 31 C 4.232 -9.967 0.0 0
M  V30 32 N 3.732 -10.833 0.0 0
M  V30 END ATOM
M  V30 BEGIN BOND
M  V30 1 2 1 2
M  V30 2 1 2 3
M  V30 3 1 2 4
M  V30 4 1 3 5
M  V30 5 1 3 6
M  V30 6 1 4 7
M  V30 7 2 4 8
M  V30 8 1 7 9
M  V30 9 1 7 10
M  V30 10 1 8 11
M  V30 11 1 9 12
M  V30 12 1 10 13
M  V30 13 1 10 14
M  V30 14 1 11 15
M  V30 15 2 12 16
M  V30 16 1 13 17
M  V30 17 1 14 18
M  V30 18 2 15 19
M  V30 19 1 16 20
M  V30 20 1 20 21
M  V30 21 2 21 22
M  V30 22 1 21 23
M  V30 23 1 22 24
M  V30 24 2 23 25
M  V30 25 2 24 26
M  V30 26 1 26 27
M  V30 27 1 27 28
M  V30 28 1 27 29
M  V30 29 1 28 30
M  V30 30 1 29 31
M  V30 31 1 30 32
M  V30 32 2 9 11
M  V30 33 1 16 19
M  V30 34 1 17 18
M  V30 35 1 25 26
M  V30 36 1 31 32
M  V30 END BOND
M  V30 END CTAB
M  END
>  <Molecule Name>
Compound 102

>  <Molecule Name 2>
Compound 102

>  <Compound ID>
55

>  <Name>
Ribociclib

>  <Uniprot>
P11802

>  <Target>
CDK4

>  <Smiles>
CN(C)C(=O)C1=CC2=CN=C(NC3=CC=C(N4CCNCC4)C=N3)N=C2N1C1CCCC1

>  <Kd (nM)>


>  <Assay (Kd)>


>  <Ki (nM)>


>  <Assay (Ki)>


>  <IC50 (nM)>
10

>  <Assay (IC50)>
IC50 of CDK4

>  <EC50 (nM)>


>  <Assay (EC50)>


>  <Article DOI>
10.1016/j.bmcl.2015.05.100

>  <Molecular Weight>
434.548

>  <Exact Mass>
434.2542576

>  <XLogP3>
2.19

>  <Heavy Atom Count>
32

>  <Ring Count>
5

>  <Hydrogen Bond Acceptor Count>
8

>  <Hydrogen Bond Donor Count>
2

>  <Rotatable Bond Count>
5

>  <Topological Polar Surface Area>
91.21

>  <Molecular Formula>
C23H30N8O

>  <InChI>
InChI=1S/C23H30N8O/c1-29(2)22(32)19-13-16-14-26-23(28-21(16)31(19)17-5-3-4-6-17)27-20-8-7-18(15-25-20)30-11-9-24-10-12-30/h7-8,13-15,17,24H,3-6,9-12H2,1-2H3,(H,25,26,27,28)

>  <InChI Key>
RHXHGRAEPCAFML-UHFFFAOYSA-N

>  <BindingDB>
148264

>  <PubChem>
44631912

>  <ChEMBL>
CHEMBL3545110

$$$$
55
Actelion Java MolfileCreator 2.0

  0  0  0  0  0  0              0 V3000
M  V30 BEGIN CTAB
M  V30 COUNTS 32 36 0 0 0
M  V30 BEGIN ATOM
M  V30 1 O 0.866 0.0 0.0 0
M  V30 2 C 1.732 -0.5 0.0 0
M  V30 3 N 2.598 0.0 0.0 0
M  V30 4 C 1.732 -1.5 0.0 0
M  V30 5 C 2.598 1.0 0.0 0
M  V30 6 C 3.4641 -0.4999 0.0 0
M  V30 7 N 0.923 -2.0877 0.0 0
M  V30 8 C 2.541 -2.0877 0.0 0
M  V30 9 C 1.232 -3.0388 0.0 0
M  V30 10 C -0.028 -1.7787 0.0 0
M  V30 11 C 2.232 -3.0388 0.0 0
M  V30 12 N 0.732 -3.9048 0.0 0
M  V30 13 C -0.337 -0.8277 0.0 0
M  V30 14 C -0.837 -2.3665 0.0 0
M  V30 15 C 2.732 -3.9048 0.0 0
M  V30 16 C 1.232 -4.7708 0.0 0
M  V30 17 C -1.337 -0.8277 0.0 0
M  V30 18 C -1.646 -1.7787 0.0 0
M  V30 19 N 2.232 -4.7708 0.0 0
M  V30 20 N 0.732 -5.6369 0.0 0
M  V30 21 C 1.232 -6.5029 0.0 0
M  V30 22 N 0.732 -7.3689 0.0 0
M  V30 23 C 2.232 -6.5029 0.0 0
M  V30 24 C 1.232 -8.2349 0.0 0
M  V30 25 C 2.732 -7.3689 0.0 0
M  V30 26 C 2.232 -8.2349 0.0 0
M  V30 27 N 2.732 -9.101 0.0 0
M  V30 28 C 2.232 -9.967 0.0 0
M  V30 29 C 3.732 -9.101 0.0 0
M  V30 30 C 2.732 -10.833 0.0 0
M  V30 31 C 4.232 -9.967 0.0 0
M  V30 32 N 3.732 -10.833 0.0 0
M  V30 END ATOM
M  V30 BEGIN BOND
M  V30 1 2 1 2
M  V30 2 1 2 3
M  V30 3 1 2 4
M  V30 4 1 3 5
M  V30 5 1 3 6
M  V30 6 1 4 7
M  V30 7 2 4 8
M  V30 8 1 7 9
M  V30 9 1 7 10
M  V30 10 1 8 11
M  V30 11 1 9 12
M  V30 12 1 10 13
M  V30 13 1 10 14
M  V30 14 1 11 15
M  V30 15 2 12 16
M  V30 16 1 13 17
M  V30 17 1 14 18
M  V30 18 2 15 19
M  V30 19 1 16 20
M  V30 20 1 20 21
M  V30 21 2 21 22
M  V30 22 1 21 23
M  V30 23 1 22 24
M  V30 24 2 23 25
M  V30 25 2 24 26
M  V30 26 1 26 27
M  V30 27 1 27 28
M  V30 28 1 27 29
M  V30 29 1 28 30
M  V30 30 1 29 31
M  V30 31 1 30 32
M  V30 32 2 9 11
M  V30 33 1 16 19
M  V30 34 1 17 18
M  V30 35 1 25 26
M  V30 36 1 31 32
M  V30 END BOND
M  V30 END CTAB
M  END
>  <Molecule Name>
Compound 103

>  <Molecule Name 2>
Compound 103

>  <Compound ID>
55

>  <Name>
Ribociclib

>  <Uniprot>
Q00534

>  <Target>
CDK6

>  <Smiles>
CN(C)C(=O)C1=CC2=CN=C(NC3=CC=C(N4CCNCC4)C=N3)N=C2N1C1CCCC1

>  <Kd (nM)>


>  <Assay (Kd)>


>  <Ki (nM)>


>  <Assay (Ki)>


>  <IC50 (nM)>
39

>  <Assay (IC50)>
IC50 of CDK6

>  <EC50 (nM)>


>  <Assay (EC50)>


>  <Article DOI>
10.1016/j.bmcl.2015.05.100

>  <Molecular Weight>
434.548

>  <Exact Mass>
434.2542576

>  <XLogP3>
2.19

>  <Heavy Atom Count>
32

>  <Ring Count>
5

>  <Hydrogen Bond Acceptor Count>
8

>  <Hydrogen Bond Donor Count>
2

>  <Rotatable Bond Count>
5

>  <Topological Polar Surface Area>
91.21

>  <Molecular Formula>
C23H30N8O

>  <InChI>
InChI=1S/C23H30N8O/c1-29(2)22(32)19-13-16-14-26-23(28-21(16)31(19)17-5-3-4-6-17)27-20-8-7-18(15-25-20)30-11-9-24-10-12-30/h7-8,13-15,17,24H,3-6,9-12H2,1-2H3,(H,25,26,27,28)

>  <InChI Key>
RHXHGRAEPCAFML-UHFFFAOYSA-N

>  <BindingDB>
148264

>  <PubChem>
44631912

>  <ChEMBL>
CHEMBL3545110

$$$$
55
Actelion Java MolfileCreator 2.0

  0  0  0  0  0  0              0 V3000
M  V30 BEGIN CTAB
M  V30 COUNTS 32 36 0 0 0
M  V30 BEGIN ATOM
M  V30 1 O 0.866 0.0 0.0 0
M  V30 2 C 1.732 -0.5 0.0 0
M  V30 3 N 2.598 0.0 0.0 0
M  V30 4 C 1.732 -1.5 0.0 0
M  V30 5 C 2.598 1.0 0.0 0
M  V30 6 C 3.4641 -0.4999 0.0 0
M  V30 7 N 0.923 -2.0877 0.0 0
M  V30 8 C 2.541 -2.0877 0.0 0
M  V30 9 C 1.232 -3.0388 0.0 0
M  V30 10 C -0.028 -1.7787 0.0 0
M  V30 11 C 2.232 -3.0388 0.0 0
M  V30 12 N 0.732 -3.9048 0.0 0
M  V30 13 C -0.337 -0.8277 0.0 0
M  V30 14 C -0.837 -2.3665 0.0 0
M  V30 15 C 2.732 -3.9048 0.0 0
M  V30 16 C 1.232 -4.7708 0.0 0
M  V30 17 C -1.337 -0.8277 0.0 0
M  V30 18 C -1.646 -1.7787 0.0 0
M  V30 19 N 2.232 -4.7708 0.0 0
M  V30 20 N 0.732 -5.6369 0.0 0
M  V30 21 C 1.232 -6.5029 0.0 0
M  V30 22 N 0.732 -7.3689 0.0 0
M  V30 23 C 2.232 -6.5029 0.0 0
M  V30 24 C 1.232 -8.2349 0.0 0
M  V30 25 C 2.732 -7.3689 0.0 0
M  V30 26 C 2.232 -8.2349 0.0 0
M  V30 27 N 2.732 -9.101 0.0 0
M  V30 28 C 2.232 -9.967 0.0 0
M  V30 29 C 3.732 -9.101 0.0 0
M  V30 30 C 2.732 -10.833 0.0 0
M  V30 31 C 4.232 -9.967 0.0 0
M  V30 32 N 3.732 -10.833 0.0 0
M  V30 END ATOM
M  V30 BEGIN BOND
M  V30 1 2 1 2
M  V30 2 1 2 3
M  V30 3 1 2 4
M  V30 4 1 3 5
M  V30 5 1 3 6
M  V30 6 1 4 7
M  V30 7 2 4 8
M  V30 8 1 7 9
M  V30 9 1 7 10
M  V30 10 1 8 11
M  V30 11 1 9 12
M  V30 12 1 10 13
M  V30 13 1 10 14
M  V30 14 1 11 15
M  V30 15 2 12 16
M  V30 16 1 13 17
M  V30 17 1 14 18
M  V30 18 2 15 19
M  V30 19 1 16 20
M  V30 20 1 20 21
M  V30 21 2 21 22
M  V30 22 1 21 23
M  V30 23 1 22 24
M  V30 24 2 23 25
M  V30 25 2 24 26
M  V30 26 1 26 27
M  V30 27 1 27 28
M  V30 28 1 27 29
M  V30 29 1 28 30
M  V30 30 1 29 31
M  V30 31 1 30 32
M  V30 32 2 9 11
M  V30 33 1 16 19
M  V30 34 1 17 18
M  V30 35 1 25 26
M  V30 36 1 31 32
M  V30 END BOND
M  V30 END CTAB
M  END
>  <Molecule Name>
Compound 104

>  <Molecule Name 2>
Compound 104

>  <Compound ID>
55

>  <Name>
Ribociclib

>  <Uniprot>
Q8NI60

>  <Target>
COQ8A

>  <Smiles>
CN(C)C(=O)C1=CC2=CN=C(NC3=CC=C(N4CCNCC4)C=N3)N=C2N1C1CCCC1

>  <Kd (nM)>


>  <Assay (Kd)>


>  <Ki (nM)>


>  <Assay (Ki)>


>  <IC50 (nM)>


>  <Assay (IC50)>


>  <EC50 (nM)>


>  <Assay (EC50)>


>  <Article DOI>
10.1016/j.cell.2020.10.038

>  <Molecular Weight>
434.548

>  <Exact Mass>
434.2542576

>  <XLogP3>
2.19

>  <Heavy Atom Count>
32

>  <Ring Count>
5

>  <Hydrogen Bond Acceptor Count>
8

>  <Hydrogen Bond Donor Count>
2

>  <Rotatable Bond Count>
5

>  <Topological Polar Surface Area>
91.21

>  <Molecular Formula>
C23H30N8O

>  <InChI>
InChI=1S/C23H30N8O/c1-29(2)22(32)19-13-16-14-26-23(28-21(16)31(19)17-5-3-4-6-17)27-20-8-7-18(15-25-20)30-11-9-24-10-12-30/h7-8,13-15,17,24H,3-6,9-12H2,1-2H3,(H,25,26,27,28)

>  <InChI Key>
RHXHGRAEPCAFML-UHFFFAOYSA-N

>  <BindingDB>
148264

>  <PubChem>
44631912

>  <ChEMBL>
CHEMBL3545110

$$$$
55
Actelion Java MolfileCreator 2.0

  0  0  0  0  0  0              0 V3000
M  V30 BEGIN CTAB
M  V30 COUNTS 32 36 0 0 0
M  V30 BEGIN ATOM
M  V30 1 O 0.866 0.0 0.0 0
M  V30 2 C 1.732 -0.5 0.0 0
M  V30 3 N 2.598 0.0 0.0 0
M  V30 4 C 1.732 -1.5 0.0 0
M  V30 5 C 2.598 1.0 0.0 0
M  V30 6 C 3.4641 -0.4999 0.0 0
M  V30 7 N 0.923 -2.0877 0.0 0
M  V30 8 C 2.541 -2.0877 0.0 0
M  V30 9 C 1.232 -3.0388 0.0 0
M  V30 10 C -0.028 -1.7787 0.0 0
M  V30 11 C 2.232 -3.0388 0.0 0
M  V30 12 N 0.732 -3.9048 0.0 0
M  V30 13 C -0.337 -0.8277 0.0 0
M  V30 14 C -0.837 -2.3665 0.0 0
M  V30 15 C 2.732 -3.9048 0.0 0
M  V30 16 C 1.232 -4.7708 0.0 0
M  V30 17 C -1.337 -0.8277 0.0 0
M  V30 18 C -1.646 -1.7787 0.0 0
M  V30 19 N 2.232 -4.7708 0.0 0
M  V30 20 N 0.732 -5.6369 0.0 0
M  V30 21 C 1.232 -6.5029 0.0 0
M  V30 22 N 0.732 -7.3689 0.0 0
M  V30 23 C 2.232 -6.5029 0.0 0
M  V30 24 C 1.232 -8.2349 0.0 0
M  V30 25 C 2.732 -7.3689 0.0 0
M  V30 26 C 2.232 -8.2349 0.0 0
M  V30 27 N 2.732 -9.101 0.0 0
M  V30 28 C 2.232 -9.967 0.0 0
M  V30 29 C 3.732 -9.101 0.0 0
M  V30 30 C 2.732 -10.833 0.0 0
M  V30 31 C 4.232 -9.967 0.0 0
M  V30 32 N 3.732 -10.833 0.0 0
M  V30 END ATOM
M  V30 BEGIN BOND
M  V30 1 2 1 2
M  V30 2 1 2 3
M  V30 3 1 2 4
M  V30 4 1 3 5
M  V30 5 1 3 6
M  V30 6 1 4 7
M  V30 7 2 4 8
M  V30 8 1 7 9
M  V30 9 1 7 10
M  V30 10 1 8 11
M  V30 11 1 9 12
M  V30 12 1 10 13
M  V30 13 1 10 14
M  V30 14 1 11 15
M  V30 15 2 12 16
M  V30 16 1 13 17
M  V30 17 1 14 18
M  V30 18 2 15 19
M  V30 19 1 16 20
M  V30 20 1 20 21
M  V30 21 2 21 22
M  V30 22 1 21 23
M  V30 23 1 22 24
M  V30 24 2 23 25
M  V30 25 2 24 26
M  V30 26 1 26 27
M  V30 27 1 27 28
M  V30 28 1 27 29
M  V30 29 1 28 30
M  V30 30 1 29 31
M  V30 31 1 30 32
M  V30 32 2 9 11
M  V30 33 1 16 19
M  V30 34 1 17 18
M  V30 35 1 25 26
M  V30 36 1 31 32
M  V30 END BOND
M  V30 END CTAB
M  END
>  <Molecule Name>
Compound 105

>  <Molecule Name 2>
Compound 105

>  <Compound ID>
55

>  <Name>
Ribociclib

>  <Uniprot>
Q15118

>  <Target>
PDK1

>  <Smiles>
CN(C)C(=O)C1=CC2=CN=C(NC3=CC=C(N4CCNCC4)C=N3)N=C2N1C1CCCC1

>  <Kd (nM)>


>  <Assay (Kd)>


>  <Ki (nM)>


>  <Assay (Ki)>


>  <IC50 (nM)>


>  <Assay (IC50)>


>  <EC50 (nM)>


>  <Assay (EC50)>


>  <Article DOI>
10.1016/j.cell.2020.10.038

>  <Molecular Weight>
434.548

>  <Exact Mass>
434.2542576

>  <XLogP3>
2.19

>  <Heavy Atom Count>
32

>  <Ring Count>
5

>  <Hydrogen Bond Acceptor Count>
8

>  <Hydrogen Bond Donor Count>
2

>  <Rotatable Bond Count>
5

>  <Topological Polar Surface Area>
91.21

>  <Molecular Formula>
C23H30N8O

>  <InChI>
InChI=1S/C23H30N8O/c1-29(2)22(32)19-13-16-14-26-23(28-21(16)31(19)17-5-3-4-6-17)27-20-8-7-18(15-25-20)30-11-9-24-10-12-30/h7-8,13-15,17,24H,3-6,9-12H2,1-2H3,(H,25,26,27,28)

>  <InChI Key>
RHXHGRAEPCAFML-UHFFFAOYSA-N

>  <BindingDB>
148264

>  <PubChem>
44631912

>  <ChEMBL>
CHEMBL3545110

$$$$
55
Actelion Java MolfileCreator 2.0

  0  0  0  0  0  0              0 V3000
M  V30 BEGIN CTAB
M  V30 COUNTS 32 36 0 0 0
M  V30 BEGIN ATOM
M  V30 1 O 0.866 0.0 0.0 0
M  V30 2 C 1.732 -0.5 0.0 0
M  V30 3 N 2.598 0.0 0.0 0
M  V30 4 C 1.732 -1.5 0.0 0
M  V30 5 C 2.598 1.0 0.0 0
M  V30 6 C 3.4641 -0.4999 0.0 0
M  V30 7 N 0.923 -2.0877 0.0 0
M  V30 8 C 2.541 -2.0877 0.0 0
M  V30 9 C 1.232 -3.0388 0.0 0
M  V30 10 C -0.028 -1.7787 0.0 0
M  V30 11 C 2.232 -3.0388 0.0 0
M  V30 12 N 0.732 -3.9048 0.0 0
M  V30 13 C -0.337 -0.8277 0.0 0
M  V30 14 C -0.837 -2.3665 0.0 0
M  V30 15 C 2.732 -3.9048 0.0 0
M  V30 16 C 1.232 -4.7708 0.0 0
M  V30 17 C -1.337 -0.8277 0.0 0
M  V30 18 C -1.646 -1.7787 0.0 0
M  V30 19 N 2.232 -4.7708 0.0 0
M  V30 20 N 0.732 -5.6369 0.0 0
M  V30 21 C 1.232 -6.5029 0.0 0
M  V30 22 N 0.732 -7.3689 0.0 0
M  V30 23 C 2.232 -6.5029 0.0 0
M  V30 24 C 1.232 -8.2349 0.0 0
M  V30 25 C 2.732 -7.3689 0.0 0
M  V30 26 C 2.232 -8.2349 0.0 0
M  V30 27 N 2.732 -9.101 0.0 0
M  V30 28 C 2.232 -9.967 0.0 0
M  V30 29 C 3.732 -9.101 0.0 0
M  V30 30 C 2.732 -10.833 0.0 0
M  V30 31 C 4.232 -9.967 0.0 0
M  V30 32 N 3.732 -10.833 0.0 0
M  V30 END ATOM
M  V30 BEGIN BOND
M  V30 1 2 1 2
M  V30 2 1 2 3
M  V30 3 1 2 4
M  V30 4 1 3 5
M  V30 5 1 3 6
M  V30 6 1 4 7
M  V30 7 2 4 8
M  V30 8 1 7 9
M  V30 9 1 7 10
M  V30 10 1 8 11
M  V30 11 1 9 12
M  V30 12 1 10 13
M  V30 13 1 10 14
M  V30 14 1 11 15
M  V30 15 2 12 16
M  V30 16 1 13 17
M  V30 17 1 14 18
M  V30 18 2 15 19
M  V30 19 1 16 20
M  V30 20 1 20 21
M  V30 21 2 21 22
M  V30 22 1 21 23
M  V30 23 1 22 24
M  V30 24 2 23 25
M  V30 25 2 24 26
M  V30 26 1 26 27
M  V30 27 1 27 28
M  V30 28 1 27 29
M  V30 29 1 28 30
M  V30 30 1 29 31
M  V30 31 1 30 32
M  V30 32 2 9 11
M  V30 33 1 16 19
M  V30 34 1 17 18
M  V30 35 1 25 26
M  V30 36 1 31 32
M  V30 END BOND
M  V30 END CTAB
M  END
>  <Molecule Name>
Compound 106

>  <Molecule Name 2>
Compound 106

>  <Compound ID>
55

>  <Name>
Ribociclib

>  <Uniprot>
Q15119

>  <Target>
PDK2

>  <Smiles>
CN(C)C(=O)C1=CC2=CN=C(NC3=CC=C(N4CCNCC4)C=N3)N=C2N1C1CCCC1

>  <Kd (nM)>


>  <Assay (Kd)>


>  <Ki (nM)>


>  <Assay (Ki)>


>  <IC50 (nM)>


>  <Assay (IC50)>


>  <EC50 (nM)>


>  <Assay (EC50)>


>  <Article DOI>
10.1016/j.cell.2020.10.038

>  <Molecular Weight>
434.548

>  <Exact Mass>
434.2542576

>  <XLogP3>
2.19

>  <Heavy Atom Count>
32

>  <Ring Count>
5

>  <Hydrogen Bond Acceptor Count>
8

>  <Hydrogen Bond Donor Count>
2

>  <Rotatable Bond Count>
5

>  <Topological Polar Surface Area>
91.21

>  <Molecular Formula>
C23H30N8O

>  <InChI>
InChI=1S/C23H30N8O/c1-29(2)22(32)19-13-16-14-26-23(28-21(16)31(19)17-5-3-4-6-17)27-20-8-7-18(15-25-20)30-11-9-24-10-12-30/h7-8,13-15,17,24H,3-6,9-12H2,1-2H3,(H,25,26,27,28)

>  <InChI Key>
RHXHGRAEPCAFML-UHFFFAOYSA-N

>  <BindingDB>
148264

>  <PubChem>
44631912

>  <ChEMBL>
CHEMBL3545110

$$$$
55
Actelion Java MolfileCreator 2.0

  0  0  0  0  0  0              0 V3000
M  V30 BEGIN CTAB
M  V30 COUNTS 32 36 0 0 0
M  V30 BEGIN ATOM
M  V30 1 O 0.866 0.0 0.0 0
M  V30 2 C 1.732 -0.5 0.0 0
M  V30 3 N 2.598 0.0 0.0 0
M  V30 4 C 1.732 -1.5 0.0 0
M  V30 5 C 2.598 1.0 0.0 0
M  V30 6 C 3.4641 -0.4999 0.0 0
M  V30 7 N 0.923 -2.0877 0.0 0
M  V30 8 C 2.541 -2.0877 0.0 0
M  V30 9 C 1.232 -3.0388 0.0 0
M  V30 10 C -0.028 -1.7787 0.0 0
M  V30 11 C 2.232 -3.0388 0.0 0
M  V30 12 N 0.732 -3.9048 0.0 0
M  V30 13 C -0.337 -0.8277 0.0 0
M  V30 14 C -0.837 -2.3665 0.0 0
M  V30 15 C 2.732 -3.9048 0.0 0
M  V30 16 C 1.232 -4.7708 0.0 0
M  V30 17 C -1.337 -0.8277 0.0 0
M  V30 18 C -1.646 -1.7787 0.0 0
M  V30 19 N 2.232 -4.7708 0.0 0
M  V30 20 N 0.732 -5.6369 0.0 0
M  V30 21 C 1.232 -6.5029 0.0 0
M  V30 22 N 0.732 -7.3689 0.0 0
M  V30 23 C 2.232 -6.5029 0.0 0
M  V30 24 C 1.232 -8.2349 0.0 0
M  V30 25 C 2.732 -7.3689 0.0 0
M  V30 26 C 2.232 -8.2349 0.0 0
M  V30 27 N 2.732 -9.101 0.0 0
M  V30 28 C 2.232 -9.967 0.0 0
M  V30 29 C 3.732 -9.101 0.0 0
M  V30 30 C 2.732 -10.833 0.0 0
M  V30 31 C 4.232 -9.967 0.0 0
M  V30 32 N 3.732 -10.833 0.0 0
M  V30 END ATOM
M  V30 BEGIN BOND
M  V30 1 2 1 2
M  V30 2 1 2 3
M  V30 3 1 2 4
M  V30 4 1 3 5
M  V30 5 1 3 6
M  V30 6 1 4 7
M  V30 7 2 4 8
M  V30 8 1 7 9
M  V30 9 1 7 10
M  V30 10 1 8 11
M  V30 11 1 9 12
M  V30 12 1 10 13
M  V30 13 1 10 14
M  V30 14 1 11 15
M  V30 15 2 12 16
M  V30 16 1 13 17
M  V30 17 1 14 18
M  V30 18 2 15 19
M  V30 19 1 16 20
M  V30 20 1 20 21
M  V30 21 2 21 22
M  V30 22 1 21 23
M  V30 23 1 22 24
M  V30 24 2 23 25
M  V30 25 2 24 26
M  V30 26 1 26 27
M  V30 27 1 27 28
M  V30 28 1 27 29
M  V30 29 1 28 30
M  V30 30 1 29 31
M  V30 31 1 30 32
M  V30 32 2 9 11
M  V30 33 1 16 19
M  V30 34 1 17 18
M  V30 35 1 25 26
M  V30 36 1 31 32
M  V30 END BOND
M  V30 END CTAB
M  END
>  <Molecule Name>
Compound 107

>  <Molecule Name 2>
Compound 107

>  <Compound ID>
55

>  <Name>
Ribociclib

>  <Uniprot>
Q15120

>  <Target>
PDK3

>  <Smiles>
CN(C)C(=O)C1=CC2=CN=C(NC3=CC=C(N4CCNCC4)C=N3)N=C2N1C1CCCC1

>  <Kd (nM)>


>  <Assay (Kd)>


>  <Ki (nM)>


>  <Assay (Ki)>


>  <IC50 (nM)>


>  <Assay (IC50)>


>  <EC50 (nM)>


>  <Assay (EC50)>


>  <Article DOI>
10.1016/j.cell.2020.10.038

>  <Molecular Weight>
434.548

>  <Exact Mass>
434.2542576

>  <XLogP3>
2.19

>  <Heavy Atom Count>
32

>  <Ring Count>
5

>  <Hydrogen Bond Acceptor Count>
8

>  <Hydrogen Bond Donor Count>
2

>  <Rotatable Bond Count>
5

>  <Topological Polar Surface Area>
91.21

>  <Molecular Formula>
C23H30N8O

>  <InChI>
InChI=1S/C23H30N8O/c1-29(2)22(32)19-13-16-14-26-23(28-21(16)31(19)17-5-3-4-6-17)27-20-8-7-18(15-25-20)30-11-9-24-10-12-30/h7-8,13-15,17,24H,3-6,9-12H2,1-2H3,(H,25,26,27,28)

>  <InChI Key>
RHXHGRAEPCAFML-UHFFFAOYSA-N

>  <BindingDB>
148264

>  <PubChem>
44631912

>  <ChEMBL>
CHEMBL3545110

$$$$
56
Actelion Java MolfileCreator 2.0

  0  0  0  0  0  0              0 V3000
M  V30 BEGIN CTAB
M  V30 COUNTS 28 30 0 0 0
M  V30 BEGIN ATOM
M  V30 1 I 0.0 -5.25 0.0 0
M  V30 2 C 1.299 -4.5 0.0 0
M  V30 3 C 2.598 -5.25 0.0 0
M  V30 4 C 1.299 -3.0 0.0 0
M  V30 5 C 3.8971 -4.5 0.0 0
M  V30 6 C 2.598 -2.25 0.0 0
M  V30 7 F 5.1961 -5.25 0.0 0
M  V30 8 C 3.8971 -3.0 0.0 0
M  V30 9 N 5.1961 -2.25 0.0 0
M  V30 10 C 5.1961 -0.75 0.0 0
M  V30 11 N 6.4952 0.0 0.0 0
M  V30 12 C 3.8971 0.0 0.0 0
M  V30 13 C 6.4952 1.5 0.0 0
M  V30 14 C 7.7942 -0.75 0.0 0
M  V30 15 N 2.598 -0.75 0.0 0
M  V30 16 C 3.8971 1.5 0.0 0
M  V30 17 O 7.7942 2.25 0.0 0
M  V30 18 C 5.1961 2.25 0.0 0
M  V30 19 S 1.299 0.0 0.0 0
M  V30 20 C 5.1961 3.75 0.0 0
M  V30 21 O 2.049 1.299 0.0 0
M  V30 22 O 0.549 1.299 0.0 0
M  V30 23 C 0.0 -0.75 0.0 0
M  V30 24 C -1.299 0.0 0.0 0
M  V30 25 C 0.0 -2.25 0.0 0
M  V30 26 C -2.598 -0.75 0.0 0
M  V30 27 C -1.299 -3.0 0.0 0
M  V30 28 C -2.598 -2.25 0.0 0
M  V30 END ATOM
M  V30 BEGIN BOND
M  V30 1 1 1 2
M  V30 2 2 2 3
M  V30 3 1 2 4
M  V30 4 1 3 5
M  V30 5 2 4 6
M  V30 6 1 5 7
M  V30 7 2 5 8
M  V30 8 1 8 9
M  V30 9 1 9 10
M  V30 10 1 10 11
M  V30 11 2 10 12
M  V30 12 1 11 13
M  V30 13 1 11 14
M  V30 14 1 12 15
M  V30 15 1 12 16
M  V30 16 2 13 17
M  V30 17 1 13 18
M  V30 18 1 15 19
M  V30 19 1 18 20
M  V30 20 2 19 21
M  V30 21 2 19 22
M  V30 22 1 19 23
M  V30 23 2 23 24
M  V30 24 1 23 25
M  V30 25 1 24 26
M  V30 26 2 25 27
M  V30 27 2 26 28
M  V30 28 1 6 8
M  V30 29 2 16 18
M  V30 30 1 27 28
M  V30 END BOND
M  V30 END CTAB
M  END
>  <Molecule Name>
Compound 108

>  <Molecule Name 2>
Compound 108

>  <Compound ID>
56

>  <Name>


>  <Uniprot>
Q02750

>  <Target>
MEK1

>  <Smiles>
CC1=CC(NS(=O)(=O)C2=CC=CC=C2)=C(NC2=CC=C(I)C=C2F)N(C)C1=O

>  <Kd (nM)>


>  <Assay (Kd)>


>  <Ki (nM)>


>  <Assay (Ki)>


>  <IC50 (nM)>
398

>  <Assay (IC50)>
IC50 of MEK1

>  <EC50 (nM)>


>  <Assay (EC50)>


>  <Article DOI>
10.1021/acs.jmedchem.9b00810

>  <Molecular Weight>
513.332

>  <Exact Mass>
513.0019386

>  <XLogP3>
3.51

>  <Heavy Atom Count>
28

>  <Ring Count>
3

>  <Hydrogen Bond Acceptor Count>
5

>  <Hydrogen Bond Donor Count>
2

>  <Rotatable Bond Count>
5

>  <Topological Polar Surface Area>
80.2

>  <Molecular Formula>
C19H17FIN3O3S

>  <InChI>
InChI=1S/C19H17FIN3O3S/c1-12-10-17(23-28(26,27)14-6-4-3-5-7-14)18(24(2)19(12)25)22-16-9-8-13(21)11-15(16)20/h3-11,22-23H,1-2H3

>  <InChI Key>
DVNLLCLLEUIZHI-UHFFFAOYSA-N

>  <BindingDB>


>  <PubChem>
68796122

>  <ChEMBL>


$$$$
56
Actelion Java MolfileCreator 2.0

  0  0  0  0  0  0              0 V3000
M  V30 BEGIN CTAB
M  V30 COUNTS 28 30 0 0 0
M  V30 BEGIN ATOM
M  V30 1 I 0.0 -5.25 0.0 0
M  V30 2 C 1.299 -4.5 0.0 0
M  V30 3 C 2.598 -5.25 0.0 0
M  V30 4 C 1.299 -3.0 0.0 0
M  V30 5 C 3.8971 -4.5 0.0 0
M  V30 6 C 2.598 -2.25 0.0 0
M  V30 7 F 5.1961 -5.25 0.0 0
M  V30 8 C 3.8971 -3.0 0.0 0
M  V30 9 N 5.1961 -2.25 0.0 0
M  V30 10 C 5.1961 -0.75 0.0 0
M  V30 11 N 6.4952 0.0 0.0 0
M  V30 12 C 3.8971 0.0 0.0 0
M  V30 13 C 6.4952 1.5 0.0 0
M  V30 14 C 7.7942 -0.75 0.0 0
M  V30 15 N 2.598 -0.75 0.0 0
M  V30 16 C 3.8971 1.5 0.0 0
M  V30 17 O 7.7942 2.25 0.0 0
M  V30 18 C 5.1961 2.25 0.0 0
M  V30 19 S 1.299 0.0 0.0 0
M  V30 20 C 5.1961 3.75 0.0 0
M  V30 21 O 2.049 1.299 0.0 0
M  V30 22 O 0.549 1.299 0.0 0
M  V30 23 C 0.0 -0.75 0.0 0
M  V30 24 C -1.299 0.0 0.0 0
M  V30 25 C 0.0 -2.25 0.0 0
M  V30 26 C -2.598 -0.75 0.0 0
M  V30 27 C -1.299 -3.0 0.0 0
M  V30 28 C -2.598 -2.25 0.0 0
M  V30 END ATOM
M  V30 BEGIN BOND
M  V30 1 1 1 2
M  V30 2 2 2 3
M  V30 3 1 2 4
M  V30 4 1 3 5
M  V30 5 2 4 6
M  V30 6 1 5 7
M  V30 7 2 5 8
M  V30 8 1 8 9
M  V30 9 1 9 10
M  V30 10 1 10 11
M  V30 11 2 10 12
M  V30 12 1 11 13
M  V30 13 1 11 14
M  V30 14 1 12 15
M  V30 15 1 12 16
M  V30 16 2 13 17
M  V30 17 1 13 18
M  V30 18 1 15 19
M  V30 19 1 18 20
M  V30 20 2 19 21
M  V30 21 2 19 22
M  V30 22 1 19 23
M  V30 23 2 23 24
M  V30 24 1 23 25
M  V30 25 1 24 26
M  V30 26 2 25 27
M  V30 27 2 26 28
M  V30 28 1 6 8
M  V30 29 2 16 18
M  V30 30 1 27 28
M  V30 END BOND
M  V30 END CTAB
M  END
>  <Molecule Name>
Compound 109

>  <Molecule Name 2>
Compound 109

>  <Compound ID>
56

>  <Name>


>  <Uniprot>
P36507

>  <Target>
MEK2

>  <Smiles>
CC1=CC(NS(=O)(=O)C2=CC=CC=C2)=C(NC2=CC=C(I)C=C2F)N(C)C1=O

>  <Kd (nM)>


>  <Assay (Kd)>


>  <Ki (nM)>


>  <Assay (Ki)>


>  <IC50 (nM)>


>  <Assay (IC50)>


>  <EC50 (nM)>


>  <Assay (EC50)>


>  <Article DOI>
10.1021/acs.jmedchem.9b00810

>  <Molecular Weight>
513.332

>  <Exact Mass>
513.0019386

>  <XLogP3>
3.51

>  <Heavy Atom Count>
28

>  <Ring Count>
3

>  <Hydrogen Bond Acceptor Count>
5

>  <Hydrogen Bond Donor Count>
2

>  <Rotatable Bond Count>
5

>  <Topological Polar Surface Area>
80.2

>  <Molecular Formula>
C19H17FIN3O3S

>  <InChI>
InChI=1S/C19H17FIN3O3S/c1-12-10-17(23-28(26,27)14-6-4-3-5-7-14)18(24(2)19(12)25)22-16-9-8-13(21)11-15(16)20/h3-11,22-23H,1-2H3

>  <InChI Key>
DVNLLCLLEUIZHI-UHFFFAOYSA-N

>  <BindingDB>


>  <PubChem>
68796122

>  <ChEMBL>


$$$$
57
Actelion Java MolfileCreator 2.0

  0  0  0  0  0  0              0 V3000
M  V30 BEGIN CTAB
M  V30 COUNTS 59 64 0 0 0
M  V30 BEGIN ATOM
M  V30 1 P 13.0458 3.5105 0.0 0
M  V30 2 O 12.0716 2.3699 0.0 0
M  V30 3 O 11.9052 4.4847 0.0 0
M  V30 4 O 14.0199 4.6512 0.0 0
M  V30 5 C 14.1864 2.5364 0.0 0
M  V30 6 F 15.1605 3.677 0.0 0
M  V30 7 F 15.6612 2.263 0.0 0
M  V30 8 C 13.913 1.0615 0.0 0
M  V30 9 C 12.4991 0.5608 0.0 0
M  V30 10 C 15.0536 0.0873 0.0 0
M  V30 11 C 12.2257 -0.914 0.0 0
M  V30 12 C 14.7803 -1.3875 0.0 0
M  V30 13 C 13.3663 -1.8882 0.0 0
M  V30 14 C 10.9468 -1.6977 0.0 0
M  V30 15 N 12.7923 -3.274 0.0 0
M  V30 16 C 11.2969 -3.1563 0.0 0
M  V30 17 C 10.3227 -4.2969 0.0 0
M  V30 18 O 10.8235 -5.7109 0.0 0
M  V30 19 N 8.8479 -4.0236 0.0 0
M  V30 20 C 7.8737 -5.1642 0.0 0 CFG=2
M  V30 21 C 6.4471 -4.7006 0.0 0
M  V30 22 C 8.5547 -6.5007 0.0 0
M  V30 23 O 6.3294 -3.2053 0.0 0
M  V30 24 N 5.1106 -5.3816 0.0 0
M  V30 25 N 8.0912 -7.9273 0.0 0
M  V30 26 C 3.8971 -4.5 0.0 0 CFG=2
M  V30 27 C 4.6471 -6.8082 0.0 0 CFG=1
M  V30 28 C 9.2318 -8.9014 0.0 0
M  V30 29 C 6.7546 -8.6083 0.0 0
M  V30 30 C 3.8971 -3.0 0.0 0
M  V30 31 C 2.6835 -5.3816 0.0 0
M  V30 32 C 5.3281 -8.1447 0.0 0
M  V30 33 C 3.1471 -6.8082 0.0 0
M  V30 34 O 8.9584 -10.3763 0.0 0
M  V30 35 C 10.6457 -8.4007 0.0 0
M  V30 36 O 5.1961 -2.25 0.0 0
M  V30 37 N 2.598 -2.25 0.0 0
M  V30 38 C 2.598 -0.75 0.0 0 CFG=2
M  V30 39 C 1.299 0.0 0.0 0
M  V30 40 C 3.8971 0.0 0.0 0
M  V30 41 O 1.299 1.5 0.0 0
M  V30 42 N 0.0 -0.75 0.0 0
M  V30 43 C 5.1961 -0.75 0.0 0
M  V30 44 C -1.299 0.0 0.0 0
M  V30 45 C 6.4951 0.0 0.0 0
M  V30 46 C -2.598 -0.75 0.0 0
M  V30 47 C -1.299 1.5 0.0 0
M  V30 48 O 6.4951 1.5 0.0 0
M  V30 49 N 7.7942 -0.75 0.0 0
M  V30 50 C -2.598 -2.25 0.0 0
M  V30 51 C -3.8971 0.0 0.0 0
M  V30 52 C -2.598 2.25 0.0 0
M  V30 53 C 0.0 2.25 0.0 0
M  V30 54 C -3.8971 -3.0 0.0 0
M  V30 55 C -5.1961 -0.75 0.0 0
M  V30 56 C -2.598 3.75 0.0 0
M  V30 57 C 0.0 3.75 0.0 0
M  V30 58 C -5.1961 -2.25 0.0 0
M  V30 59 C -1.299 4.5 0.0 0
M  V30 END ATOM
M  V30 BEGIN BOND
M  V30 1 2 1 2
M  V30 2 1 1 3
M  V30 3 1 1 4
M  V30 4 1 1 5
M  V30 5 1 5 6
M  V30 6 1 5 7
M  V30 7 1 5 8
M  V30 8 2 8 9
M  V30 9 1 8 10
M  V30 10 1 9 11
M  V30 11 2 10 12
M  V30 12 2 11 13
M  V30 13 1 11 14
M  V30 14 1 13 15
M  V30 15 2 14 16
M  V30 16 1 16 17
M  V30 17 2 17 18
M  V30 18 1 17 19
M  V30 19 1 20 19 CFG=1
M  V30 20 1 20 21
M  V30 21 1 20 22
M  V30 22 2 21 23
M  V30 23 1 21 24
M  V30 24 1 22 25
M  V30 25 1 26 24
M  V30 26 1 27 24 CFG=1
M  V30 27 1 25 28
M  V30 28 1 25 29
M  V30 29 1 26 30 CFG=1
M  V30 30 1 26 31
M  V30 31 1 27 32
M  V30 32 1 27 33
M  V30 33 2 28 34
M  V30 34 1 28 35
M  V30 35 2 30 36
M  V30 36 1 30 37
M  V30 37 1 38 37 CFG=3
M  V30 38 1 38 39
M  V30 39 1 38 40
M  V30 40 2 39 41
M  V30 41 1 39 42
M  V30 42 1 40 43
M  V30 43 1 42 44
M  V30 44 1 43 45
M  V30 45 1 44 46
M  V30 46 1 44 47
M  V30 47 2 45 48
M  V30 48 1 45 49
M  V30 49 2 46 50
M  V30 50 1 46 51
M  V30 51 2 47 52
M  V30 52 1 47 53
M  V30 53 1 50 54
M  V30 54 2 51 55
M  V30 55 1 52 56
M  V30 56 2 53 57
M  V30 57 2 54 58
M  V30 58 2 56 59
M  V30 59 1 12 13
M  V30 60 1 15 16
M  V30 61 1 29 32
M  V30 62 1 31 33
M  V30 63 1 55 58
M  V30 64 1 57 59
M  V30 END BOND
M  V30 BEGIN COLLECTION
M  V30 MDLV30/STEABS ATOMS=(4 20 26 27 38)
M  V30 END COLLECTION
M  V30 END CTAB
M  END
>  <Molecule Name>
Compound 110

>  <Molecule Name 2>
Compound 110

>  <Compound ID>
57

>  <Name>
SI-109

>  <Uniprot>
P40763

>  <Target>
STAT3

>  <Smiles>
CC(=O)N1CC[C@H]2CC[C@@H](C(=O)N[C@@H](CCC(N)=O)C(=O)NC(C3=CC=CC=C3)C3=CC=CC=C3)N2C(=O)[C@@H](NC(=O)C2=CC3=CC(C(F)(F)P(=O)(O)O)=CC=C3[NH]2)C1

>  <Kd (nM)>


>  <Assay (Kd)>


>  <Ki (nM)>
14

>  <Assay (Ki)>
FP

>  <IC50 (nM)>


>  <Assay (IC50)>


>  <EC50 (nM)>


>  <Assay (EC50)>


>  <Article DOI>
10.1021/acs.jmedchem.9b01530

>  <Molecular Weight>
835.802

>  <Exact Mass>
835.2906191

>  <XLogP3>
1.27

>  <Heavy Atom Count>
59

>  <Ring Count>
6

>  <Hydrogen Bond Acceptor Count>
7

>  <Hydrogen Bond Donor Count>
7

>  <Rotatable Bond Count>
13

>  <Topological Polar Surface Area>
244.33

>  <Molecular Formula>
C40H44F2N7O9P

>  <InChI>
InChI=1S/C40H44F2N7O9P/c1-23(50)48-19-18-28-13-16-33(38(54)45-30(15-17-34(43)51)36(52)47-35(24-8-4-2-5-9-24)25-10-6-3-7-11-25)49(28)39(55)32(22-48)46-37(53)31-21-26-20-27(12-14-29(26)44-31)40(41,42)59(56,57)58/h2-12,14,20-21,28,30,32-33,35,44H,13,15-19,22H2,1H3,(H2,43,51)(H,45,54)(H,46,53)(H,47,52)(H2,56,57,58)/t28-,30+,32+,33+/m1/s1

>  <InChI Key>
HBICZHLVBCLHSV-VUCLUUCHSA-N

>  <BindingDB>


>  <PubChem>
139600322

>  <ChEMBL>


$$$$
58
Actelion Java MolfileCreator 2.0

  0  0  0  0  0  0              0 V3000
M  V30 BEGIN CTAB
M  V30 COUNTS 53 57 0 0 0
M  V30 BEGIN ATOM
M  V30 1 P 13.0458 3.5105 0.0 0
M  V30 2 O 12.0716 2.3699 0.0 0
M  V30 3 O 11.9052 4.4847 0.0 0
M  V30 4 O 14.0199 4.6512 0.0 0
M  V30 5 C 14.1864 2.5364 0.0 0
M  V30 6 F 15.1605 3.677 0.0 0
M  V30 7 F 15.6612 2.263 0.0 0
M  V30 8 C 13.913 1.0615 0.0 0
M  V30 9 C 12.4991 0.5608 0.0 0
M  V30 10 C 15.0536 0.0873 0.0 0
M  V30 11 C 12.2257 -0.914 0.0 0
M  V30 12 C 14.7803 -1.3875 0.0 0
M  V30 13 C 13.3663 -1.8882 0.0 0
M  V30 14 C 10.9468 -1.6977 0.0 0
M  V30 15 N 12.7923 -3.274 0.0 0
M  V30 16 C 11.2969 -3.1563 0.0 0
M  V30 17 C 10.3227 -4.2969 0.0 0
M  V30 18 O 10.8235 -5.7109 0.0 0
M  V30 19 N 8.8479 -4.0236 0.0 0
M  V30 20 C 7.8737 -5.1642 0.0 0 CFG=2
M  V30 21 C 6.4471 -4.7006 0.0 0
M  V30 22 C 8.5547 -6.5007 0.0 0
M  V30 23 O 6.3294 -3.2053 0.0 0
M  V30 24 N 5.1106 -5.3816 0.0 0
M  V30 25 N 8.0912 -7.9273 0.0 0
M  V30 26 C 3.8971 -4.5 0.0 0 CFG=2
M  V30 27 C 4.6471 -6.8082 0.0 0 CFG=1
M  V30 28 C 9.2318 -8.9014 0.0 0
M  V30 29 C 6.7546 -8.6083 0.0 0
M  V30 30 C 3.8971 -3.0 0.0 0
M  V30 31 C 2.6835 -5.3816 0.0 0
M  V30 32 C 5.3281 -8.1447 0.0 0
M  V30 33 C 3.1471 -6.8082 0.0 0
M  V30 34 O 8.9584 -10.3763 0.0 0
M  V30 35 C 10.6457 -8.4007 0.0 0
M  V30 36 O 5.1961 -2.25 0.0 0
M  V30 37 N 2.598 -2.25 0.0 0
M  V30 38 C 2.598 -0.75 0.0 0 CFG=2
M  V30 39 C 1.299 0.0 0.0 0
M  V30 40 C 3.8971 0.0 0.0 0
M  V30 41 O 1.299 1.5 0.0 0
M  V30 42 N 0.0 -0.75 0.0 0
M  V30 43 C 5.1961 -0.75 0.0 0
M  V30 44 C -1.299 0.0 0.0 0
M  V30 45 C 6.4951 0.0 0.0 0
M  V30 46 C -2.598 -0.75 0.0 0
M  V30 47 O 6.4951 1.5 0.0 0
M  V30 48 N 7.7942 -0.75 0.0 0
M  V30 49 C -2.598 -2.25 0.0 0
M  V30 50 C -3.8971 0.0 0.0 0
M  V30 51 C -3.8971 -3.0 0.0 0
M  V30 52 C -5.1961 -0.75 0.0 0
M  V30 53 C -5.1961 -2.25 0.0 0
M  V30 END ATOM
M  V30 BEGIN BOND
M  V30 1 2 1 2
M  V30 2 1 1 3
M  V30 3 1 1 4
M  V30 4 1 1 5
M  V30 5 1 5 6
M  V30 6 1 5 7
M  V30 7 1 5 8
M  V30 8 2 8 9
M  V30 9 1 8 10
M  V30 10 1 9 11
M  V30 11 2 10 12
M  V30 12 2 11 13
M  V30 13 1 11 14
M  V30 14 1 13 15
M  V30 15 2 14 16
M  V30 16 1 16 17
M  V30 17 2 17 18
M  V30 18 1 17 19
M  V30 19 1 20 19 CFG=1
M  V30 20 1 20 21
M  V30 21 1 20 22
M  V30 22 2 21 23
M  V30 23 1 21 24
M  V30 24 1 22 25
M  V30 25 1 26 24
M  V30 26 1 27 24 CFG=1
M  V30 27 1 25 28
M  V30 28 1 25 29
M  V30 29 1 26 30 CFG=1
M  V30 30 1 26 31
M  V30 31 1 27 32
M  V30 32 1 27 33
M  V30 33 2 28 34
M  V30 34 1 28 35
M  V30 35 2 30 36
M  V30 36 1 30 37
M  V30 37 1 38 37 CFG=3
M  V30 38 1 38 39
M  V30 39 1 38 40
M  V30 40 2 39 41
M  V30 41 1 39 42
M  V30 42 1 40 43
M  V30 43 1 42 44
M  V30 44 1 43 45
M  V30 45 1 44 46
M  V30 46 2 45 47
M  V30 47 1 45 48
M  V30 48 2 46 49
M  V30 49 1 46 50
M  V30 50 1 49 51
M  V30 51 2 50 52
M  V30 52 2 51 53
M  V30 53 1 12 13
M  V30 54 1 15 16
M  V30 55 1 29 32
M  V30 56 1 31 33
M  V30 57 1 52 53
M  V30 END BOND
M  V30 BEGIN COLLECTION
M  V30 MDLV30/STEABS ATOMS=(4 20 26 27 38)
M  V30 END COLLECTION
M  V30 END CTAB
M  END
>  <Molecule Name>
Compound 111

>  <Molecule Name 2>
Compound 111

>  <Compound ID>
58

>  <Name>


>  <Uniprot>
P40763

>  <Target>
STAT3

>  <Smiles>
CC(=O)N1CC[C@H]2CC[C@@H](C(=O)N[C@@H](CCC(N)=O)C(=O)NCC3=CC=CC=C3)N2C(=O)[C@@H](NC(=O)C2=CC3=CC(C(F)(F)P(=O)(O)O)=CC=C3[NH]2)C1

>  <Kd (nM)>


>  <Assay (Kd)>


>  <Ki (nM)>
14

>  <Assay (Ki)>
FP

>  <IC50 (nM)>


>  <Assay (IC50)>


>  <EC50 (nM)>


>  <Assay (EC50)>


>  <Article DOI>
10.1021/acs.jmedchem.9b01530

>  <Molecular Weight>
759.704

>  <Exact Mass>
759.2593189

>  <XLogP3>
-0.42

>  <Heavy Atom Count>
53

>  <Ring Count>
5

>  <Hydrogen Bond Acceptor Count>
7

>  <Hydrogen Bond Donor Count>
7

>  <Rotatable Bond Count>
12

>  <Topological Polar Surface Area>
244.33

>  <Molecular Formula>
C34H40F2N7O9P

>  <InChI>
InChI=1S/C34H40F2N7O9P/c1-19(44)42-14-13-23-8-11-28(32(48)40-25(10-12-29(37)45)30(46)38-17-20-5-3-2-4-6-20)43(23)33(49)27(18-42)41-31(47)26-16-21-15-22(7-9-24(21)39-26)34(35,36)53(50,51)52/h2-7,9,15-16,23,25,27-28,39H,8,10-14,17-18H2,1H3,(H2,37,45)(H,38,46)(H,40,48)(H,41,47)(H2,50,51,52)/t23-,25+,27+,28+/m1/s1

>  <InChI Key>
GQYPGEKTECILBT-DEKSYSNASA-N

>  <BindingDB>
50514299

>  <PubChem>
155189031

>  <ChEMBL>
CHEMBL4515406

$$$$
59
Actelion Java MolfileCreator 2.0

  0  0  0  0  0  0              0 V3000
M  V30 BEGIN CTAB
M  V30 COUNTS 57 62 0 0 0
M  V30 BEGIN ATOM
M  V30 1 P 8.6972 2.3403 0.0 0
M  V30 2 O 8.0477 1.5799 0.0 0
M  V30 3 O 9.4576 1.6909 0.0 0
M  V30 4 O 7.9368 2.9898 0.0 0
M  V30 5 O 9.3466 3.1008 0.0 0
M  V30 6 C 9.2753 0.7076 0.0 0
M  V30 7 C 8.3327 0.3738 0.0 0
M  V30 8 C 10.0357 0.0582 0.0 0
M  V30 9 C 8.1505 -0.6093 0.0 0
M  V30 10 C 9.8535 -0.925 0.0 0
M  V30 11 C 8.9109 -1.2588 0.0 0
M  V30 12 C 7.2978 -1.1318 0.0 0
M  V30 13 N 8.5282 -2.1826 0.0 0
M  V30 14 C 7.5313 -2.1042 0.0 0
M  V30 15 C 6.8818 -2.8646 0.0 0
M  V30 16 O 7.2156 -3.8072 0.0 0
M  V30 17 N 5.8986 -2.6824 0.0 0
M  V30 18 C 5.2491 -3.4428 0.0 0 CFG=2
M  V30 19 C 4.298 -3.1337 0.0 0
M  V30 20 C 5.7031 -4.3338 0.0 0
M  V30 21 O 4.2196 -2.1368 0.0 0
M  V30 22 N 3.407 -3.5877 0.0 0
M  V30 23 N 5.3941 -5.2848 0.0 0
M  V30 24 C 2.598 -3.0 0.0 0 CFG=2
M  V30 25 C 3.098 -4.5388 0.0 0 CFG=1
M  V30 26 C 6.1545 -5.9343 0.0 0
M  V30 27 C 4.5031 -5.7388 0.0 0
M  V30 28 C 2.598 -2.0 0.0 0
M  V30 29 C 1.789 -3.5877 0.0 0
M  V30 30 C 3.552 -5.4298 0.0 0
M  V30 31 C 2.098 -4.5388 0.0 0
M  V30 32 O 5.9723 -6.9175 0.0 0
M  V30 33 C 7.0971 -5.6005 0.0 0
M  V30 34 O 3.4641 -1.5 0.0 0
M  V30 35 N 1.732 -1.5 0.0 0
M  V30 36 C 1.732 -0.5 0.0 0 CFG=2
M  V30 37 C 0.866 0.0 0.0 0
M  V30 38 C 2.598 0.0 0.0 0
M  V30 39 O 0.866 1.0 0.0 0
M  V30 40 N 0.0 -0.4999 0.0 0
M  V30 41 C 3.4641 -0.5 0.0 0
M  V30 42 C -0.866 0.0 0.0 0
M  V30 43 C 4.3301 0.0 0.0 0
M  V30 44 C -1.732 -0.4999 0.0 0
M  V30 45 C -0.866 1.0 0.0 0
M  V30 46 O 4.3301 1.0 0.0 0
M  V30 47 N 5.1961 -0.4999 0.0 0
M  V30 48 C -1.732 -1.5 0.0 0
M  V30 49 C -2.598 0.0 0.0 0
M  V30 50 C -1.732 1.4999 0.0 0
M  V30 51 C 0.0 1.5 0.0 0
M  V30 52 C -2.598 -1.9999 0.0 0
M  V30 53 C -3.4641 -0.4999 0.0 0
M  V30 54 C -1.732 2.4999 0.0 0
M  V30 55 C 0.0 2.5 0.0 0
M  V30 56 C -3.4641 -1.4999 0.0 0
M  V30 57 C -0.866 3.0 0.0 0
M  V30 END ATOM
M  V30 BEGIN BOND
M  V30 1 2 1 2
M  V30 2 1 1 3
M  V30 3 1 1 4
M  V30 4 1 1 5
M  V30 5 1 3 6
M  V30 6 2 6 7
M  V30 7 1 6 8
M  V30 8 1 7 9
M  V30 9 2 8 10
M  V30 10 2 9 11
M  V30 11 1 9 12
M  V30 12 1 11 13
M  V30 13 2 12 14
M  V30 14 1 14 15
M  V30 15 2 15 16
M  V30 16 1 15 17
M  V30 17 1 18 17 CFG=1
M  V30 18 1 18 19
M  V30 19 1 18 20
M  V30 20 2 19 21
M  V30 21 1 19 22
M  V30 22 1 20 23
M  V30 23 1 24 22
M  V30 24 1 25 22 CFG=1
M  V30 25 1 23 26
M  V30 26 1 23 27
M  V30 27 1 24 28 CFG=1
M  V30 28 1 24 29
M  V30 29 1 25 30
M  V30 30 1 25 31
M  V30 31 2 26 32
M  V30 32 1 26 33
M  V30 33 2 28 34
M  V30 34 1 28 35
M  V30 35 1 36 35 CFG=3
M  V30 36 1 36 37
M  V30 37 1 36 38
M  V30 38 2 37 39
M  V30 39 1 37 40
M  V30 40 1 38 41
M  V30 41 1 40 42
M  V30 42 1 41 43
M  V30 43 1 42 44
M  V30 44 1 42 45
M  V30 45 2 43 46
M  V30 46 1 43 47
M  V30 47 2 44 48
M  V30 48 1 44 49
M  V30 49 2 45 50
M  V30 50 1 45 51
M  V30 51 1 48 52
M  V30 52 2 49 53
M  V30 53 1 50 54
M  V30 54 2 51 55
M  V30 55 2 52 56
M  V30 56 2 54 57
M  V30 57 1 10 11
M  V30 58 1 13 14
M  V30 59 1 27 30
M  V30 60 1 29 31
M  V30 61 1 53 56
M  V30 62 1 55 57
M  V30 END BOND
M  V30 BEGIN COLLECTION
M  V30 MDLV30/STEABS ATOMS=(4 18 24 25 36)
M  V30 END COLLECTION
M  V30 END CTAB
M  END
>  <Molecule Name>
Compound 112

>  <Molecule Name 2>
Compound 112

>  <Compound ID>
59

>  <Name>


>  <Uniprot>
P40763

>  <Target>
STAT3

>  <Smiles>
CC(=O)N1CC[C@H]2CC[C@@H](C(=O)N[C@@H](CCC(N)=O)C(=O)NC(C3=CC=CC=C3)C3=CC=CC=C3)N2C(=O)[C@@H](NC(=O)C2=CC3=CC(OP(=O)(O)O)=CC=C3[NH]2)C1

>  <Kd (nM)>


>  <Assay (Kd)>


>  <Ki (nM)>
33

>  <Assay (Ki)>
FP

>  <IC50 (nM)>


>  <Assay (IC50)>


>  <EC50 (nM)>


>  <Assay (EC50)>


>  <Article DOI>
10.1021/acs.jmedchem.9b01530

>  <Molecular Weight>
801.794

>  <Exact Mass>
801.2887272

>  <XLogP3>
0.9

>  <Heavy Atom Count>
57

>  <Ring Count>
6

>  <Hydrogen Bond Acceptor Count>
8

>  <Hydrogen Bond Donor Count>
7

>  <Rotatable Bond Count>
13

>  <Topological Polar Surface Area>
253.56

>  <Molecular Formula>
C39H44N7O10P

>  <InChI>
InChI=1S/C39H44N7O10P/c1-23(47)45-19-18-27-12-16-33(46(27)39(52)32(22-45)43-37(50)31-21-26-20-28(56-57(53,54)55)13-14-29(26)41-31)38(51)42-30(15-17-34(40)48)36(49)44-35(24-8-4-2-5-9-24)25-10-6-3-7-11-25/h2-11,13-14,20-21,27,30,32-33,35,41H,12,15-19,22H2,1H3,(H2,40,48)(H,42,51)(H,43,50)(H,44,49)(H2,53,54,55)/t27-,30+,32+,33+/m1/s1

>  <InChI Key>
OGXDAFGZMDHWLK-BSIQAPFRSA-N

>  <BindingDB>
50514296

>  <PubChem>
155516315

>  <ChEMBL>
CHEMBL4443240

$$$$
60
Actelion Java MolfileCreator 2.0

  0  0  0  0  0  0              0 V3000
M  V30 BEGIN CTAB
M  V30 COUNTS 57 62 0 0 0
M  V30 BEGIN ATOM
M  V30 1 P 8.6972 2.3403 0.0 0
M  V30 2 O 8.0477 1.5799 0.0 0
M  V30 3 O 7.9368 2.9898 0.0 0
M  V30 4 O 9.3466 3.1008 0.0 0
M  V30 5 C 9.4576 1.6909 0.0 0
M  V30 6 C 9.2753 0.7076 0.0 0
M  V30 7 C 8.3327 0.3738 0.0 0
M  V30 8 C 10.0357 0.0582 0.0 0
M  V30 9 C 8.1505 -0.6093 0.0 0
M  V30 10 C 9.8535 -0.925 0.0 0
M  V30 11 C 8.9109 -1.2588 0.0 0
M  V30 12 C 7.2978 -1.1318 0.0 0
M  V30 13 N 8.5282 -2.1826 0.0 0
M  V30 14 C 7.5313 -2.1042 0.0 0
M  V30 15 C 6.8818 -2.8646 0.0 0
M  V30 16 O 7.2156 -3.8072 0.0 0
M  V30 17 N 5.8986 -2.6824 0.0 0
M  V30 18 C 5.2491 -3.4428 0.0 0 CFG=2
M  V30 19 C 4.298 -3.1337 0.0 0
M  V30 20 C 5.7031 -4.3338 0.0 0
M  V30 21 O 4.2196 -2.1368 0.0 0
M  V30 22 N 3.407 -3.5877 0.0 0
M  V30 23 N 5.3941 -5.2848 0.0 0
M  V30 24 C 2.598 -3.0 0.0 0 CFG=2
M  V30 25 C 3.098 -4.5388 0.0 0 CFG=1
M  V30 26 C 6.1545 -5.9343 0.0 0
M  V30 27 C 4.5031 -5.7388 0.0 0
M  V30 28 C 2.598 -2.0 0.0 0
M  V30 29 C 1.789 -3.5877 0.0 0
M  V30 30 C 3.552 -5.4298 0.0 0
M  V30 31 C 2.098 -4.5388 0.0 0
M  V30 32 O 5.9723 -6.9175 0.0 0
M  V30 33 C 7.0971 -5.6005 0.0 0
M  V30 34 O 3.4641 -1.5 0.0 0
M  V30 35 N 1.732 -1.5 0.0 0
M  V30 36 C 1.732 -0.5 0.0 0 CFG=2
M  V30 37 C 0.866 0.0 0.0 0
M  V30 38 C 2.598 0.0 0.0 0
M  V30 39 O 0.866 1.0 0.0 0
M  V30 40 N 0.0 -0.4999 0.0 0
M  V30 41 C 3.4641 -0.5 0.0 0
M  V30 42 C -0.866 0.0 0.0 0
M  V30 43 C 4.3301 0.0 0.0 0
M  V30 44 C -1.732 -0.4999 0.0 0
M  V30 45 C -0.866 1.0 0.0 0
M  V30 46 O 4.3301 1.0 0.0 0
M  V30 47 N 5.1961 -0.4999 0.0 0
M  V30 48 C -1.732 -1.5 0.0 0
M  V30 49 C -2.598 0.0 0.0 0
M  V30 50 C -1.732 1.4999 0.0 0
M  V30 51 C 0.0 1.5 0.0 0
M  V30 52 C -2.598 -1.9999 0.0 0
M  V30 53 C -3.4641 -0.4999 0.0 0
M  V30 54 C -1.732 2.4999 0.0 0
M  V30 55 C 0.0 2.5 0.0 0
M  V30 56 C -3.4641 -1.4999 0.0 0
M  V30 57 C -0.866 3.0 0.0 0
M  V30 END ATOM
M  V30 BEGIN BOND
M  V30 1 2 1 2
M  V30 2 1 1 3
M  V30 3 1 1 4
M  V30 4 1 1 5
M  V30 5 1 5 6
M  V30 6 2 6 7
M  V30 7 1 6 8
M  V30 8 1 7 9
M  V30 9 2 8 10
M  V30 10 2 9 11
M  V30 11 1 9 12
M  V30 12 1 11 13
M  V30 13 2 12 14
M  V30 14 1 14 15
M  V30 15 2 15 16
M  V30 16 1 15 17
M  V30 17 1 18 17 CFG=1
M  V30 18 1 18 19
M  V30 19 1 18 20
M  V30 20 2 19 21
M  V30 21 1 19 22
M  V30 22 1 20 23
M  V30 23 1 24 22
M  V30 24 1 25 22 CFG=1
M  V30 25 1 23 26
M  V30 26 1 23 27
M  V30 27 1 24 28 CFG=1
M  V30 28 1 24 29
M  V30 29 1 25 30
M  V30 30 1 25 31
M  V30 31 2 26 32
M  V30 32 1 26 33
M  V30 33 2 28 34
M  V30 34 1 28 35
M  V30 35 1 36 35 CFG=3
M  V30 36 1 36 37
M  V30 37 1 36 38
M  V30 38 2 37 39
M  V30 39 1 37 40
M  V30 40 1 38 41
M  V30 41 1 40 42
M  V30 42 1 41 43
M  V30 43 1 42 44
M  V30 44 1 42 45
M  V30 45 2 43 46
M  V30 46 1 43 47
M  V30 47 2 44 48
M  V30 48 1 44 49
M  V30 49 2 45 50
M  V30 50 1 45 51
M  V30 51 1 48 52
M  V30 52 2 49 53
M  V30 53 1 50 54
M  V30 54 2 51 55
M  V30 55 2 52 56
M  V30 56 2 54 57
M  V30 57 1 10 11
M  V30 58 1 13 14
M  V30 59 1 27 30
M  V30 60 1 29 31
M  V30 61 1 53 56
M  V30 62 1 55 57
M  V30 END BOND
M  V30 BEGIN COLLECTION
M  V30 MDLV30/STEABS ATOMS=(4 18 24 25 36)
M  V30 END COLLECTION
M  V30 END CTAB
M  END
>  <Molecule Name>
Compound 113

>  <Molecule Name 2>
Compound 113

>  <Compound ID>
60

>  <Name>


>  <Uniprot>
P40763

>  <Target>
STAT3

>  <Smiles>
CC(=O)N1CC[C@H]2CC[C@@H](C(=O)N[C@@H](CCC(N)=O)C(=O)NC(C3=CC=CC=C3)C3=CC=CC=C3)N2C(=O)[C@@H](NC(=O)C2=CC3=CC(CP(=O)(O)O)=CC=C3[NH]2)C1

>  <Kd (nM)>


>  <Assay (Kd)>


>  <Ki (nM)>
584

>  <Assay (Ki)>
FP

>  <IC50 (nM)>


>  <Assay (IC50)>


>  <EC50 (nM)>


>  <Assay (EC50)>


>  <Article DOI>
10.1021/acs.jmedchem.9b01530

>  <Molecular Weight>
799.822

>  <Exact Mass>
799.3094627

>  <XLogP3>
0.53

>  <Heavy Atom Count>
57

>  <Ring Count>
6

>  <Hydrogen Bond Acceptor Count>
7

>  <Hydrogen Bond Donor Count>
7

>  <Rotatable Bond Count>
13

>  <Topological Polar Surface Area>
244.33

>  <Molecular Formula>
C40H46N7O9P

>  <InChI>
InChI=1S/C40H46N7O9P/c1-24(48)46-19-18-29-13-16-34(47(29)40(53)33(22-46)44-38(51)32-21-28-20-25(23-57(54,55)56)12-14-30(28)42-32)39(52)43-31(15-17-35(41)49)37(50)45-36(26-8-4-2-5-9-26)27-10-6-3-7-11-27/h2-12,14,20-21,29,31,33-34,36,42H,13,15-19,22-23H2,1H3,(H2,41,49)(H,43,52)(H,44,51)(H,45,50)(H2,54,55,56)/t29-,31+,33+,34+/m1/s1

>  <InChI Key>
NBLYOJSHSACQCC-ZDVZOPRYSA-N

>  <BindingDB>
50514300

>  <PubChem>
155544860

>  <ChEMBL>
CHEMBL4567312

$$$$
61
Actelion Java MolfileCreator 2.0

  0  0  0  0  0  0              0 V3000
M  V30 BEGIN CTAB
M  V30 COUNTS 59 63 0 0 0
M  V30 BEGIN ATOM
M  V30 1 P 18.1434 0.8593 0.0 0
M  V30 2 O 17.87 -0.6155 0.0 0
M  V30 3 O 19.6183 0.586 0.0 0
M  V30 4 O 18.4167 2.3342 0.0 0
M  V30 5 C 16.6685 1.1327 0.0 0
M  V30 6 F 16.9419 2.6075 0.0 0
M  V30 7 F 15.5279 2.1068 0.0 0
M  V30 8 C 15.6943 -0.0078 0.0 0
M  V30 9 C 14.2194 0.2654 0.0 0
M  V30 10 C 16.195 -1.4218 0.0 0
M  V30 11 C 13.2453 -0.8751 0.0 0
M  V30 12 C 15.2209 -2.5624 0.0 0
M  V30 13 C 13.746 -2.289 0.0 0
M  V30 14 C 12.7718 -3.4297 0.0 0
M  V30 15 C 11.2969 -3.1563 0.0 0
M  V30 16 C 13.2725 -4.8436 0.0 0
M  V30 17 C 10.3227 -4.2969 0.0 0
M  V30 18 O 10.8235 -5.7109 0.0 0
M  V30 19 N 8.8479 -4.0236 0.0 0
M  V30 20 C 7.8737 -5.1642 0.0 0 CFG=2
M  V30 21 C 6.4471 -4.7006 0.0 0
M  V30 22 C 8.5547 -6.5007 0.0 0
M  V30 23 O 6.3294 -3.2053 0.0 0
M  V30 24 N 5.1106 -5.3816 0.0 0
M  V30 25 N 8.0912 -7.9273 0.0 0
M  V30 26 C 3.8971 -4.5 0.0 0 CFG=2
M  V30 27 C 4.6471 -6.8082 0.0 0 CFG=1
M  V30 28 C 9.2318 -8.9014 0.0 0
M  V30 29 C 6.7546 -8.6083 0.0 0
M  V30 30 C 3.8971 -3.0 0.0 0
M  V30 31 C 2.6835 -5.3816 0.0 0
M  V30 32 C 5.3281 -8.1447 0.0 0
M  V30 33 C 3.1471 -6.8082 0.0 0
M  V30 34 O 8.9584 -10.3763 0.0 0
M  V30 35 C 10.6457 -8.4007 0.0 0
M  V30 36 O 5.1961 -2.25 0.0 0
M  V30 37 N 2.598 -2.25 0.0 0
M  V30 38 C 2.598 -0.75 0.0 0 CFG=2
M  V30 39 C 1.299 0.0 0.0 0
M  V30 40 C 3.8971 0.0 0.0 0
M  V30 41 O 1.299 1.5 0.0 0
M  V30 42 N 0.0 -0.75 0.0 0
M  V30 43 C 5.1961 -0.75 0.0 0
M  V30 44 C -1.299 0.0 0.0 0
M  V30 45 C 6.4951 0.0 0.0 0
M  V30 46 C -2.598 -0.75 0.0 0
M  V30 47 C -1.299 1.5 0.0 0
M  V30 48 O 6.4951 1.5 0.0 0
M  V30 49 N 7.7942 -0.75 0.0 0
M  V30 50 C -2.598 -2.25 0.0 0
M  V30 51 C -3.8971 0.0 0.0 0
M  V30 52 C -2.598 2.25 0.0 0
M  V30 53 C 0.0 2.25 0.0 0
M  V30 54 C -3.8971 -3.0 0.0 0
M  V30 55 C -5.1961 -0.75 0.0 0
M  V30 56 C -2.598 3.75 0.0 0
M  V30 57 C 0.0 3.75 0.0 0
M  V30 58 C -5.1961 -2.25 0.0 0
M  V30 59 C -1.299 4.5 0.0 0
M  V30 END ATOM
M  V30 BEGIN BOND
M  V30 1 2 1 2
M  V30 2 1 1 3
M  V30 3 1 1 4
M  V30 4 1 1 5
M  V30 5 1 5 6
M  V30 6 1 5 7
M  V30 7 1 5 8
M  V30 8 2 8 9
M  V30 9 1 8 10
M  V30 10 1 9 11
M  V30 11 2 10 12
M  V30 12 2 11 13
M  V30 13 1 13 14
M  V30 14 2 14 15
M  V30 15 1 14 16
M  V30 16 1 15 17
M  V30 17 2 17 18
M  V30 18 1 17 19
M  V30 19 1 20 19 CFG=1
M  V30 20 1 20 21
M  V30 21 1 20 22
M  V30 22 2 21 23
M  V30 23 1 21 24
M  V30 24 1 22 25
M  V30 25 1 26 24
M  V30 26 1 27 24 CFG=1
M  V30 27 1 25 28
M  V30 28 1 25 29
M  V30 29 1 26 30 CFG=1
M  V30 30 1 26 31
M  V30 31 1 27 32
M  V30 32 1 27 33
M  V30 33 2 28 34
M  V30 34 1 28 35
M  V30 35 2 30 36
M  V30 36 1 30 37
M  V30 37 1 38 37 CFG=3
M  V30 38 1 38 39
M  V30 39 1 38 40
M  V30 40 2 39 41
M  V30 41 1 39 42
M  V30 42 1 40 43
M  V30 43 1 42 44
M  V30 44 1 43 45
M  V30 45 1 44 46
M  V30 46 1 44 47
M  V30 47 2 45 48
M  V30 48 1 45 49
M  V30 49 2 46 50
M  V30 50 1 46 51
M  V30 51 2 47 52
M  V30 52 1 47 53
M  V30 53 1 50 54
M  V30 54 2 51 55
M  V30 55 1 52 56
M  V30 56 2 53 57
M  V30 57 2 54 58
M  V30 58 2 56 59
M  V30 59 1 12 13
M  V30 60 1 29 32
M  V30 61 1 31 33
M  V30 62 1 55 58
M  V30 63 1 57 59
M  V30 END BOND
M  V30 BEGIN COLLECTION
M  V30 MDLV30/STEABS ATOMS=(4 20 26 27 38)
M  V30 END COLLECTION
M  V30 END CTAB
M  END
>  <Molecule Name>
Compound 114

>  <Molecule Name 2>
Compound 114

>  <Compound ID>
61

>  <Name>


>  <Uniprot>
P40763

>  <Target>
STAT3

>  <Smiles>
CC(=O)N1CC[C@H]2CC[C@@H](C(=O)N[C@@H](CCC(N)=O)C(=O)NC(C3=CC=CC=C3)C3=CC=CC=C3)N2C(=O)[C@@H](NC(=O)/C=C(\C)C2=CC=C(C(F)(F)P(=O)(O)O)C=C2)C1

>  <Kd (nM)>


>  <Assay (Kd)>


>  <Ki (nM)>
164

>  <Assay (Ki)>
FP

>  <IC50 (nM)>


>  <Assay (IC50)>


>  <EC50 (nM)>


>  <Assay (EC50)>


>  <Article DOI>
10.1021/acs.jmedchem.9b01530

>  <Molecular Weight>
836.83

>  <Exact Mass>
836.3110202

>  <XLogP3>
1.86

>  <Heavy Atom Count>
59

>  <Ring Count>
5

>  <Hydrogen Bond Acceptor Count>
7

>  <Hydrogen Bond Donor Count>
6

>  <Rotatable Bond Count>
14

>  <Topological Polar Surface Area>
228.54

>  <Molecular Formula>
C41H47F2N6O9P

>  <InChI>
InChI=1S/C41H47F2N6O9P/c1-25(27-13-15-30(16-14-27)41(42,43)59(56,57)58)23-36(52)45-33-24-48(26(2)50)22-21-31-17-19-34(49(31)40(33)55)39(54)46-32(18-20-35(44)51)38(53)47-37(28-9-5-3-6-10-28)29-11-7-4-8-12-29/h3-16,23,31-34,37H,17-22,24H2,1-2H3,(H2,44,51)(H,45,52)(H,46,54)(H,47,53)(H2,56,57,58)/b25-23+/t31-,32+,33+,34+/m1/s1

>  <InChI Key>
RKOSUZNTELZISV-XZUNAFFLSA-N

>  <BindingDB>
50514304

>  <PubChem>
155549005

>  <ChEMBL>
CHEMBL4538737

$$$$
62
Actelion Java MolfileCreator 2.0

  0  0  0  0  0  0              0 V3000
M  V30 BEGIN CTAB
M  V30 COUNTS 36 39 0 0 0
M  V30 BEGIN ATOM
M  V30 1 Br 17.3205 -0.5 0.0 0
M  V30 2 C 16.4544 0.0 0.0 0
M  V30 3 C 16.4544 0.9999 0.0 0
M  V30 4 C 15.5884 -0.5 0.0 0
M  V30 5 C 15.5884 1.4999 0.0 0
M  V30 6 C 14.7224 0.0 0.0 0
M  V30 7 C 14.7224 0.9999 0.0 0
M  V30 8 S 13.8564 1.4999 0.0 0
M  V30 9 C 12.9903 0.9999 0.0 0
M  V30 10 C 12.1243 1.4999 0.0 0
M  V30 11 C 12.9903 0.0 0.0 0
M  V30 12 C 11.2583 0.9999 0.0 0
M  V30 13 C 12.1243 2.4999 0.0 0
M  V30 14 C 12.1243 -0.5 0.0 0
M  V30 15 C 11.2583 0.0 0.0 0
M  V30 16 C 10.3923 1.4999 0.0 0
M  V30 17 C 11.2583 2.9999 0.0 0
M  V30 18 C 10.3923 -0.5 0.0 0
M  V30 19 C 9.5262 0.9999 0.0 0
M  V30 20 C 10.3923 2.4999 0.0 0
M  V30 21 O 10.3923 -1.5 0.0 0
M  V30 22 N 9.5262 0.0 0.0 0
M  V30 23 O 8.6602 1.5 0.0 0
M  V30 24 C 8.6602 -0.5 0.0 0
M  V30 25 C 7.7942 0.0 0.0 0
M  V30 26 N 6.9282 -0.5 0.0 0
M  V30 27 C 6.0621 0.0 0.0 0
M  V30 28 O 6.0621 0.9999 0.0 0
M  V30 29 C 5.1961 -0.5 0.0 0
M  V30 30 C 4.3301 0.0 0.0 0
M  V30 31 C 3.4641 -0.5 0.0 0
M  V30 32 C 2.598 0.0 0.0 0
M  V30 33 C 1.732 -0.5 0.0 0
M  V30 34 O 1.732 -1.5 0.0 0
M  V30 35 O 0.866 0.0 0.0 0
M  V30 36 C 0.0 -0.5 0.0 0
M  V30 END ATOM
M  V30 BEGIN BOND
M  V30 1 1 1 2
M  V30 2 2 2 3
M  V30 3 1 2 4
M  V30 4 1 3 5
M  V30 5 2 4 6
M  V30 6 2 5 7
M  V30 7 1 7 8
M  V30 8 1 8 9
M  V30 9 1 9 10
M  V30 10 2 9 11
M  V30 11 1 10 12
M  V30 12 2 10 13
M  V30 13 1 11 14
M  V30 14 1 12 15
M  V30 15 2 12 16
M  V30 16 1 13 17
M  V30 17 1 15 18
M  V30 18 1 16 19
M  V30 19 1 16 20
M  V30 20 2 18 21
M  V30 21 1 18 22
M  V30 22 2 19 23
M  V30 23 1 22 24
M  V30 24 1 24 25
M  V30 25 1 25 26
M  V30 26 1 26 27
M  V30 27 2 27 28
M  V30 28 1 27 29
M  V30 29 1 29 30
M  V30 30 1 30 31
M  V30 31 1 31 32
M  V30 32 1 32 33
M  V30 33 2 33 34
M  V30 34 1 33 35
M  V30 35 1 35 36
M  V30 36 1 6 7
M  V30 37 2 14 15
M  V30 38 2 17 20
M  V30 39 1 19 22
M  V30 END BOND
M  V30 END CTAB
M  END
>  <Molecule Name>
Compound 115

>  <Molecule Name 2>
Compound 115

>  <Compound ID>
62

>  <Name>


>  <Uniprot>
P10415

>  <Target>
BCL2

>  <Smiles>
COC(=O)CCCCC(=O)NCCN1C(=O)C2=C3C(=CC=C(SC4=CC=C(Br)C=C4)C3=CC=C2)C1=O

>  <Kd (nM)>


>  <Assay (Kd)>


>  <Ki (nM)>


>  <Assay (Ki)>


>  <IC50 (nM)>
4780

>  <Assay (IC50)>
IC50 of BCL2 was assessed by ELISA

>  <EC50 (nM)>


>  <Assay (EC50)>


>  <Article DOI>
10.1021/acs.jmedchem.9b00919

>  <Molecular Weight>
569.477

>  <Exact Mass>
568.066755

>  <XLogP3>
4.7

>  <Heavy Atom Count>
36

>  <Ring Count>
4

>  <Hydrogen Bond Acceptor Count>
6

>  <Hydrogen Bond Donor Count>
1

>  <Rotatable Bond Count>
10

>  <Topological Polar Surface Area>
92.78

>  <Molecular Formula>
C27H25BrN2O5S

>  <InChI>
InChI=1S/C27H25BrN2O5S/c1-35-24(32)8-3-2-7-23(31)29-15-16-30-26(33)20-6-4-5-19-22(14-13-21(25(19)20)27(30)34)36-18-11-9-17(28)10-12-18/h4-6,9-14H,2-3,7-8,15-16H2,1H3,(H,29,31)

>  <InChI Key>
HZZXWFWVQWMGAR-UHFFFAOYSA-N

>  <BindingDB>


>  <PubChem>
145712377

>  <ChEMBL>


$$$$
62
Actelion Java MolfileCreator 2.0

  0  0  0  0  0  0              0 V3000
M  V30 BEGIN CTAB
M  V30 COUNTS 36 39 0 0 0
M  V30 BEGIN ATOM
M  V30 1 Br 17.3205 -0.5 0.0 0
M  V30 2 C 16.4544 0.0 0.0 0
M  V30 3 C 16.4544 0.9999 0.0 0
M  V30 4 C 15.5884 -0.5 0.0 0
M  V30 5 C 15.5884 1.4999 0.0 0
M  V30 6 C 14.7224 0.0 0.0 0
M  V30 7 C 14.7224 0.9999 0.0 0
M  V30 8 S 13.8564 1.4999 0.0 0
M  V30 9 C 12.9903 0.9999 0.0 0
M  V30 10 C 12.1243 1.4999 0.0 0
M  V30 11 C 12.9903 0.0 0.0 0
M  V30 12 C 11.2583 0.9999 0.0 0
M  V30 13 C 12.1243 2.4999 0.0 0
M  V30 14 C 12.1243 -0.5 0.0 0
M  V30 15 C 11.2583 0.0 0.0 0
M  V30 16 C 10.3923 1.4999 0.0 0
M  V30 17 C 11.2583 2.9999 0.0 0
M  V30 18 C 10.3923 -0.5 0.0 0
M  V30 19 C 9.5262 0.9999 0.0 0
M  V30 20 C 10.3923 2.4999 0.0 0
M  V30 21 O 10.3923 -1.5 0.0 0
M  V30 22 N 9.5262 0.0 0.0 0
M  V30 23 O 8.6602 1.5 0.0 0
M  V30 24 C 8.6602 -0.5 0.0 0
M  V30 25 C 7.7942 0.0 0.0 0
M  V30 26 N 6.9282 -0.5 0.0 0
M  V30 27 C 6.0621 0.0 0.0 0
M  V30 28 O 6.0621 0.9999 0.0 0
M  V30 29 C 5.1961 -0.5 0.0 0
M  V30 30 C 4.3301 0.0 0.0 0
M  V30 31 C 3.4641 -0.5 0.0 0
M  V30 32 C 2.598 0.0 0.0 0
M  V30 33 C 1.732 -0.5 0.0 0
M  V30 34 O 1.732 -1.5 0.0 0
M  V30 35 O 0.866 0.0 0.0 0
M  V30 36 C 0.0 -0.5 0.0 0
M  V30 END ATOM
M  V30 BEGIN BOND
M  V30 1 1 1 2
M  V30 2 2 2 3
M  V30 3 1 2 4
M  V30 4 1 3 5
M  V30 5 2 4 6
M  V30 6 2 5 7
M  V30 7 1 7 8
M  V30 8 1 8 9
M  V30 9 1 9 10
M  V30 10 2 9 11
M  V30 11 1 10 12
M  V30 12 2 10 13
M  V30 13 1 11 14
M  V30 14 1 12 15
M  V30 15 2 12 16
M  V30 16 1 13 17
M  V30 17 1 15 18
M  V30 18 1 16 19
M  V30 19 1 16 20
M  V30 20 2 18 21
M  V30 21 1 18 22
M  V30 22 2 19 23
M  V30 23 1 22 24
M  V30 24 1 24 25
M  V30 25 1 25 26
M  V30 26 1 26 27
M  V30 27 2 27 28
M  V30 28 1 27 29
M  V30 29 1 29 30
M  V30 30 1 30 31
M  V30 31 1 31 32
M  V30 32 1 32 33
M  V30 33 2 33 34
M  V30 34 1 33 35
M  V30 35 1 35 36
M  V30 36 1 6 7
M  V30 37 2 14 15
M  V30 38 2 17 20
M  V30 39 1 19 22
M  V30 END BOND
M  V30 END CTAB
M  END
>  <Molecule Name>
Compound 116

>  <Molecule Name 2>
Compound 116

>  <Compound ID>
62

>  <Name>


>  <Uniprot>
Q07820

>  <Target>
MCL1

>  <Smiles>
COC(=O)CCCCC(=O)NCCN1C(=O)C2=C3C(=CC=C(SC4=CC=C(Br)C=C4)C3=CC=C2)C1=O

>  <Kd (nM)>


>  <Assay (Kd)>


>  <Ki (nM)>


>  <Assay (Ki)>


>  <IC50 (nM)>
5950

>  <Assay (IC50)>
IC50 of MCL1 was assessed by ELISA

>  <EC50 (nM)>


>  <Assay (EC50)>


>  <Article DOI>
10.1021/acs.jmedchem.9b00919

>  <Molecular Weight>
569.477

>  <Exact Mass>
568.066755

>  <XLogP3>
4.7

>  <Heavy Atom Count>
36

>  <Ring Count>
4

>  <Hydrogen Bond Acceptor Count>
6

>  <Hydrogen Bond Donor Count>
1

>  <Rotatable Bond Count>
10

>  <Topological Polar Surface Area>
92.78

>  <Molecular Formula>
C27H25BrN2O5S

>  <InChI>
InChI=1S/C27H25BrN2O5S/c1-35-24(32)8-3-2-7-23(31)29-15-16-30-26(33)20-6-4-5-19-22(14-13-21(25(19)20)27(30)34)36-18-11-9-17(28)10-12-18/h4-6,9-14H,2-3,7-8,15-16H2,1H3,(H,29,31)

>  <InChI Key>
HZZXWFWVQWMGAR-UHFFFAOYSA-N

>  <BindingDB>


>  <PubChem>
145712377

>  <ChEMBL>


$$$$
63
Actelion Java MolfileCreator 2.0

  0  0  0  0  0  0              0 V3000
M  V30 BEGIN CTAB
M  V30 COUNTS 30 33 0 0 0
M  V30 BEGIN ATOM
M  V30 1 Br 7.7942 -6.0 0.0 0
M  V30 2 C 7.7942 -5.0 0.0 0
M  V30 3 C 8.6602 -4.5 0.0 0
M  V30 4 C 6.9282 -4.5 0.0 0
M  V30 5 C 8.6602 -3.5 0.0 0
M  V30 6 C 6.9282 -3.5 0.0 0
M  V30 7 C 7.7942 -3.0 0.0 0
M  V30 8 S 7.7942 -2.0 0.0 0
M  V30 9 C 6.9282 -1.5 0.0 0
M  V30 10 C 6.9282 -0.5 0.0 0
M  V30 11 C 6.0621 -2.0 0.0 0
M  V30 12 C 6.0621 0.0 0.0 0
M  V30 13 C 7.7942 0.0 0.0 0
M  V30 14 C 5.1961 -1.5 0.0 0
M  V30 15 C 5.1961 -0.5 0.0 0
M  V30 16 C 6.0621 0.9999 0.0 0
M  V30 17 C 7.7942 0.9999 0.0 0
M  V30 18 C 4.3301 0.0 0.0 0
M  V30 19 C 5.1961 1.4999 0.0 0
M  V30 20 C 6.9282 1.4999 0.0 0
M  V30 21 N 3.4641 -0.5 0.0 0
M  V30 22 C 4.3301 1.0 0.0 0
M  V30 23 O 5.1961 2.4999 0.0 0
M  V30 24 C 2.598 0.0 0.0 0
M  V30 25 C 3.4641 1.5 0.0 0
M  V30 26 C 1.732 -0.5 0.0 0
M  V30 27 N 2.598 2.0 0.0 0
M  V30 28 C 0.866 0.0 0.0 0
M  V30 29 O 0.866 1.0 0.0 0
M  V30 30 C 0.0 -0.5 0.0 0
M  V30 END ATOM
M  V30 BEGIN BOND
M  V30 1 1 1 2
M  V30 2 2 2 3
M  V30 3 1 2 4
M  V30 4 1 3 5
M  V30 5 2 4 6
M  V30 6 2 5 7
M  V30 7 1 7 8
M  V30 8 1 8 9
M  V30 9 1 9 10
M  V30 10 2 9 11
M  V30 11 1 10 12
M  V30 12 2 10 13
M  V30 13 1 11 14
M  V30 14 1 12 15
M  V30 15 2 12 16
M  V30 16 1 13 17
M  V30 17 1 15 18
M  V30 18 1 16 19
M  V30 19 1 16 20
M  V30 20 1 18 21
M  V30 21 2 18 22
M  V30 22 2 19 23
M  V30 23 1 21 24
M  V30 24 1 22 25
M  V30 25 1 24 26
M  V30 26 3 25 27
M  V30 27 1 26 28
M  V30 28 2 28 29
M  V30 29 1 28 30
M  V30 30 1 6 7
M  V30 31 2 14 15
M  V30 32 2 17 20
M  V30 33 1 19 22
M  V30 END BOND
M  V30 END CTAB
M  END
>  <Molecule Name>
Compound 117

>  <Molecule Name 2>
Compound 117

>  <Compound ID>
63

>  <Name>


>  <Uniprot>
P10415

>  <Target>
BCL2

>  <Smiles>
CC(=O)CCNC1=C(C#N)C(=O)C2=C3C1=CC=C(SC1=CC=C(Br)C=C1)C3=CC=C2

>  <Kd (nM)>


>  <Assay (Kd)>


>  <Ki (nM)>


>  <Assay (Ki)>


>  <IC50 (nM)>
4520

>  <Assay (IC50)>
IC50 of BCL2 was assessed by ELISA

>  <EC50 (nM)>


>  <Assay (EC50)>


>  <Article DOI>
10.1021/acs.jmedchem.9b00919

>  <Molecular Weight>
477.383

>  <Exact Mass>
476.0194109

>  <XLogP3>
5.78

>  <Heavy Atom Count>
30

>  <Ring Count>
4

>  <Hydrogen Bond Acceptor Count>
5

>  <Hydrogen Bond Donor Count>
1

>  <Rotatable Bond Count>
6

>  <Topological Polar Surface Area>
69.96

>  <Molecular Formula>
C24H17BrN2O2S

>  <InChI>
InChI=1S/C24H17BrN2O2S/c1-14(28)11-12-27-23-18-9-10-21(30-16-7-5-15(25)6-8-16)17-3-2-4-19(22(17)18)24(29)20(23)13-26/h2-10,27H,11-12H2,1H3

>  <InChI Key>
RQTPEUYNUKDSQP-UHFFFAOYSA-N

>  <BindingDB>


>  <PubChem>


>  <ChEMBL>


$$$$
63
Actelion Java MolfileCreator 2.0

  0  0  0  0  0  0              0 V3000
M  V30 BEGIN CTAB
M  V30 COUNTS 30 33 0 0 0
M  V30 BEGIN ATOM
M  V30 1 Br 7.7942 -6.0 0.0 0
M  V30 2 C 7.7942 -5.0 0.0 0
M  V30 3 C 8.6602 -4.5 0.0 0
M  V30 4 C 6.9282 -4.5 0.0 0
M  V30 5 C 8.6602 -3.5 0.0 0
M  V30 6 C 6.9282 -3.5 0.0 0
M  V30 7 C 7.7942 -3.0 0.0 0
M  V30 8 S 7.7942 -2.0 0.0 0
M  V30 9 C 6.9282 -1.5 0.0 0
M  V30 10 C 6.9282 -0.5 0.0 0
M  V30 11 C 6.0621 -2.0 0.0 0
M  V30 12 C 6.0621 0.0 0.0 0
M  V30 13 C 7.7942 0.0 0.0 0
M  V30 14 C 5.1961 -1.5 0.0 0
M  V30 15 C 5.1961 -0.5 0.0 0
M  V30 16 C 6.0621 0.9999 0.0 0
M  V30 17 C 7.7942 0.9999 0.0 0
M  V30 18 C 4.3301 0.0 0.0 0
M  V30 19 C 5.1961 1.4999 0.0 0
M  V30 20 C 6.9282 1.4999 0.0 0
M  V30 21 N 3.4641 -0.5 0.0 0
M  V30 22 C 4.3301 1.0 0.0 0
M  V30 23 O 5.1961 2.4999 0.0 0
M  V30 24 C 2.598 0.0 0.0 0
M  V30 25 C 3.4641 1.5 0.0 0
M  V30 26 C 1.732 -0.5 0.0 0
M  V30 27 N 2.598 2.0 0.0 0
M  V30 28 C 0.866 0.0 0.0 0
M  V30 29 O 0.866 1.0 0.0 0
M  V30 30 C 0.0 -0.5 0.0 0
M  V30 END ATOM
M  V30 BEGIN BOND
M  V30 1 1 1 2
M  V30 2 2 2 3
M  V30 3 1 2 4
M  V30 4 1 3 5
M  V30 5 2 4 6
M  V30 6 2 5 7
M  V30 7 1 7 8
M  V30 8 1 8 9
M  V30 9 1 9 10
M  V30 10 2 9 11
M  V30 11 1 10 12
M  V30 12 2 10 13
M  V30 13 1 11 14
M  V30 14 1 12 15
M  V30 15 2 12 16
M  V30 16 1 13 17
M  V30 17 1 15 18
M  V30 18 1 16 19
M  V30 19 1 16 20
M  V30 20 1 18 21
M  V30 21 2 18 22
M  V30 22 2 19 23
M  V30 23 1 21 24
M  V30 24 1 22 25
M  V30 25 1 24 26
M  V30 26 3 25 27
M  V30 27 1 26 28
M  V30 28 2 28 29
M  V30 29 1 28 30
M  V30 30 1 6 7
M  V30 31 2 14 15
M  V30 32 2 17 20
M  V30 33 1 19 22
M  V30 END BOND
M  V30 END CTAB
M  END
>  <Molecule Name>
Compound 118

>  <Molecule Name 2>
Compound 118

>  <Compound ID>
63

>  <Name>


>  <Uniprot>
Q07820

>  <Target>
MCL1

>  <Smiles>
CC(=O)CCNC1=C(C#N)C(=O)C2=C3C1=CC=C(SC1=CC=C(Br)C=C1)C3=CC=C2

>  <Kd (nM)>


>  <Assay (Kd)>


>  <Ki (nM)>


>  <Assay (Ki)>


>  <IC50 (nM)>
3460

>  <Assay (IC50)>
IC50 of MCL1 was assessed by ELISA

>  <EC50 (nM)>


>  <Assay (EC50)>


>  <Article DOI>
10.1021/acs.jmedchem.9b00919

>  <Molecular Weight>
477.383

>  <Exact Mass>
476.0194109

>  <XLogP3>
5.78

>  <Heavy Atom Count>
30

>  <Ring Count>
4

>  <Hydrogen Bond Acceptor Count>
5

>  <Hydrogen Bond Donor Count>
1

>  <Rotatable Bond Count>
6

>  <Topological Polar Surface Area>
69.96

>  <Molecular Formula>
C24H17BrN2O2S

>  <InChI>
InChI=1S/C24H17BrN2O2S/c1-14(28)11-12-27-23-18-9-10-21(30-16-7-5-15(25)6-8-16)17-3-2-4-19(22(17)18)24(29)20(23)13-26/h2-10,27H,11-12H2,1H3

>  <InChI Key>
RQTPEUYNUKDSQP-UHFFFAOYSA-N

>  <BindingDB>


>  <PubChem>


>  <ChEMBL>


$$$$
64
Actelion Java MolfileCreator 2.0

  0  0  0  0  0  0              0 V3000
M  V30 BEGIN CTAB
M  V30 COUNTS 33 36 0 0 0
M  V30 BEGIN ATOM
M  V30 1 Cl 2.598 1.0 0.0 0
M  V30 2 C 2.598 0.0 0.0 0
M  V30 3 C 1.732 -0.5 0.0 0
M  V30 4 C 3.4641 -0.4999 0.0 0
M  V30 5 N 1.732 -1.5 0.0 0
M  V30 6 N 0.866 0.0 0.0 0
M  V30 7 N 3.4641 -1.4999 0.0 0
M  V30 8 C 2.598 -1.9999 0.0 0
M  V30 9 C 0.0 -0.5 0.0 0
M  V30 10 N 2.598 -2.9999 0.0 0
M  V30 11 C -0.866 0.0 0.0 0
M  V30 12 C 0.0 -1.4999 0.0 0
M  V30 13 C 3.4641 -3.4999 0.0 0
M  V30 14 P -0.866 1.0 0.0 0
M  V30 15 C -1.732 -0.4999 0.0 0
M  V30 16 C -0.866 -1.9999 0.0 0
M  V30 17 C 3.4641 -4.4999 0.0 0
M  V30 18 C 4.3301 -2.9999 0.0 0
M  V30 19 O 0.1339 0.9999 0.0 0
M  V30 20 C -0.866 2.0 0.0 0
M  V30 21 C -1.866 1.0 0.0 0
M  V30 22 C -1.732 -1.4999 0.0 0
M  V30 23 O 2.598 -4.9999 0.0 0
M  V30 24 C 4.3301 -4.9999 0.0 0
M  V30 25 C 5.1961 -3.4999 0.0 0
M  V30 26 C 2.598 -5.9999 0.0 0
M  V30 27 C 5.1961 -4.4999 0.0 0
M  V30 28 N 6.0621 -4.9999 0.0 0
M  V30 29 C 6.0621 -5.9999 0.0 0
M  V30 30 C 6.9282 -4.4999 0.0 0
M  V30 31 C 6.9282 -6.4999 0.0 0
M  V30 32 C 7.7942 -4.9999 0.0 0
M  V30 33 N 7.7942 -5.9999 0.0 0
M  V30 END ATOM
M  V30 BEGIN BOND
M  V30 1 1 1 2
M  V30 2 2 2 3
M  V30 3 1 2 4
M  V30 4 1 3 5
M  V30 5 1 3 6
M  V30 6 2 4 7
M  V30 7 2 5 8
M  V30 8 1 6 9
M  V30 9 1 8 10
M  V30 10 2 9 11
M  V30 11 1 9 12
M  V30 12 1 10 13
M  V30 13 1 11 14
M  V30 14 1 11 15
M  V30 15 2 12 16
M  V30 16 2 13 17
M  V30 17 1 13 18
M  V30 18 2 14 19
M  V30 19 1 14 20
M  V30 20 1 14 21
M  V30 21 2 15 22
M  V30 22 1 17 23
M  V30 23 1 17 24
M  V30 24 2 18 25
M  V30 25 1 23 26
M  V30 26 2 24 27
M  V30 27 1 27 28
M  V30 28 1 28 29
M  V30 29 1 28 30
M  V30 30 1 29 31
M  V30 31 1 30 32
M  V30 32 1 31 33
M  V30 33 1 7 8
M  V30 34 1 16 22
M  V30 35 1 25 27
M  V30 36 1 32 33
M  V30 END BOND
M  V30 END CTAB
M  END
>  <Molecule Name>
Compound 119

>  <Molecule Name 2>
Compound 119

>  <Compound ID>
64

>  <Name>
Brigatinib A

>  <Uniprot>
Q9UM73

>  <Target>
ALK

>  <Smiles>
COC1=CC(N2CCNCC2)=CC=C1NC1=NC=C(Cl)C(NC2=CC=CC=C2P(C)(C)=O)=N1

>  <Kd (nM)>


>  <Assay (Kd)>


>  <Ki (nM)>


>  <Assay (Ki)>


>  <IC50 (nM)>
1.6

>  <Assay (IC50)>
Inhibit proliferation of SR cells

>  <EC50 (nM)>


>  <Assay (EC50)>


>  <Article DOI>
10.1016/j.ejmech.2020.112190

>  <Molecular Weight>
486.944

>  <Exact Mass>
486.1699884

>  <XLogP3>
3.59

>  <Heavy Atom Count>
33

>  <Ring Count>
4

>  <Hydrogen Bond Acceptor Count>
8

>  <Hydrogen Bond Donor Count>
3

>  <Rotatable Bond Count>
7

>  <Topological Polar Surface Area>
91.41

>  <Molecular Formula>
C23H28ClN6O2P

>  <InChI>
InChI=1S/C23H28ClN6O2P/c1-32-20-14-16(30-12-10-25-11-13-30)8-9-18(20)28-23-26-15-17(24)22(29-23)27-19-6-4-5-7-21(19)33(2,3)31/h4-9,14-15,25H,10-13H2,1-3H3,(H2,26,27,28,29)

>  <InChI Key>
YVXLIHUPXSTEHG-UHFFFAOYSA-N

>  <BindingDB>


>  <PubChem>
68165331

>  <ChEMBL>
CHEMBL4745797

$$$$
64
Actelion Java MolfileCreator 2.0

  0  0  0  0  0  0              0 V3000
M  V30 BEGIN CTAB
M  V30 COUNTS 33 36 0 0 0
M  V30 BEGIN ATOM
M  V30 1 Cl 2.598 1.0 0.0 0
M  V30 2 C 2.598 0.0 0.0 0
M  V30 3 C 1.732 -0.5 0.0 0
M  V30 4 C 3.4641 -0.4999 0.0 0
M  V30 5 N 1.732 -1.5 0.0 0
M  V30 6 N 0.866 0.0 0.0 0
M  V30 7 N 3.4641 -1.4999 0.0 0
M  V30 8 C 2.598 -1.9999 0.0 0
M  V30 9 C 0.0 -0.5 0.0 0
M  V30 10 N 2.598 -2.9999 0.0 0
M  V30 11 C -0.866 0.0 0.0 0
M  V30 12 C 0.0 -1.4999 0.0 0
M  V30 13 C 3.4641 -3.4999 0.0 0
M  V30 14 P -0.866 1.0 0.0 0
M  V30 15 C -1.732 -0.4999 0.0 0
M  V30 16 C -0.866 -1.9999 0.0 0
M  V30 17 C 3.4641 -4.4999 0.0 0
M  V30 18 C 4.3301 -2.9999 0.0 0
M  V30 19 O 0.1339 0.9999 0.0 0
M  V30 20 C -0.866 2.0 0.0 0
M  V30 21 C -1.866 1.0 0.0 0
M  V30 22 C -1.732 -1.4999 0.0 0
M  V30 23 O 2.598 -4.9999 0.0 0
M  V30 24 C 4.3301 -4.9999 0.0 0
M  V30 25 C 5.1961 -3.4999 0.0 0
M  V30 26 C 2.598 -5.9999 0.0 0
M  V30 27 C 5.1961 -4.4999 0.0 0
M  V30 28 N 6.0621 -4.9999 0.0 0
M  V30 29 C 6.0621 -5.9999 0.0 0
M  V30 30 C 6.9282 -4.4999 0.0 0
M  V30 31 C 6.9282 -6.4999 0.0 0
M  V30 32 C 7.7942 -4.9999 0.0 0
M  V30 33 N 7.7942 -5.9999 0.0 0
M  V30 END ATOM
M  V30 BEGIN BOND
M  V30 1 1 1 2
M  V30 2 2 2 3
M  V30 3 1 2 4
M  V30 4 1 3 5
M  V30 5 1 3 6
M  V30 6 2 4 7
M  V30 7 2 5 8
M  V30 8 1 6 9
M  V30 9 1 8 10
M  V30 10 2 9 11
M  V30 11 1 9 12
M  V30 12 1 10 13
M  V30 13 1 11 14
M  V30 14 1 11 15
M  V30 15 2 12 16
M  V30 16 2 13 17
M  V30 17 1 13 18
M  V30 18 2 14 19
M  V30 19 1 14 20
M  V30 20 1 14 21
M  V30 21 2 15 22
M  V30 22 1 17 23
M  V30 23 1 17 24
M  V30 24 2 18 25
M  V30 25 1 23 26
M  V30 26 2 24 27
M  V30 27 1 27 28
M  V30 28 1 28 29
M  V30 29 1 28 30
M  V30 30 1 29 31
M  V30 31 1 30 32
M  V30 32 1 31 33
M  V30 33 1 7 8
M  V30 34 1 16 22
M  V30 35 1 25 27
M  V30 36 1 32 33
M  V30 END BOND
M  V30 END CTAB
M  END
>  <Molecule Name>
Compound 120

>  <Molecule Name 2>
Compound 120

>  <Compound ID>
64

>  <Name>
Brigatinib A

>  <Uniprot>
P00533

>  <Target>
EGFR del19/T790M/C797S

>  <Smiles>
COC1=CC(N2CCNCC2)=CC=C1NC1=NC=C(Cl)C(NC2=CC=CC=C2P(C)(C)=O)=N1

>  <Kd (nM)>


>  <Assay (Kd)>


>  <Ki (nM)>


>  <Assay (Ki)>


>  <IC50 (nM)>


>  <Assay (IC50)>


>  <EC50 (nM)>


>  <Assay (EC50)>


>  <Article DOI>
10.1021/acsmedchemlett.1c00645

>  <Molecular Weight>
486.944

>  <Exact Mass>
486.1699884

>  <XLogP3>
3.59

>  <Heavy Atom Count>
33

>  <Ring Count>
4

>  <Hydrogen Bond Acceptor Count>
8

>  <Hydrogen Bond Donor Count>
3

>  <Rotatable Bond Count>
7

>  <Topological Polar Surface Area>
91.41

>  <Molecular Formula>
C23H28ClN6O2P

>  <InChI>
InChI=1S/C23H28ClN6O2P/c1-32-20-14-16(30-12-10-25-11-13-30)8-9-18(20)28-23-26-15-17(24)22(29-23)27-19-6-4-5-7-21(19)33(2,3)31/h4-9,14-15,25H,10-13H2,1-3H3,(H2,26,27,28,29)

>  <InChI Key>
YVXLIHUPXSTEHG-UHFFFAOYSA-N

>  <BindingDB>


>  <PubChem>
68165331

>  <ChEMBL>
CHEMBL4745797

$$$$
64
Actelion Java MolfileCreator 2.0

  0  0  0  0  0  0              0 V3000
M  V30 BEGIN CTAB
M  V30 COUNTS 33 36 0 0 0
M  V30 BEGIN ATOM
M  V30 1 Cl 2.598 1.0 0.0 0
M  V30 2 C 2.598 0.0 0.0 0
M  V30 3 C 1.732 -0.5 0.0 0
M  V30 4 C 3.4641 -0.4999 0.0 0
M  V30 5 N 1.732 -1.5 0.0 0
M  V30 6 N 0.866 0.0 0.0 0
M  V30 7 N 3.4641 -1.4999 0.0 0
M  V30 8 C 2.598 -1.9999 0.0 0
M  V30 9 C 0.0 -0.5 0.0 0
M  V30 10 N 2.598 -2.9999 0.0 0
M  V30 11 C -0.866 0.0 0.0 0
M  V30 12 C 0.0 -1.4999 0.0 0
M  V30 13 C 3.4641 -3.4999 0.0 0
M  V30 14 P -0.866 1.0 0.0 0
M  V30 15 C -1.732 -0.4999 0.0 0
M  V30 16 C -0.866 -1.9999 0.0 0
M  V30 17 C 3.4641 -4.4999 0.0 0
M  V30 18 C 4.3301 -2.9999 0.0 0
M  V30 19 O 0.1339 0.9999 0.0 0
M  V30 20 C -0.866 2.0 0.0 0
M  V30 21 C -1.866 1.0 0.0 0
M  V30 22 C -1.732 -1.4999 0.0 0
M  V30 23 O 2.598 -4.9999 0.0 0
M  V30 24 C 4.3301 -4.9999 0.0 0
M  V30 25 C 5.1961 -3.4999 0.0 0
M  V30 26 C 2.598 -5.9999 0.0 0
M  V30 27 C 5.1961 -4.4999 0.0 0
M  V30 28 N 6.0621 -4.9999 0.0 0
M  V30 29 C 6.0621 -5.9999 0.0 0
M  V30 30 C 6.9282 -4.4999 0.0 0
M  V30 31 C 6.9282 -6.4999 0.0 0
M  V30 32 C 7.7942 -4.9999 0.0 0
M  V30 33 N 7.7942 -5.9999 0.0 0
M  V30 END ATOM
M  V30 BEGIN BOND
M  V30 1 1 1 2
M  V30 2 2 2 3
M  V30 3 1 2 4
M  V30 4 1 3 5
M  V30 5 1 3 6
M  V30 6 2 4 7
M  V30 7 2 5 8
M  V30 8 1 6 9
M  V30 9 1 8 10
M  V30 10 2 9 11
M  V30 11 1 9 12
M  V30 12 1 10 13
M  V30 13 1 11 14
M  V30 14 1 11 15
M  V30 15 2 12 16
M  V30 16 2 13 17
M  V30 17 1 13 18
M  V30 18 2 14 19
M  V30 19 1 14 20
M  V30 20 1 14 21
M  V30 21 2 15 22
M  V30 22 1 17 23
M  V30 23 1 17 24
M  V30 24 2 18 25
M  V30 25 1 23 26
M  V30 26 2 24 27
M  V30 27 1 27 28
M  V30 28 1 28 29
M  V30 29 1 28 30
M  V30 30 1 29 31
M  V30 31 1 30 32
M  V30 32 1 31 33
M  V30 33 1 7 8
M  V30 34 1 16 22
M  V30 35 1 25 27
M  V30 36 1 32 33
M  V30 END BOND
M  V30 END CTAB
M  END
>  <Molecule Name>
Compound 121

>  <Molecule Name 2>
Compound 121

>  <Compound ID>
64

>  <Name>
Brigatinib A

>  <Uniprot>
P00533

>  <Target>
EGFR e19d

>  <Smiles>
COC1=CC(N2CCNCC2)=CC=C1NC1=NC=C(Cl)C(NC2=CC=CC=C2P(C)(C)=O)=N1

>  <Kd (nM)>


>  <Assay (Kd)>


>  <Ki (nM)>


>  <Assay (Ki)>


>  <IC50 (nM)>


>  <Assay (IC50)>


>  <EC50 (nM)>


>  <Assay (EC50)>


>  <Article DOI>
10.1021/acsmedchemlett.1c00645

>  <Molecular Weight>
486.944

>  <Exact Mass>
486.1699884

>  <XLogP3>
3.59

>  <Heavy Atom Count>
33

>  <Ring Count>
4

>  <Hydrogen Bond Acceptor Count>
8

>  <Hydrogen Bond Donor Count>
3

>  <Rotatable Bond Count>
7

>  <Topological Polar Surface Area>
91.41

>  <Molecular Formula>
C23H28ClN6O2P

>  <InChI>
InChI=1S/C23H28ClN6O2P/c1-32-20-14-16(30-12-10-25-11-13-30)8-9-18(20)28-23-26-15-17(24)22(29-23)27-19-6-4-5-7-21(19)33(2,3)31/h4-9,14-15,25H,10-13H2,1-3H3,(H2,26,27,28,29)

>  <InChI Key>
YVXLIHUPXSTEHG-UHFFFAOYSA-N

>  <BindingDB>


>  <PubChem>
68165331

>  <ChEMBL>
CHEMBL4745797

$$$$
64
Actelion Java MolfileCreator 2.0

  0  0  0  0  0  0              0 V3000
M  V30 BEGIN CTAB
M  V30 COUNTS 33 36 0 0 0
M  V30 BEGIN ATOM
M  V30 1 Cl 2.598 1.0 0.0 0
M  V30 2 C 2.598 0.0 0.0 0
M  V30 3 C 1.732 -0.5 0.0 0
M  V30 4 C 3.4641 -0.4999 0.0 0
M  V30 5 N 1.732 -1.5 0.0 0
M  V30 6 N 0.866 0.0 0.0 0
M  V30 7 N 3.4641 -1.4999 0.0 0
M  V30 8 C 2.598 -1.9999 0.0 0
M  V30 9 C 0.0 -0.5 0.0 0
M  V30 10 N 2.598 -2.9999 0.0 0
M  V30 11 C -0.866 0.0 0.0 0
M  V30 12 C 0.0 -1.4999 0.0 0
M  V30 13 C 3.4641 -3.4999 0.0 0
M  V30 14 P -0.866 1.0 0.0 0
M  V30 15 C -1.732 -0.4999 0.0 0
M  V30 16 C -0.866 -1.9999 0.0 0
M  V30 17 C 3.4641 -4.4999 0.0 0
M  V30 18 C 4.3301 -2.9999 0.0 0
M  V30 19 O 0.1339 0.9999 0.0 0
M  V30 20 C -0.866 2.0 0.0 0
M  V30 21 C -1.866 1.0 0.0 0
M  V30 22 C -1.732 -1.4999 0.0 0
M  V30 23 O 2.598 -4.9999 0.0 0
M  V30 24 C 4.3301 -4.9999 0.0 0
M  V30 25 C 5.1961 -3.4999 0.0 0
M  V30 26 C 2.598 -5.9999 0.0 0
M  V30 27 C 5.1961 -4.4999 0.0 0
M  V30 28 N 6.0621 -4.9999 0.0 0
M  V30 29 C 6.0621 -5.9999 0.0 0
M  V30 30 C 6.9282 -4.4999 0.0 0
M  V30 31 C 6.9282 -6.4999 0.0 0
M  V30 32 C 7.7942 -4.9999 0.0 0
M  V30 33 N 7.7942 -5.9999 0.0 0
M  V30 END ATOM
M  V30 BEGIN BOND
M  V30 1 1 1 2
M  V30 2 2 2 3
M  V30 3 1 2 4
M  V30 4 1 3 5
M  V30 5 1 3 6
M  V30 6 2 4 7
M  V30 7 2 5 8
M  V30 8 1 6 9
M  V30 9 1 8 10
M  V30 10 2 9 11
M  V30 11 1 9 12
M  V30 12 1 10 13
M  V30 13 1 11 14
M  V30 14 1 11 15
M  V30 15 2 12 16
M  V30 16 2 13 17
M  V30 17 1 13 18
M  V30 18 2 14 19
M  V30 19 1 14 20
M  V30 20 1 14 21
M  V30 21 2 15 22
M  V30 22 1 17 23
M  V30 23 1 17 24
M  V30 24 2 18 25
M  V30 25 1 23 26
M  V30 26 2 24 27
M  V30 27 1 27 28
M  V30 28 1 28 29
M  V30 29 1 28 30
M  V30 30 1 29 31
M  V30 31 1 30 32
M  V30 32 1 31 33
M  V30 33 1 7 8
M  V30 34 1 16 22
M  V30 35 1 25 27
M  V30 36 1 32 33
M  V30 END BOND
M  V30 END CTAB
M  END
>  <Molecule Name>
Compound 122

>  <Molecule Name 2>
Compound 122

>  <Compound ID>
64

>  <Name>
Brigatinib A

>  <Uniprot>
P00533

>  <Target>
EGFR L858R/T790M

>  <Smiles>
COC1=CC(N2CCNCC2)=CC=C1NC1=NC=C(Cl)C(NC2=CC=CC=C2P(C)(C)=O)=N1

>  <Kd (nM)>


>  <Assay (Kd)>


>  <Ki (nM)>


>  <Assay (Ki)>


>  <IC50 (nM)>


>  <Assay (IC50)>


>  <EC50 (nM)>


>  <Assay (EC50)>


>  <Article DOI>
10.1021/acsmedchemlett.1c00645

>  <Molecular Weight>
486.944

>  <Exact Mass>
486.1699884

>  <XLogP3>
3.59

>  <Heavy Atom Count>
33

>  <Ring Count>
4

>  <Hydrogen Bond Acceptor Count>
8

>  <Hydrogen Bond Donor Count>
3

>  <Rotatable Bond Count>
7

>  <Topological Polar Surface Area>
91.41

>  <Molecular Formula>
C23H28ClN6O2P

>  <InChI>
InChI=1S/C23H28ClN6O2P/c1-32-20-14-16(30-12-10-25-11-13-30)8-9-18(20)28-23-26-15-17(24)22(29-23)27-19-6-4-5-7-21(19)33(2,3)31/h4-9,14-15,25H,10-13H2,1-3H3,(H2,26,27,28,29)

>  <InChI Key>
YVXLIHUPXSTEHG-UHFFFAOYSA-N

>  <BindingDB>


>  <PubChem>
68165331

>  <ChEMBL>
CHEMBL4745797

$$$$
65
Actelion Java MolfileCreator 2.0

  0  0  0  0  0  0              0 V3000
M  V30 BEGIN CTAB
M  V30 COUNTS 34 37 0 0 0
M  V30 BEGIN ATOM
M  V30 1 Cl 2.598 1.0 0.0 0
M  V30 2 C 2.598 0.0 0.0 0
M  V30 3 C 1.732 -0.5 0.0 0
M  V30 4 C 3.4641 -0.4999 0.0 0
M  V30 5 N 1.732 -1.5 0.0 0
M  V30 6 N 0.866 0.0 0.0 0
M  V30 7 N 3.4641 -1.4999 0.0 0
M  V30 8 C 2.598 -1.9999 0.0 0
M  V30 9 C 0.0 -0.5 0.0 0
M  V30 10 N 2.598 -2.9999 0.0 0
M  V30 11 C -0.866 0.0 0.0 0
M  V30 12 C 0.0 -1.4999 0.0 0
M  V30 13 C 3.4641 -3.4999 0.0 0
M  V30 14 P -0.866 1.0 0.0 0
M  V30 15 C -1.732 -0.4999 0.0 0
M  V30 16 C -0.866 -1.9999 0.0 0
M  V30 17 C 3.4641 -4.4999 0.0 0
M  V30 18 C 4.3301 -2.9999 0.0 0
M  V30 19 O 0.1339 0.9999 0.0 0
M  V30 20 C -0.866 2.0 0.0 0
M  V30 21 C -1.866 1.0 0.0 0
M  V30 22 C -1.732 -1.4999 0.0 0
M  V30 23 O 2.598 -4.9999 0.0 0
M  V30 24 C 4.3301 -4.9999 0.0 0
M  V30 25 C 5.1961 -3.4999 0.0 0
M  V30 26 C 2.598 -5.9999 0.0 0
M  V30 27 C 5.1961 -4.4999 0.0 0
M  V30 28 N 6.0621 -4.9999 0.0 0
M  V30 29 C 6.0621 -5.9999 0.0 0
M  V30 30 C 6.9282 -4.4999 0.0 0
M  V30 31 C 6.9282 -6.4999 0.0 0
M  V30 32 C 7.7942 -4.9999 0.0 0
M  V30 33 C 7.7942 -5.9999 0.0 0
M  V30 34 N 8.6602 -6.4999 0.0 0
M  V30 END ATOM
M  V30 BEGIN BOND
M  V30 1 1 1 2
M  V30 2 2 2 3
M  V30 3 1 2 4
M  V30 4 1 3 5
M  V30 5 1 3 6
M  V30 6 2 4 7
M  V30 7 2 5 8
M  V30 8 1 6 9
M  V30 9 1 8 10
M  V30 10 2 9 11
M  V30 11 1 9 12
M  V30 12 1 10 13
M  V30 13 1 11 14
M  V30 14 1 11 15
M  V30 15 2 12 16
M  V30 16 2 13 17
M  V30 17 1 13 18
M  V30 18 2 14 19
M  V30 19 1 14 20
M  V30 20 1 14 21
M  V30 21 2 15 22
M  V30 22 1 17 23
M  V30 23 1 17 24
M  V30 24 2 18 25
M  V30 25 1 23 26
M  V30 26 2 24 27
M  V30 27 1 27 28
M  V30 28 1 28 29
M  V30 29 1 28 30
M  V30 30 1 29 31
M  V30 31 1 30 32
M  V30 32 1 31 33
M  V30 33 1 33 34
M  V30 34 1 7 8
M  V30 35 1 16 22
M  V30 36 1 25 27
M  V30 37 1 32 33
M  V30 END BOND
M  V30 END CTAB
M  END
>  <Molecule Name>
Compound 123

>  <Molecule Name 2>
Compound 123

>  <Compound ID>
65

>  <Name>
Brigatinib B

>  <Uniprot>
Q9UM73

>  <Target>
ALK G1202R

>  <Smiles>
COC1=CC(N2CCC(N)CC2)=CC=C1NC1=NC=C(Cl)C(NC2=CC=CC=C2P(C)(C)=O)=N1

>  <Kd (nM)>


>  <Assay (Kd)>


>  <Ki (nM)>


>  <Assay (Ki)>


>  <IC50 (nM)>
1.7

>  <Assay (IC50)>
Inhibit proliferation of SR cells

>  <EC50 (nM)>


>  <Assay (EC50)>


>  <Article DOI>
10.1016/j.ejmech.2020.112190

>  <Molecular Weight>
500.971

>  <Exact Mass>
500.1856385

>  <XLogP3>
3.86

>  <Heavy Atom Count>
34

>  <Ring Count>
4

>  <Hydrogen Bond Acceptor Count>
8

>  <Hydrogen Bond Donor Count>
3

>  <Rotatable Bond Count>
7

>  <Topological Polar Surface Area>
105.4

>  <Molecular Formula>
C24H30ClN6O2P

>  <InChI>
InChI=1S/C24H30ClN6O2P/c1-33-21-14-17(31-12-10-16(26)11-13-31)8-9-19(21)29-24-27-15-18(25)23(30-24)28-20-6-4-5-7-22(20)34(2,3)32/h4-9,14-16H,10-13,26H2,1-3H3,(H2,27,28,29,30)

>  <InChI Key>
VTMLWUJPMPXEQZ-UHFFFAOYSA-N

>  <BindingDB>


>  <PubChem>
138751530

>  <ChEMBL>


$$$$
65
Actelion Java MolfileCreator 2.0

  0  0  0  0  0  0              0 V3000
M  V30 BEGIN CTAB
M  V30 COUNTS 34 37 0 0 0
M  V30 BEGIN ATOM
M  V30 1 Cl 2.598 1.0 0.0 0
M  V30 2 C 2.598 0.0 0.0 0
M  V30 3 C 1.732 -0.5 0.0 0
M  V30 4 C 3.4641 -0.4999 0.0 0
M  V30 5 N 1.732 -1.5 0.0 0
M  V30 6 N 0.866 0.0 0.0 0
M  V30 7 N 3.4641 -1.4999 0.0 0
M  V30 8 C 2.598 -1.9999 0.0 0
M  V30 9 C 0.0 -0.5 0.0 0
M  V30 10 N 2.598 -2.9999 0.0 0
M  V30 11 C -0.866 0.0 0.0 0
M  V30 12 C 0.0 -1.4999 0.0 0
M  V30 13 C 3.4641 -3.4999 0.0 0
M  V30 14 P -0.866 1.0 0.0 0
M  V30 15 C -1.732 -0.4999 0.0 0
M  V30 16 C -0.866 -1.9999 0.0 0
M  V30 17 C 3.4641 -4.4999 0.0 0
M  V30 18 C 4.3301 -2.9999 0.0 0
M  V30 19 O 0.1339 0.9999 0.0 0
M  V30 20 C -0.866 2.0 0.0 0
M  V30 21 C -1.866 1.0 0.0 0
M  V30 22 C -1.732 -1.4999 0.0 0
M  V30 23 O 2.598 -4.9999 0.0 0
M  V30 24 C 4.3301 -4.9999 0.0 0
M  V30 25 C 5.1961 -3.4999 0.0 0
M  V30 26 C 2.598 -5.9999 0.0 0
M  V30 27 C 5.1961 -4.4999 0.0 0
M  V30 28 N 6.0621 -4.9999 0.0 0
M  V30 29 C 6.0621 -5.9999 0.0 0
M  V30 30 C 6.9282 -4.4999 0.0 0
M  V30 31 C 6.9282 -6.4999 0.0 0
M  V30 32 C 7.7942 -4.9999 0.0 0
M  V30 33 C 7.7942 -5.9999 0.0 0
M  V30 34 N 8.6602 -6.4999 0.0 0
M  V30 END ATOM
M  V30 BEGIN BOND
M  V30 1 1 1 2
M  V30 2 2 2 3
M  V30 3 1 2 4
M  V30 4 1 3 5
M  V30 5 1 3 6
M  V30 6 2 4 7
M  V30 7 2 5 8
M  V30 8 1 6 9
M  V30 9 1 8 10
M  V30 10 2 9 11
M  V30 11 1 9 12
M  V30 12 1 10 13
M  V30 13 1 11 14
M  V30 14 1 11 15
M  V30 15 2 12 16
M  V30 16 2 13 17
M  V30 17 1 13 18
M  V30 18 2 14 19
M  V30 19 1 14 20
M  V30 20 1 14 21
M  V30 21 2 15 22
M  V30 22 1 17 23
M  V30 23 1 17 24
M  V30 24 2 18 25
M  V30 25 1 23 26
M  V30 26 2 24 27
M  V30 27 1 27 28
M  V30 28 1 28 29
M  V30 29 1 28 30
M  V30 30 1 29 31
M  V30 31 1 30 32
M  V30 32 1 31 33
M  V30 33 1 33 34
M  V30 34 1 7 8
M  V30 35 1 16 22
M  V30 36 1 25 27
M  V30 37 1 32 33
M  V30 END BOND
M  V30 END CTAB
M  END
>  <Molecule Name>
Compound 124

>  <Molecule Name 2>
Compound 124

>  <Compound ID>
65

>  <Name>
Brigatinib B

>  <Uniprot>
Q9UM73

>  <Target>
ALK

>  <Smiles>
COC1=CC(N2CCC(N)CC2)=CC=C1NC1=NC=C(Cl)C(NC2=CC=CC=C2P(C)(C)=O)=N1

>  <Kd (nM)>


>  <Assay (Kd)>


>  <Ki (nM)>


>  <Assay (Ki)>


>  <IC50 (nM)>
1.7

>  <Assay (IC50)>
Inhibit proliferation of SR cells

>  <EC50 (nM)>


>  <Assay (EC50)>


>  <Article DOI>
10.1016/j.ejmech.2020.112190

>  <Molecular Weight>
500.971

>  <Exact Mass>
500.1856385

>  <XLogP3>
3.86

>  <Heavy Atom Count>
34

>  <Ring Count>
4

>  <Hydrogen Bond Acceptor Count>
8

>  <Hydrogen Bond Donor Count>
3

>  <Rotatable Bond Count>
7

>  <Topological Polar Surface Area>
105.4

>  <Molecular Formula>
C24H30ClN6O2P

>  <InChI>
InChI=1S/C24H30ClN6O2P/c1-33-21-14-17(31-12-10-16(26)11-13-31)8-9-19(21)29-24-27-15-18(25)23(30-24)28-20-6-4-5-7-22(20)34(2,3)32/h4-9,14-16H,10-13,26H2,1-3H3,(H2,27,28,29,30)

>  <InChI Key>
VTMLWUJPMPXEQZ-UHFFFAOYSA-N

>  <BindingDB>


>  <PubChem>
138751530

>  <ChEMBL>


$$$$
66
Actelion Java MolfileCreator 2.0

  0  0  0  0  0  0              0 V3000
M  V30 BEGIN CTAB
M  V30 COUNTS 39 43 0 0 0
M  V30 BEGIN ATOM
M  V30 1 Cl 2.598 1.0 0.0 0
M  V30 2 C 2.598 0.0 0.0 0
M  V30 3 C 1.732 -0.5 0.0 0
M  V30 4 C 3.4641 -0.4999 0.0 0
M  V30 5 N 1.732 -1.5 0.0 0
M  V30 6 N 0.866 0.0 0.0 0
M  V30 7 N 3.4641 -1.4999 0.0 0
M  V30 8 C 2.598 -1.9999 0.0 0
M  V30 9 C 0.0 -0.5 0.0 0
M  V30 10 N 2.598 -2.9999 0.0 0
M  V30 11 C -0.866 0.0 0.0 0
M  V30 12 C 0.0 -1.4999 0.0 0
M  V30 13 C 3.4641 -3.4999 0.0 0
M  V30 14 P -0.866 1.0 0.0 0
M  V30 15 C -1.732 -0.4999 0.0 0
M  V30 16 C -0.866 -1.9999 0.0 0
M  V30 17 C 3.4641 -4.4999 0.0 0
M  V30 18 C 4.3301 -2.9999 0.0 0
M  V30 19 O 0.1339 0.9999 0.0 0
M  V30 20 C -0.866 2.0 0.0 0
M  V30 21 C -1.866 1.0 0.0 0
M  V30 22 C -1.732 -1.4999 0.0 0
M  V30 23 O 2.598 -4.9999 0.0 0
M  V30 24 C 4.3301 -4.9999 0.0 0
M  V30 25 C 5.1961 -3.4999 0.0 0
M  V30 26 C 2.598 -5.9999 0.0 0
M  V30 27 C 5.1961 -4.4999 0.0 0
M  V30 28 N 6.0621 -4.9999 0.0 0
M  V30 29 C 6.0621 -5.9999 0.0 0
M  V30 30 C 6.9282 -4.4999 0.0 0
M  V30 31 C 6.9282 -6.4999 0.0 0
M  V30 32 C 7.7942 -4.9999 0.0 0
M  V30 33 C 7.7942 -5.9999 0.0 0
M  V30 34 N 8.6602 -6.4999 0.0 0
M  V30 35 C 8.6602 -7.4999 0.0 0
M  V30 36 C 9.5262 -5.9999 0.0 0
M  V30 37 C 9.5262 -7.9999 0.0 0
M  V30 38 C 10.3923 -6.4999 0.0 0
M  V30 39 N 10.3923 -7.4999 0.0 0
M  V30 END ATOM
M  V30 BEGIN BOND
M  V30 1 1 1 2
M  V30 2 2 2 3
M  V30 3 1 2 4
M  V30 4 1 3 5
M  V30 5 1 3 6
M  V30 6 2 4 7
M  V30 7 2 5 8
M  V30 8 1 6 9
M  V30 9 1 8 10
M  V30 10 2 9 11
M  V30 11 1 9 12
M  V30 12 1 10 13
M  V30 13 1 11 14
M  V30 14 1 11 15
M  V30 15 2 12 16
M  V30 16 2 13 17
M  V30 17 1 13 18
M  V30 18 2 14 19
M  V30 19 1 14 20
M  V30 20 1 14 21
M  V30 21 2 15 22
M  V30 22 1 17 23
M  V30 23 1 17 24
M  V30 24 2 18 25
M  V30 25 1 23 26
M  V30 26 2 24 27
M  V30 27 1 27 28
M  V30 28 1 28 29
M  V30 29 1 28 30
M  V30 30 1 29 31
M  V30 31 1 30 32
M  V30 32 1 31 33
M  V30 33 1 33 34
M  V30 34 1 34 35
M  V30 35 1 34 36
M  V30 36 1 35 37
M  V30 37 1 36 38
M  V30 38 1 37 39
M  V30 39 1 7 8
M  V30 40 1 16 22
M  V30 41 1 25 27
M  V30 42 1 32 33
M  V30 43 1 38 39
M  V30 END BOND
M  V30 END CTAB
M  END
>  <Molecule Name>
Compound 125

>  <Molecule Name 2>
Compound 125

>  <Compound ID>
66

>  <Name>
Brigatinib C

>  <Uniprot>
Q9UM73

>  <Target>
ALK G1202R

>  <Smiles>
COC1=CC(N2CCC(N3CCNCC3)CC2)=CC=C1NC1=NC=C(Cl)C(NC2=CC=CC=C2P(C)(C)=O)=N1

>  <Kd (nM)>


>  <Assay (Kd)>


>  <Ki (nM)>


>  <Assay (Ki)>


>  <IC50 (nM)>
6.8

>  <Assay (IC50)>
Inhibit proliferation of SR cells

>  <EC50 (nM)>


>  <Assay (EC50)>


>  <Article DOI>
10.1016/j.ejmech.2020.112190

>  <Molecular Weight>
570.078

>  <Exact Mass>
569.2434877

>  <XLogP3>
4.18

>  <Heavy Atom Count>
39

>  <Ring Count>
5

>  <Hydrogen Bond Acceptor Count>
9

>  <Hydrogen Bond Donor Count>
3

>  <Rotatable Bond Count>
8

>  <Topological Polar Surface Area>
94.65

>  <Molecular Formula>
C28H37ClN7O2P

>  <InChI>
InChI=1S/C28H37ClN7O2P/c1-38-25-18-21(35-14-10-20(11-15-35)36-16-12-30-13-17-36)8-9-23(25)33-28-31-19-22(29)27(34-28)32-24-6-4-5-7-26(24)39(2,3)37/h4-9,18-20,30H,10-17H2,1-3H3,(H2,31,32,33,34)

>  <InChI Key>
RWZBHSUFXJNDSS-UHFFFAOYSA-N

>  <BindingDB>


>  <PubChem>
68165330

>  <ChEMBL>
CHEMBL4793016

$$$$
66
Actelion Java MolfileCreator 2.0

  0  0  0  0  0  0              0 V3000
M  V30 BEGIN CTAB
M  V30 COUNTS 39 43 0 0 0
M  V30 BEGIN ATOM
M  V30 1 Cl 2.598 1.0 0.0 0
M  V30 2 C 2.598 0.0 0.0 0
M  V30 3 C 1.732 -0.5 0.0 0
M  V30 4 C 3.4641 -0.4999 0.0 0
M  V30 5 N 1.732 -1.5 0.0 0
M  V30 6 N 0.866 0.0 0.0 0
M  V30 7 N 3.4641 -1.4999 0.0 0
M  V30 8 C 2.598 -1.9999 0.0 0
M  V30 9 C 0.0 -0.5 0.0 0
M  V30 10 N 2.598 -2.9999 0.0 0
M  V30 11 C -0.866 0.0 0.0 0
M  V30 12 C 0.0 -1.4999 0.0 0
M  V30 13 C 3.4641 -3.4999 0.0 0
M  V30 14 P -0.866 1.0 0.0 0
M  V30 15 C -1.732 -0.4999 0.0 0
M  V30 16 C -0.866 -1.9999 0.0 0
M  V30 17 C 3.4641 -4.4999 0.0 0
M  V30 18 C 4.3301 -2.9999 0.0 0
M  V30 19 O 0.1339 0.9999 0.0 0
M  V30 20 C -0.866 2.0 0.0 0
M  V30 21 C -1.866 1.0 0.0 0
M  V30 22 C -1.732 -1.4999 0.0 0
M  V30 23 O 2.598 -4.9999 0.0 0
M  V30 24 C 4.3301 -4.9999 0.0 0
M  V30 25 C 5.1961 -3.4999 0.0 0
M  V30 26 C 2.598 -5.9999 0.0 0
M  V30 27 C 5.1961 -4.4999 0.0 0
M  V30 28 N 6.0621 -4.9999 0.0 0
M  V30 29 C 6.0621 -5.9999 0.0 0
M  V30 30 C 6.9282 -4.4999 0.0 0
M  V30 31 C 6.9282 -6.4999 0.0 0
M  V30 32 C 7.7942 -4.9999 0.0 0
M  V30 33 C 7.7942 -5.9999 0.0 0
M  V30 34 N 8.6602 -6.4999 0.0 0
M  V30 35 C 8.6602 -7.4999 0.0 0
M  V30 36 C 9.5262 -5.9999 0.0 0
M  V30 37 C 9.5262 -7.9999 0.0 0
M  V30 38 C 10.3923 -6.4999 0.0 0
M  V30 39 N 10.3923 -7.4999 0.0 0
M  V30 END ATOM
M  V30 BEGIN BOND
M  V30 1 1 1 2
M  V30 2 2 2 3
M  V30 3 1 2 4
M  V30 4 1 3 5
M  V30 5 1 3 6
M  V30 6 2 4 7
M  V30 7 2 5 8
M  V30 8 1 6 9
M  V30 9 1 8 10
M  V30 10 2 9 11
M  V30 11 1 9 12
M  V30 12 1 10 13
M  V30 13 1 11 14
M  V30 14 1 11 15
M  V30 15 2 12 16
M  V30 16 2 13 17
M  V30 17 1 13 18
M  V30 18 2 14 19
M  V30 19 1 14 20
M  V30 20 1 14 21
M  V30 21 2 15 22
M  V30 22 1 17 23
M  V30 23 1 17 24
M  V30 24 2 18 25
M  V30 25 1 23 26
M  V30 26 2 24 27
M  V30 27 1 27 28
M  V30 28 1 28 29
M  V30 29 1 28 30
M  V30 30 1 29 31
M  V30 31 1 30 32
M  V30 32 1 31 33
M  V30 33 1 33 34
M  V30 34 1 34 35
M  V30 35 1 34 36
M  V30 36 1 35 37
M  V30 37 1 36 38
M  V30 38 1 37 39
M  V30 39 1 7 8
M  V30 40 1 16 22
M  V30 41 1 25 27
M  V30 42 1 32 33
M  V30 43 1 38 39
M  V30 END BOND
M  V30 END CTAB
M  END
>  <Molecule Name>
Compound 126

>  <Molecule Name 2>
Compound 126

>  <Compound ID>
66

>  <Name>
Brigatinib C

>  <Uniprot>
Q9UM73

>  <Target>
ALK

>  <Smiles>
COC1=CC(N2CCC(N3CCNCC3)CC2)=CC=C1NC1=NC=C(Cl)C(NC2=CC=CC=C2P(C)(C)=O)=N1

>  <Kd (nM)>


>  <Assay (Kd)>


>  <Ki (nM)>


>  <Assay (Ki)>


>  <IC50 (nM)>
6.8

>  <Assay (IC50)>
Inhibit proliferation of SR cells

>  <EC50 (nM)>


>  <Assay (EC50)>


>  <Article DOI>
10.1016/j.ejmech.2020.112190

>  <Molecular Weight>
570.078

>  <Exact Mass>
569.2434877

>  <XLogP3>
4.18

>  <Heavy Atom Count>
39

>  <Ring Count>
5

>  <Hydrogen Bond Acceptor Count>
9

>  <Hydrogen Bond Donor Count>
3

>  <Rotatable Bond Count>
8

>  <Topological Polar Surface Area>
94.65

>  <Molecular Formula>
C28H37ClN7O2P

>  <InChI>
InChI=1S/C28H37ClN7O2P/c1-38-25-18-21(35-14-10-20(11-15-35)36-16-12-30-13-17-36)8-9-23(25)33-28-31-19-22(29)27(34-28)32-24-6-4-5-7-26(24)39(2,3)37/h4-9,18-20,30H,10-17H2,1-3H3,(H2,31,32,33,34)

>  <InChI Key>
RWZBHSUFXJNDSS-UHFFFAOYSA-N

>  <BindingDB>


>  <PubChem>
68165330

>  <ChEMBL>
CHEMBL4793016

$$$$
66
Actelion Java MolfileCreator 2.0

  0  0  0  0  0  0              0 V3000
M  V30 BEGIN CTAB
M  V30 COUNTS 39 43 0 0 0
M  V30 BEGIN ATOM
M  V30 1 Cl 2.598 1.0 0.0 0
M  V30 2 C 2.598 0.0 0.0 0
M  V30 3 C 1.732 -0.5 0.0 0
M  V30 4 C 3.4641 -0.4999 0.0 0
M  V30 5 N 1.732 -1.5 0.0 0
M  V30 6 N 0.866 0.0 0.0 0
M  V30 7 N 3.4641 -1.4999 0.0 0
M  V30 8 C 2.598 -1.9999 0.0 0
M  V30 9 C 0.0 -0.5 0.0 0
M  V30 10 N 2.598 -2.9999 0.0 0
M  V30 11 C -0.866 0.0 0.0 0
M  V30 12 C 0.0 -1.4999 0.0 0
M  V30 13 C 3.4641 -3.4999 0.0 0
M  V30 14 P -0.866 1.0 0.0 0
M  V30 15 C -1.732 -0.4999 0.0 0
M  V30 16 C -0.866 -1.9999 0.0 0
M  V30 17 C 3.4641 -4.4999 0.0 0
M  V30 18 C 4.3301 -2.9999 0.0 0
M  V30 19 O 0.1339 0.9999 0.0 0
M  V30 20 C -0.866 2.0 0.0 0
M  V30 21 C -1.866 1.0 0.0 0
M  V30 22 C -1.732 -1.4999 0.0 0
M  V30 23 O 2.598 -4.9999 0.0 0
M  V30 24 C 4.3301 -4.9999 0.0 0
M  V30 25 C 5.1961 -3.4999 0.0 0
M  V30 26 C 2.598 -5.9999 0.0 0
M  V30 27 C 5.1961 -4.4999 0.0 0
M  V30 28 N 6.0621 -4.9999 0.0 0
M  V30 29 C 6.0621 -5.9999 0.0 0
M  V30 30 C 6.9282 -4.4999 0.0 0
M  V30 31 C 6.9282 -6.4999 0.0 0
M  V30 32 C 7.7942 -4.9999 0.0 0
M  V30 33 C 7.7942 -5.9999 0.0 0
M  V30 34 N 8.6602 -6.4999 0.0 0
M  V30 35 C 8.6602 -7.4999 0.0 0
M  V30 36 C 9.5262 -5.9999 0.0 0
M  V30 37 C 9.5262 -7.9999 0.0 0
M  V30 38 C 10.3923 -6.4999 0.0 0
M  V30 39 N 10.3923 -7.4999 0.0 0
M  V30 END ATOM
M  V30 BEGIN BOND
M  V30 1 1 1 2
M  V30 2 2 2 3
M  V30 3 1 2 4
M  V30 4 1 3 5
M  V30 5 1 3 6
M  V30 6 2 4 7
M  V30 7 2 5 8
M  V30 8 1 6 9
M  V30 9 1 8 10
M  V30 10 2 9 11
M  V30 11 1 9 12
M  V30 12 1 10 13
M  V30 13 1 11 14
M  V30 14 1 11 15
M  V30 15 2 12 16
M  V30 16 2 13 17
M  V30 17 1 13 18
M  V30 18 2 14 19
M  V30 19 1 14 20
M  V30 20 1 14 21
M  V30 21 2 15 22
M  V30 22 1 17 23
M  V30 23 1 17 24
M  V30 24 2 18 25
M  V30 25 1 23 26
M  V30 26 2 24 27
M  V30 27 1 27 28
M  V30 28 1 28 29
M  V30 29 1 28 30
M  V30 30 1 29 31
M  V30 31 1 30 32
M  V30 32 1 31 33
M  V30 33 1 33 34
M  V30 34 1 34 35
M  V30 35 1 34 36
M  V30 36 1 35 37
M  V30 37 1 36 38
M  V30 38 1 37 39
M  V30 39 1 7 8
M  V30 40 1 16 22
M  V30 41 1 25 27
M  V30 42 1 32 33
M  V30 43 1 38 39
M  V30 END BOND
M  V30 END CTAB
M  END
>  <Molecule Name>
Compound 127

>  <Molecule Name 2>
Compound 127

>  <Compound ID>
66

>  <Name>
Brigatinib C

>  <Uniprot>
P00533

>  <Target>
EGFR L858R/T790M

>  <Smiles>
COC1=CC(N2CCC(N3CCNCC3)CC2)=CC=C1NC1=NC=C(Cl)C(NC2=CC=CC=C2P(C)(C)=O)=N1

>  <Kd (nM)>


>  <Assay (Kd)>


>  <Ki (nM)>


>  <Assay (Ki)>


>  <IC50 (nM)>
6.8

>  <Assay (IC50)>
Inhibit proliferation of SR cells

>  <EC50 (nM)>


>  <Assay (EC50)>


>  <Article DOI>
10.1016/j.ejmech.2020.112190

>  <Molecular Weight>
570.078

>  <Exact Mass>
569.2434877

>  <XLogP3>
4.18

>  <Heavy Atom Count>
39

>  <Ring Count>
5

>  <Hydrogen Bond Acceptor Count>
9

>  <Hydrogen Bond Donor Count>
3

>  <Rotatable Bond Count>
8

>  <Topological Polar Surface Area>
94.65

>  <Molecular Formula>
C28H37ClN7O2P

>  <InChI>
InChI=1S/C28H37ClN7O2P/c1-38-25-18-21(35-14-10-20(11-15-35)36-16-12-30-13-17-36)8-9-23(25)33-28-31-19-22(29)27(34-28)32-24-6-4-5-7-26(24)39(2,3)37/h4-9,18-20,30H,10-17H2,1-3H3,(H2,31,32,33,34)

>  <InChI Key>
RWZBHSUFXJNDSS-UHFFFAOYSA-N

>  <BindingDB>


>  <PubChem>
68165330

>  <ChEMBL>
CHEMBL4793016

$$$$
66
Actelion Java MolfileCreator 2.0

  0  0  0  0  0  0              0 V3000
M  V30 BEGIN CTAB
M  V30 COUNTS 39 43 0 0 0
M  V30 BEGIN ATOM
M  V30 1 Cl 2.598 1.0 0.0 0
M  V30 2 C 2.598 0.0 0.0 0
M  V30 3 C 1.732 -0.5 0.0 0
M  V30 4 C 3.4641 -0.4999 0.0 0
M  V30 5 N 1.732 -1.5 0.0 0
M  V30 6 N 0.866 0.0 0.0 0
M  V30 7 N 3.4641 -1.4999 0.0 0
M  V30 8 C 2.598 -1.9999 0.0 0
M  V30 9 C 0.0 -0.5 0.0 0
M  V30 10 N 2.598 -2.9999 0.0 0
M  V30 11 C -0.866 0.0 0.0 0
M  V30 12 C 0.0 -1.4999 0.0 0
M  V30 13 C 3.4641 -3.4999 0.0 0
M  V30 14 P -0.866 1.0 0.0 0
M  V30 15 C -1.732 -0.4999 0.0 0
M  V30 16 C -0.866 -1.9999 0.0 0
M  V30 17 C 3.4641 -4.4999 0.0 0
M  V30 18 C 4.3301 -2.9999 0.0 0
M  V30 19 O 0.1339 0.9999 0.0 0
M  V30 20 C -0.866 2.0 0.0 0
M  V30 21 C -1.866 1.0 0.0 0
M  V30 22 C -1.732 -1.4999 0.0 0
M  V30 23 O 2.598 -4.9999 0.0 0
M  V30 24 C 4.3301 -4.9999 0.0 0
M  V30 25 C 5.1961 -3.4999 0.0 0
M  V30 26 C 2.598 -5.9999 0.0 0
M  V30 27 C 5.1961 -4.4999 0.0 0
M  V30 28 N 6.0621 -4.9999 0.0 0
M  V30 29 C 6.0621 -5.9999 0.0 0
M  V30 30 C 6.9282 -4.4999 0.0 0
M  V30 31 C 6.9282 -6.4999 0.0 0
M  V30 32 C 7.7942 -4.9999 0.0 0
M  V30 33 C 7.7942 -5.9999 0.0 0
M  V30 34 N 8.6602 -6.4999 0.0 0
M  V30 35 C 8.6602 -7.4999 0.0 0
M  V30 36 C 9.5262 -5.9999 0.0 0
M  V30 37 C 9.5262 -7.9999 0.0 0
M  V30 38 C 10.3923 -6.4999 0.0 0
M  V30 39 N 10.3923 -7.4999 0.0 0
M  V30 END ATOM
M  V30 BEGIN BOND
M  V30 1 1 1 2
M  V30 2 2 2 3
M  V30 3 1 2 4
M  V30 4 1 3 5
M  V30 5 1 3 6
M  V30 6 2 4 7
M  V30 7 2 5 8
M  V30 8 1 6 9
M  V30 9 1 8 10
M  V30 10 2 9 11
M  V30 11 1 9 12
M  V30 12 1 10 13
M  V30 13 1 11 14
M  V30 14 1 11 15
M  V30 15 2 12 16
M  V30 16 2 13 17
M  V30 17 1 13 18
M  V30 18 2 14 19
M  V30 19 1 14 20
M  V30 20 1 14 21
M  V30 21 2 15 22
M  V30 22 1 17 23
M  V30 23 1 17 24
M  V30 24 2 18 25
M  V30 25 1 23 26
M  V30 26 2 24 27
M  V30 27 1 27 28
M  V30 28 1 28 29
M  V30 29 1 28 30
M  V30 30 1 29 31
M  V30 31 1 30 32
M  V30 32 1 31 33
M  V30 33 1 33 34
M  V30 34 1 34 35
M  V30 35 1 34 36
M  V30 36 1 35 37
M  V30 37 1 36 38
M  V30 38 1 37 39
M  V30 39 1 7 8
M  V30 40 1 16 22
M  V30 41 1 25 27
M  V30 42 1 32 33
M  V30 43 1 38 39
M  V30 END BOND
M  V30 END CTAB
M  END
>  <Molecule Name>
Compound 128

>  <Molecule Name 2>
Compound 128

>  <Compound ID>
66

>  <Name>
Brigatinib C

>  <Uniprot>
Q05397

>  <Target>
FAK

>  <Smiles>
COC1=CC(N2CCC(N3CCNCC3)CC2)=CC=C1NC1=NC=C(Cl)C(NC2=CC=CC=C2P(C)(C)=O)=N1

>  <Kd (nM)>


>  <Assay (Kd)>


>  <Ki (nM)>


>  <Assay (Ki)>


>  <IC50 (nM)>
6.8

>  <Assay (IC50)>
Inhibit proliferation of SR cells

>  <EC50 (nM)>


>  <Assay (EC50)>


>  <Article DOI>
10.1016/j.ejmech.2020.112190

>  <Molecular Weight>
570.078

>  <Exact Mass>
569.2434877

>  <XLogP3>
4.18

>  <Heavy Atom Count>
39

>  <Ring Count>
5

>  <Hydrogen Bond Acceptor Count>
9

>  <Hydrogen Bond Donor Count>
3

>  <Rotatable Bond Count>
8

>  <Topological Polar Surface Area>
94.65

>  <Molecular Formula>
C28H37ClN7O2P

>  <InChI>
InChI=1S/C28H37ClN7O2P/c1-38-25-18-21(35-14-10-20(11-15-35)36-16-12-30-13-17-36)8-9-23(25)33-28-31-19-22(29)27(34-28)32-24-6-4-5-7-26(24)39(2,3)37/h4-9,18-20,30H,10-17H2,1-3H3,(H2,31,32,33,34)

>  <InChI Key>
RWZBHSUFXJNDSS-UHFFFAOYSA-N

>  <BindingDB>


>  <PubChem>
68165330

>  <ChEMBL>
CHEMBL4793016

$$$$
66
Actelion Java MolfileCreator 2.0

  0  0  0  0  0  0              0 V3000
M  V30 BEGIN CTAB
M  V30 COUNTS 39 43 0 0 0
M  V30 BEGIN ATOM
M  V30 1 Cl 2.598 1.0 0.0 0
M  V30 2 C 2.598 0.0 0.0 0
M  V30 3 C 1.732 -0.5 0.0 0
M  V30 4 C 3.4641 -0.4999 0.0 0
M  V30 5 N 1.732 -1.5 0.0 0
M  V30 6 N 0.866 0.0 0.0 0
M  V30 7 N 3.4641 -1.4999 0.0 0
M  V30 8 C 2.598 -1.9999 0.0 0
M  V30 9 C 0.0 -0.5 0.0 0
M  V30 10 N 2.598 -2.9999 0.0 0
M  V30 11 C -0.866 0.0 0.0 0
M  V30 12 C 0.0 -1.4999 0.0 0
M  V30 13 C 3.4641 -3.4999 0.0 0
M  V30 14 P -0.866 1.0 0.0 0
M  V30 15 C -1.732 -0.4999 0.0 0
M  V30 16 C -0.866 -1.9999 0.0 0
M  V30 17 C 3.4641 -4.4999 0.0 0
M  V30 18 C 4.3301 -2.9999 0.0 0
M  V30 19 O 0.1339 0.9999 0.0 0
M  V30 20 C -0.866 2.0 0.0 0
M  V30 21 C -1.866 1.0 0.0 0
M  V30 22 C -1.732 -1.4999 0.0 0
M  V30 23 O 2.598 -4.9999 0.0 0
M  V30 24 C 4.3301 -4.9999 0.0 0
M  V30 25 C 5.1961 -3.4999 0.0 0
M  V30 26 C 2.598 -5.9999 0.0 0
M  V30 27 C 5.1961 -4.4999 0.0 0
M  V30 28 N 6.0621 -4.9999 0.0 0
M  V30 29 C 6.0621 -5.9999 0.0 0
M  V30 30 C 6.9282 -4.4999 0.0 0
M  V30 31 C 6.9282 -6.4999 0.0 0
M  V30 32 C 7.7942 -4.9999 0.0 0
M  V30 33 C 7.7942 -5.9999 0.0 0
M  V30 34 N 8.6602 -6.4999 0.0 0
M  V30 35 C 8.6602 -7.4999 0.0 0
M  V30 36 C 9.5262 -5.9999 0.0 0
M  V30 37 C 9.5262 -7.9999 0.0 0
M  V30 38 C 10.3923 -6.4999 0.0 0
M  V30 39 N 10.3923 -7.4999 0.0 0
M  V30 END ATOM
M  V30 BEGIN BOND
M  V30 1 1 1 2
M  V30 2 2 2 3
M  V30 3 1 2 4
M  V30 4 1 3 5
M  V30 5 1 3 6
M  V30 6 2 4 7
M  V30 7 2 5 8
M  V30 8 1 6 9
M  V30 9 1 8 10
M  V30 10 2 9 11
M  V30 11 1 9 12
M  V30 12 1 10 13
M  V30 13 1 11 14
M  V30 14 1 11 15
M  V30 15 2 12 16
M  V30 16 2 13 17
M  V30 17 1 13 18
M  V30 18 2 14 19
M  V30 19 1 14 20
M  V30 20 1 14 21
M  V30 21 2 15 22
M  V30 22 1 17 23
M  V30 23 1 17 24
M  V30 24 2 18 25
M  V30 25 1 23 26
M  V30 26 2 24 27
M  V30 27 1 27 28
M  V30 28 1 28 29
M  V30 29 1 28 30
M  V30 30 1 29 31
M  V30 31 1 30 32
M  V30 32 1 31 33
M  V30 33 1 33 34
M  V30 34 1 34 35
M  V30 35 1 34 36
M  V30 36 1 35 37
M  V30 37 1 36 38
M  V30 38 1 37 39
M  V30 39 1 7 8
M  V30 40 1 16 22
M  V30 41 1 25 27
M  V30 42 1 32 33
M  V30 43 1 38 39
M  V30 END BOND
M  V30 END CTAB
M  END
>  <Molecule Name>
Compound 129

>  <Molecule Name 2>
Compound 129

>  <Compound ID>
66

>  <Name>
Brigatinib C

>  <Uniprot>
P16591

>  <Target>
FER

>  <Smiles>
COC1=CC(N2CCC(N3CCNCC3)CC2)=CC=C1NC1=NC=C(Cl)C(NC2=CC=CC=C2P(C)(C)=O)=N1

>  <Kd (nM)>


>  <Assay (Kd)>


>  <Ki (nM)>


>  <Assay (Ki)>


>  <IC50 (nM)>
6.8

>  <Assay (IC50)>
Inhibit proliferation of SR cells

>  <EC50 (nM)>


>  <Assay (EC50)>


>  <Article DOI>
10.1016/j.ejmech.2020.112190

>  <Molecular Weight>
570.078

>  <Exact Mass>
569.2434877

>  <XLogP3>
4.18

>  <Heavy Atom Count>
39

>  <Ring Count>
5

>  <Hydrogen Bond Acceptor Count>
9

>  <Hydrogen Bond Donor Count>
3

>  <Rotatable Bond Count>
8

>  <Topological Polar Surface Area>
94.65

>  <Molecular Formula>
C28H37ClN7O2P

>  <InChI>
InChI=1S/C28H37ClN7O2P/c1-38-25-18-21(35-14-10-20(11-15-35)36-16-12-30-13-17-36)8-9-23(25)33-28-31-19-22(29)27(34-28)32-24-6-4-5-7-26(24)39(2,3)37/h4-9,18-20,30H,10-17H2,1-3H3,(H2,31,32,33,34)

>  <InChI Key>
RWZBHSUFXJNDSS-UHFFFAOYSA-N

>  <BindingDB>


>  <PubChem>
68165330

>  <ChEMBL>
CHEMBL4793016

$$$$
66
Actelion Java MolfileCreator 2.0

  0  0  0  0  0  0              0 V3000
M  V30 BEGIN CTAB
M  V30 COUNTS 39 43 0 0 0
M  V30 BEGIN ATOM
M  V30 1 Cl 2.598 1.0 0.0 0
M  V30 2 C 2.598 0.0 0.0 0
M  V30 3 C 1.732 -0.5 0.0 0
M  V30 4 C 3.4641 -0.4999 0.0 0
M  V30 5 N 1.732 -1.5 0.0 0
M  V30 6 N 0.866 0.0 0.0 0
M  V30 7 N 3.4641 -1.4999 0.0 0
M  V30 8 C 2.598 -1.9999 0.0 0
M  V30 9 C 0.0 -0.5 0.0 0
M  V30 10 N 2.598 -2.9999 0.0 0
M  V30 11 C -0.866 0.0 0.0 0
M  V30 12 C 0.0 -1.4999 0.0 0
M  V30 13 C 3.4641 -3.4999 0.0 0
M  V30 14 P -0.866 1.0 0.0 0
M  V30 15 C -1.732 -0.4999 0.0 0
M  V30 16 C -0.866 -1.9999 0.0 0
M  V30 17 C 3.4641 -4.4999 0.0 0
M  V30 18 C 4.3301 -2.9999 0.0 0
M  V30 19 O 0.1339 0.9999 0.0 0
M  V30 20 C -0.866 2.0 0.0 0
M  V30 21 C -1.866 1.0 0.0 0
M  V30 22 C -1.732 -1.4999 0.0 0
M  V30 23 O 2.598 -4.9999 0.0 0
M  V30 24 C 4.3301 -4.9999 0.0 0
M  V30 25 C 5.1961 -3.4999 0.0 0
M  V30 26 C 2.598 -5.9999 0.0 0
M  V30 27 C 5.1961 -4.4999 0.0 0
M  V30 28 N 6.0621 -4.9999 0.0 0
M  V30 29 C 6.0621 -5.9999 0.0 0
M  V30 30 C 6.9282 -4.4999 0.0 0
M  V30 31 C 6.9282 -6.4999 0.0 0
M  V30 32 C 7.7942 -4.9999 0.0 0
M  V30 33 C 7.7942 -5.9999 0.0 0
M  V30 34 N 8.6602 -6.4999 0.0 0
M  V30 35 C 8.6602 -7.4999 0.0 0
M  V30 36 C 9.5262 -5.9999 0.0 0
M  V30 37 C 9.5262 -7.9999 0.0 0
M  V30 38 C 10.3923 -6.4999 0.0 0
M  V30 39 N 10.3923 -7.4999 0.0 0
M  V30 END ATOM
M  V30 BEGIN BOND
M  V30 1 1 1 2
M  V30 2 2 2 3
M  V30 3 1 2 4
M  V30 4 1 3 5
M  V30 5 1 3 6
M  V30 6 2 4 7
M  V30 7 2 5 8
M  V30 8 1 6 9
M  V30 9 1 8 10
M  V30 10 2 9 11
M  V30 11 1 9 12
M  V30 12 1 10 13
M  V30 13 1 11 14
M  V30 14 1 11 15
M  V30 15 2 12 16
M  V30 16 2 13 17
M  V30 17 1 13 18
M  V30 18 2 14 19
M  V30 19 1 14 20
M  V30 20 1 14 21
M  V30 21 2 15 22
M  V30 22 1 17 23
M  V30 23 1 17 24
M  V30 24 2 18 25
M  V30 25 1 23 26
M  V30 26 2 24 27
M  V30 27 1 27 28
M  V30 28 1 28 29
M  V30 29 1 28 30
M  V30 30 1 29 31
M  V30 31 1 30 32
M  V30 32 1 31 33
M  V30 33 1 33 34
M  V30 34 1 34 35
M  V30 35 1 34 36
M  V30 36 1 35 37
M  V30 37 1 36 38
M  V30 38 1 37 39
M  V30 39 1 7 8
M  V30 40 1 16 22
M  V30 41 1 25 27
M  V30 42 1 32 33
M  V30 43 1 38 39
M  V30 END BOND
M  V30 END CTAB
M  END
>  <Molecule Name>
Compound 130

>  <Molecule Name 2>
Compound 130

>  <Compound ID>
66

>  <Name>
Brigatinib C

>  <Uniprot>
Q14289

>  <Target>
PTK2B

>  <Smiles>
COC1=CC(N2CCC(N3CCNCC3)CC2)=CC=C1NC1=NC=C(Cl)C(NC2=CC=CC=C2P(C)(C)=O)=N1

>  <Kd (nM)>


>  <Assay (Kd)>


>  <Ki (nM)>


>  <Assay (Ki)>


>  <IC50 (nM)>
6.8

>  <Assay (IC50)>
Inhibit proliferation of SR cells

>  <EC50 (nM)>


>  <Assay (EC50)>


>  <Article DOI>
10.1016/j.ejmech.2020.112190

>  <Molecular Weight>
570.078

>  <Exact Mass>
569.2434877

>  <XLogP3>
4.18

>  <Heavy Atom Count>
39

>  <Ring Count>
5

>  <Hydrogen Bond Acceptor Count>
9

>  <Hydrogen Bond Donor Count>
3

>  <Rotatable Bond Count>
8

>  <Topological Polar Surface Area>
94.65

>  <Molecular Formula>
C28H37ClN7O2P

>  <InChI>
InChI=1S/C28H37ClN7O2P/c1-38-25-18-21(35-14-10-20(11-15-35)36-16-12-30-13-17-36)8-9-23(25)33-28-31-19-22(29)27(34-28)32-24-6-4-5-7-26(24)39(2,3)37/h4-9,18-20,30H,10-17H2,1-3H3,(H2,31,32,33,34)

>  <InChI Key>
RWZBHSUFXJNDSS-UHFFFAOYSA-N

>  <BindingDB>


>  <PubChem>
68165330

>  <ChEMBL>
CHEMBL4793016

$$$$
66
Actelion Java MolfileCreator 2.0

  0  0  0  0  0  0              0 V3000
M  V30 BEGIN CTAB
M  V30 COUNTS 39 43 0 0 0
M  V30 BEGIN ATOM
M  V30 1 Cl 2.598 1.0 0.0 0
M  V30 2 C 2.598 0.0 0.0 0
M  V30 3 C 1.732 -0.5 0.0 0
M  V30 4 C 3.4641 -0.4999 0.0 0
M  V30 5 N 1.732 -1.5 0.0 0
M  V30 6 N 0.866 0.0 0.0 0
M  V30 7 N 3.4641 -1.4999 0.0 0
M  V30 8 C 2.598 -1.9999 0.0 0
M  V30 9 C 0.0 -0.5 0.0 0
M  V30 10 N 2.598 -2.9999 0.0 0
M  V30 11 C -0.866 0.0 0.0 0
M  V30 12 C 0.0 -1.4999 0.0 0
M  V30 13 C 3.4641 -3.4999 0.0 0
M  V30 14 P -0.866 1.0 0.0 0
M  V30 15 C -1.732 -0.4999 0.0 0
M  V30 16 C -0.866 -1.9999 0.0 0
M  V30 17 C 3.4641 -4.4999 0.0 0
M  V30 18 C 4.3301 -2.9999 0.0 0
M  V30 19 O 0.1339 0.9999 0.0 0
M  V30 20 C -0.866 2.0 0.0 0
M  V30 21 C -1.866 1.0 0.0 0
M  V30 22 C -1.732 -1.4999 0.0 0
M  V30 23 O 2.598 -4.9999 0.0 0
M  V30 24 C 4.3301 -4.9999 0.0 0
M  V30 25 C 5.1961 -3.4999 0.0 0
M  V30 26 C 2.598 -5.9999 0.0 0
M  V30 27 C 5.1961 -4.4999 0.0 0
M  V30 28 N 6.0621 -4.9999 0.0 0
M  V30 29 C 6.0621 -5.9999 0.0 0
M  V30 30 C 6.9282 -4.4999 0.0 0
M  V30 31 C 6.9282 -6.4999 0.0 0
M  V30 32 C 7.7942 -4.9999 0.0 0
M  V30 33 C 7.7942 -5.9999 0.0 0
M  V30 34 N 8.6602 -6.4999 0.0 0
M  V30 35 C 8.6602 -7.4999 0.0 0
M  V30 36 C 9.5262 -5.9999 0.0 0
M  V30 37 C 9.5262 -7.9999 0.0 0
M  V30 38 C 10.3923 -6.4999 0.0 0
M  V30 39 N 10.3923 -7.4999 0.0 0
M  V30 END ATOM
M  V30 BEGIN BOND
M  V30 1 1 1 2
M  V30 2 2 2 3
M  V30 3 1 2 4
M  V30 4 1 3 5
M  V30 5 1 3 6
M  V30 6 2 4 7
M  V30 7 2 5 8
M  V30 8 1 6 9
M  V30 9 1 8 10
M  V30 10 2 9 11
M  V30 11 1 9 12
M  V30 12 1 10 13
M  V30 13 1 11 14
M  V30 14 1 11 15
M  V30 15 2 12 16
M  V30 16 2 13 17
M  V30 17 1 13 18
M  V30 18 2 14 19
M  V30 19 1 14 20
M  V30 20 1 14 21
M  V30 21 2 15 22
M  V30 22 1 17 23
M  V30 23 1 17 24
M  V30 24 2 18 25
M  V30 25 1 23 26
M  V30 26 2 24 27
M  V30 27 1 27 28
M  V30 28 1 28 29
M  V30 29 1 28 30
M  V30 30 1 29 31
M  V30 31 1 30 32
M  V30 32 1 31 33
M  V30 33 1 33 34
M  V30 34 1 34 35
M  V30 35 1 34 36
M  V30 36 1 35 37
M  V30 37 1 36 38
M  V30 38 1 37 39
M  V30 39 1 7 8
M  V30 40 1 16 22
M  V30 41 1 25 27
M  V30 42 1 32 33
M  V30 43 1 38 39
M  V30 END BOND
M  V30 END CTAB
M  END
>  <Molecule Name>
Compound 131

>  <Molecule Name 2>
Compound 131

>  <Compound ID>
66

>  <Name>
Brigatinib C

>  <Uniprot>
Q13882

>  <Target>
PTK6

>  <Smiles>
COC1=CC(N2CCC(N3CCNCC3)CC2)=CC=C1NC1=NC=C(Cl)C(NC2=CC=CC=C2P(C)(C)=O)=N1

>  <Kd (nM)>


>  <Assay (Kd)>


>  <Ki (nM)>


>  <Assay (Ki)>


>  <IC50 (nM)>
6.8

>  <Assay (IC50)>
Inhibit proliferation of SR cells

>  <EC50 (nM)>


>  <Assay (EC50)>


>  <Article DOI>
10.1016/j.ejmech.2020.112190

>  <Molecular Weight>
570.078

>  <Exact Mass>
569.2434877

>  <XLogP3>
4.18

>  <Heavy Atom Count>
39

>  <Ring Count>
5

>  <Hydrogen Bond Acceptor Count>
9

>  <Hydrogen Bond Donor Count>
3

>  <Rotatable Bond Count>
8

>  <Topological Polar Surface Area>
94.65

>  <Molecular Formula>
C28H37ClN7O2P

>  <InChI>
InChI=1S/C28H37ClN7O2P/c1-38-25-18-21(35-14-10-20(11-15-35)36-16-12-30-13-17-36)8-9-23(25)33-28-31-19-22(29)27(34-28)32-24-6-4-5-7-26(24)39(2,3)37/h4-9,18-20,30H,10-17H2,1-3H3,(H2,31,32,33,34)

>  <InChI Key>
RWZBHSUFXJNDSS-UHFFFAOYSA-N

>  <BindingDB>


>  <PubChem>
68165330

>  <ChEMBL>
CHEMBL4793016

$$$$
66
Actelion Java MolfileCreator 2.0

  0  0  0  0  0  0              0 V3000
M  V30 BEGIN CTAB
M  V30 COUNTS 39 43 0 0 0
M  V30 BEGIN ATOM
M  V30 1 Cl 2.598 1.0 0.0 0
M  V30 2 C 2.598 0.0 0.0 0
M  V30 3 C 1.732 -0.5 0.0 0
M  V30 4 C 3.4641 -0.4999 0.0 0
M  V30 5 N 1.732 -1.5 0.0 0
M  V30 6 N 0.866 0.0 0.0 0
M  V30 7 N 3.4641 -1.4999 0.0 0
M  V30 8 C 2.598 -1.9999 0.0 0
M  V30 9 C 0.0 -0.5 0.0 0
M  V30 10 N 2.598 -2.9999 0.0 0
M  V30 11 C -0.866 0.0 0.0 0
M  V30 12 C 0.0 -1.4999 0.0 0
M  V30 13 C 3.4641 -3.4999 0.0 0
M  V30 14 P -0.866 1.0 0.0 0
M  V30 15 C -1.732 -0.4999 0.0 0
M  V30 16 C -0.866 -1.9999 0.0 0
M  V30 17 C 3.4641 -4.4999 0.0 0
M  V30 18 C 4.3301 -2.9999 0.0 0
M  V30 19 O 0.1339 0.9999 0.0 0
M  V30 20 C -0.866 2.0 0.0 0
M  V30 21 C -1.866 1.0 0.0 0
M  V30 22 C -1.732 -1.4999 0.0 0
M  V30 23 O 2.598 -4.9999 0.0 0
M  V30 24 C 4.3301 -4.9999 0.0 0
M  V30 25 C 5.1961 -3.4999 0.0 0
M  V30 26 C 2.598 -5.9999 0.0 0
M  V30 27 C 5.1961 -4.4999 0.0 0
M  V30 28 N 6.0621 -4.9999 0.0 0
M  V30 29 C 6.0621 -5.9999 0.0 0
M  V30 30 C 6.9282 -4.4999 0.0 0
M  V30 31 C 6.9282 -6.4999 0.0 0
M  V30 32 C 7.7942 -4.9999 0.0 0
M  V30 33 C 7.7942 -5.9999 0.0 0
M  V30 34 N 8.6602 -6.4999 0.0 0
M  V30 35 C 8.6602 -7.4999 0.0 0
M  V30 36 C 9.5262 -5.9999 0.0 0
M  V30 37 C 9.5262 -7.9999 0.0 0
M  V30 38 C 10.3923 -6.4999 0.0 0
M  V30 39 N 10.3923 -7.4999 0.0 0
M  V30 END ATOM
M  V30 BEGIN BOND
M  V30 1 1 1 2
M  V30 2 2 2 3
M  V30 3 1 2 4
M  V30 4 1 3 5
M  V30 5 1 3 6
M  V30 6 2 4 7
M  V30 7 2 5 8
M  V30 8 1 6 9
M  V30 9 1 8 10
M  V30 10 2 9 11
M  V30 11 1 9 12
M  V30 12 1 10 13
M  V30 13 1 11 14
M  V30 14 1 11 15
M  V30 15 2 12 16
M  V30 16 2 13 17
M  V30 17 1 13 18
M  V30 18 2 14 19
M  V30 19 1 14 20
M  V30 20 1 14 21
M  V30 21 2 15 22
M  V30 22 1 17 23
M  V30 23 1 17 24
M  V30 24 2 18 25
M  V30 25 1 23 26
M  V30 26 2 24 27
M  V30 27 1 27 28
M  V30 28 1 28 29
M  V30 29 1 28 30
M  V30 30 1 29 31
M  V30 31 1 30 32
M  V30 32 1 31 33
M  V30 33 1 33 34
M  V30 34 1 34 35
M  V30 35 1 34 36
M  V30 36 1 35 37
M  V30 37 1 36 38
M  V30 38 1 37 39
M  V30 39 1 7 8
M  V30 40 1 16 22
M  V30 41 1 25 27
M  V30 42 1 32 33
M  V30 43 1 38 39
M  V30 END BOND
M  V30 END CTAB
M  END
>  <Molecule Name>
Compound 132

>  <Molecule Name 2>
Compound 132

>  <Compound ID>
66

>  <Name>
Brigatinib C

>  <Uniprot>
Q15418

>  <Target>
RPS6KA1

>  <Smiles>
COC1=CC(N2CCC(N3CCNCC3)CC2)=CC=C1NC1=NC=C(Cl)C(NC2=CC=CC=C2P(C)(C)=O)=N1

>  <Kd (nM)>


>  <Assay (Kd)>


>  <Ki (nM)>


>  <Assay (Ki)>


>  <IC50 (nM)>
6.8

>  <Assay (IC50)>
Inhibit proliferation of SR cells

>  <EC50 (nM)>


>  <Assay (EC50)>


>  <Article DOI>
10.1016/j.ejmech.2020.112190

>  <Molecular Weight>
570.078

>  <Exact Mass>
569.2434877

>  <XLogP3>
4.18

>  <Heavy Atom Count>
39

>  <Ring Count>
5

>  <Hydrogen Bond Acceptor Count>
9

>  <Hydrogen Bond Donor Count>
3

>  <Rotatable Bond Count>
8

>  <Topological Polar Surface Area>
94.65

>  <Molecular Formula>
C28H37ClN7O2P

>  <InChI>
InChI=1S/C28H37ClN7O2P/c1-38-25-18-21(35-14-10-20(11-15-35)36-16-12-30-13-17-36)8-9-23(25)33-28-31-19-22(29)27(34-28)32-24-6-4-5-7-26(24)39(2,3)37/h4-9,18-20,30H,10-17H2,1-3H3,(H2,31,32,33,34)

>  <InChI Key>
RWZBHSUFXJNDSS-UHFFFAOYSA-N

>  <BindingDB>


>  <PubChem>
68165330

>  <ChEMBL>
CHEMBL4793016

$$$$
67
Actelion Java MolfileCreator 2.0

  0  0  0  0  0  0              0 V3000
M  V30 BEGIN CTAB
M  V30 COUNTS 42 46 0 0 0
M  V30 BEGIN ATOM
M  V30 1 Cl 0.0 3.75 0.0 0
M  V30 2 C 1.299 4.5 0.0 0
M  V30 3 C 2.598 3.75 0.0 0
M  V30 4 C 1.299 6.0 0.0 0
M  V30 5 N 3.8971 4.5 0.0 0
M  V30 6 N 2.598 2.25 0.0 0
M  V30 7 N 2.598 6.75 0.0 0
M  V30 8 C 3.8971 6.0 0.0 0
M  V30 9 C 3.8971 1.5 0.0 0
M  V30 10 N 5.1961 6.75 0.0 0
M  V30 11 C 3.8971 0.0 0.0 0
M  V30 12 C 5.1961 2.25 0.0 0
M  V30 13 C 5.1961 8.25 0.0 0
M  V30 14 S 2.598 -0.75 0.0 0
M  V30 15 C 5.1961 -0.75 0.0 0
M  V30 16 C 6.4951 1.5 0.0 0
M  V30 17 C 6.4951 9.0 0.0 0
M  V30 18 C 3.8971 9.0 0.0 0
M  V30 19 O 1.848 -2.049 0.0 0
M  V30 20 O 3.348 -2.049 0.0 0
M  V30 21 C 1.299 0.0 0.0 0
M  V30 22 C 6.4951 0.0 0.0 0
M  V30 23 O 7.7942 8.25 0.0 0
M  V30 24 C 6.4951 10.5 0.0 0
M  V30 25 C 3.8971 10.5 0.0 0
M  V30 26 C 1.299 1.5 0.0 0
M  V30 27 C 0.0 -0.75 0.0 0
M  V30 28 C 9.0932 9.0 0.0 0
M  V30 29 C 5.1961 11.25 0.0 0
M  V30 30 N 5.1961 12.75 0.0 0
M  V30 31 C 6.4951 13.5 0.0 0
M  V30 32 C 3.8971 13.5 0.0 0
M  V30 33 C 6.4951 15.0 0.0 0
M  V30 34 C 3.8971 15.0 0.0 0
M  V30 35 C 5.1961 15.75 0.0 0
M  V30 36 N 5.1961 17.25 0.0 0
M  V30 37 C 6.4951 18.0 0.0 0
M  V30 38 C 3.8971 18.0 0.0 0
M  V30 39 C 6.4951 19.5 0.0 0
M  V30 40 C 3.8971 19.5 0.0 0
M  V30 41 N 5.1961 20.25 0.0 0
M  V30 42 C 5.1961 21.75 0.0 0
M  V30 END ATOM
M  V30 BEGIN BOND
M  V30 1 1 1 2
M  V30 2 2 2 3
M  V30 3 1 2 4
M  V30 4 1 3 5
M  V30 5 1 3 6
M  V30 6 2 4 7
M  V30 7 2 5 8
M  V30 8 1 6 9
M  V30 9 1 8 10
M  V30 10 2 9 11
M  V30 11 1 9 12
M  V30 12 1 10 13
M  V30 13 1 11 14
M  V30 14 1 11 15
M  V30 15 2 12 16
M  V30 16 2 13 17
M  V30 17 1 13 18
M  V30 18 2 14 19
M  V30 19 2 14 20
M  V30 20 1 14 21
M  V30 21 2 15 22
M  V30 22 1 17 23
M  V30 23 1 17 24
M  V30 24 2 18 25
M  V30 25 1 21 26
M  V30 26 1 21 27
M  V30 27 1 23 28
M  V30 28 2 24 29
M  V30 29 1 29 30
M  V30 30 1 30 31
M  V30 31 1 30 32
M  V30 32 1 31 33
M  V30 33 1 32 34
M  V30 34 1 33 35
M  V30 35 1 35 36
M  V30 36 1 36 37
M  V30 37 1 36 38
M  V30 38 1 37 39
M  V30 39 1 38 40
M  V30 40 1 39 41
M  V30 41 1 41 42
M  V30 42 1 7 8
M  V30 43 1 16 22
M  V30 44 1 25 29
M  V30 45 1 34 35
M  V30 46 1 40 41
M  V30 END BOND
M  V30 END CTAB
M  END
>  <Molecule Name>
Compound 133

>  <Molecule Name 2>
Compound 133

>  <Compound ID>
67

>  <Name>
TAE684

>  <Uniprot>
Q2M2I8

>  <Target>
AAK1

>  <Smiles>
COC1=CC(N2CCC(N3CCN(C)CC3)CC2)=CC=C1NC1=NC=C(Cl)C(NC2=CC=CC=C2S(=O)(=O)C(C)C)=N1

>  <Kd (nM)>
470

>  <Assay (Kd)>
Kd was assessed by competition binding assays

>  <Ki (nM)>


>  <Assay (Ki)>


>  <IC50 (nM)>


>  <Assay (IC50)>


>  <EC50 (nM)>


>  <Assay (EC50)>


>  <Article DOI>
10.1038/nbt.1990

>  <Molecular Weight>
614.216

>  <Exact Mass>
613.2601868

>  <XLogP3>
5.67

>  <Heavy Atom Count>
42

>  <Ring Count>
5

>  <Hydrogen Bond Acceptor Count>
10

>  <Hydrogen Bond Donor Count>
2

>  <Rotatable Bond Count>
9

>  <Topological Polar Surface Area>
102.93

>  <Molecular Formula>
C30H40ClN7O3S

>  <InChI>
InChI=1S/C30H40ClN7O3S/c1-21(2)42(39,40)28-8-6-5-7-26(28)33-29-24(31)20-32-30(35-29)34-25-10-9-23(19-27(25)41-4)37-13-11-22(12-14-37)38-17-15-36(3)16-18-38/h5-10,19-22H,11-18H2,1-4H3,(H2,32,33,34,35)

>  <InChI Key>
QQWUGDVOUVUTOY-UHFFFAOYSA-N

>  <BindingDB>
50242742

>  <PubChem>
16038120

>  <ChEMBL>
CHEMBL509032

$$$$
67
Actelion Java MolfileCreator 2.0

  0  0  0  0  0  0              0 V3000
M  V30 BEGIN CTAB
M  V30 COUNTS 42 46 0 0 0
M  V30 BEGIN ATOM
M  V30 1 Cl 0.0 3.75 0.0 0
M  V30 2 C 1.299 4.5 0.0 0
M  V30 3 C 2.598 3.75 0.0 0
M  V30 4 C 1.299 6.0 0.0 0
M  V30 5 N 3.8971 4.5 0.0 0
M  V30 6 N 2.598 2.25 0.0 0
M  V30 7 N 2.598 6.75 0.0 0
M  V30 8 C 3.8971 6.0 0.0 0
M  V30 9 C 3.8971 1.5 0.0 0
M  V30 10 N 5.1961 6.75 0.0 0
M  V30 11 C 3.8971 0.0 0.0 0
M  V30 12 C 5.1961 2.25 0.0 0
M  V30 13 C 5.1961 8.25 0.0 0
M  V30 14 S 2.598 -0.75 0.0 0
M  V30 15 C 5.1961 -0.75 0.0 0
M  V30 16 C 6.4951 1.5 0.0 0
M  V30 17 C 6.4951 9.0 0.0 0
M  V30 18 C 3.8971 9.0 0.0 0
M  V30 19 O 1.848 -2.049 0.0 0
M  V30 20 O 3.348 -2.049 0.0 0
M  V30 21 C 1.299 0.0 0.0 0
M  V30 22 C 6.4951 0.0 0.0 0
M  V30 23 O 7.7942 8.25 0.0 0
M  V30 24 C 6.4951 10.5 0.0 0
M  V30 25 C 3.8971 10.5 0.0 0
M  V30 26 C 1.299 1.5 0.0 0
M  V30 27 C 0.0 -0.75 0.0 0
M  V30 28 C 9.0932 9.0 0.0 0
M  V30 29 C 5.1961 11.25 0.0 0
M  V30 30 N 5.1961 12.75 0.0 0
M  V30 31 C 6.4951 13.5 0.0 0
M  V30 32 C 3.8971 13.5 0.0 0
M  V30 33 C 6.4951 15.0 0.0 0
M  V30 34 C 3.8971 15.0 0.0 0
M  V30 35 C 5.1961 15.75 0.0 0
M  V30 36 N 5.1961 17.25 0.0 0
M  V30 37 C 6.4951 18.0 0.0 0
M  V30 38 C 3.8971 18.0 0.0 0
M  V30 39 C 6.4951 19.5 0.0 0
M  V30 40 C 3.8971 19.5 0.0 0
M  V30 41 N 5.1961 20.25 0.0 0
M  V30 42 C 5.1961 21.75 0.0 0
M  V30 END ATOM
M  V30 BEGIN BOND
M  V30 1 1 1 2
M  V30 2 2 2 3
M  V30 3 1 2 4
M  V30 4 1 3 5
M  V30 5 1 3 6
M  V30 6 2 4 7
M  V30 7 2 5 8
M  V30 8 1 6 9
M  V30 9 1 8 10
M  V30 10 2 9 11
M  V30 11 1 9 12
M  V30 12 1 10 13
M  V30 13 1 11 14
M  V30 14 1 11 15
M  V30 15 2 12 16
M  V30 16 2 13 17
M  V30 17 1 13 18
M  V30 18 2 14 19
M  V30 19 2 14 20
M  V30 20 1 14 21
M  V30 21 2 15 22
M  V30 22 1 17 23
M  V30 23 1 17 24
M  V30 24 2 18 25
M  V30 25 1 21 26
M  V30 26 1 21 27
M  V30 27 1 23 28
M  V30 28 2 24 29
M  V30 29 1 29 30
M  V30 30 1 30 31
M  V30 31 1 30 32
M  V30 32 1 31 33
M  V30 33 1 32 34
M  V30 34 1 33 35
M  V30 35 1 35 36
M  V30 36 1 36 37
M  V30 37 1 36 38
M  V30 38 1 37 39
M  V30 39 1 38 40
M  V30 40 1 39 41
M  V30 41 1 41 42
M  V30 42 1 7 8
M  V30 43 1 16 22
M  V30 44 1 25 29
M  V30 45 1 34 35
M  V30 46 1 40 41
M  V30 END BOND
M  V30 END CTAB
M  END
>  <Molecule Name>
Compound 134

>  <Molecule Name 2>
Compound 134

>  <Compound ID>
67

>  <Name>
TAE684

>  <Uniprot>
P00519

>  <Target>
ABL1

>  <Smiles>
COC1=CC(N2CCC(N3CCN(C)CC3)CC2)=CC=C1NC1=NC=C(Cl)C(NC2=CC=CC=C2S(=O)(=O)C(C)C)=N1

>  <Kd (nM)>
200/170

>  <Assay (Kd)>
Kd of ABL1-non phosphorylated/ABL1-phosphorylated was assessed by competition binding assays

>  <Ki (nM)>


>  <Assay (Ki)>


>  <IC50 (nM)>


>  <Assay (IC50)>


>  <EC50 (nM)>


>  <Assay (EC50)>


>  <Article DOI>
10.1038/nbt.1990

>  <Molecular Weight>
614.216

>  <Exact Mass>
613.2601868

>  <XLogP3>
5.67

>  <Heavy Atom Count>
42

>  <Ring Count>
5

>  <Hydrogen Bond Acceptor Count>
10

>  <Hydrogen Bond Donor Count>
2

>  <Rotatable Bond Count>
9

>  <Topological Polar Surface Area>
102.93

>  <Molecular Formula>
C30H40ClN7O3S

>  <InChI>
InChI=1S/C30H40ClN7O3S/c1-21(2)42(39,40)28-8-6-5-7-26(28)33-29-24(31)20-32-30(35-29)34-25-10-9-23(19-27(25)41-4)37-13-11-22(12-14-37)38-17-15-36(3)16-18-38/h5-10,19-22H,11-18H2,1-4H3,(H2,32,33,34,35)

>  <InChI Key>
QQWUGDVOUVUTOY-UHFFFAOYSA-N

>  <BindingDB>
50242742

>  <PubChem>
16038120

>  <ChEMBL>
CHEMBL509032

$$$$
67
Actelion Java MolfileCreator 2.0

  0  0  0  0  0  0              0 V3000
M  V30 BEGIN CTAB
M  V30 COUNTS 42 46 0 0 0
M  V30 BEGIN ATOM
M  V30 1 Cl 0.0 3.75 0.0 0
M  V30 2 C 1.299 4.5 0.0 0
M  V30 3 C 2.598 3.75 0.0 0
M  V30 4 C 1.299 6.0 0.0 0
M  V30 5 N 3.8971 4.5 0.0 0
M  V30 6 N 2.598 2.25 0.0 0
M  V30 7 N 2.598 6.75 0.0 0
M  V30 8 C 3.8971 6.0 0.0 0
M  V30 9 C 3.8971 1.5 0.0 0
M  V30 10 N 5.1961 6.75 0.0 0
M  V30 11 C 3.8971 0.0 0.0 0
M  V30 12 C 5.1961 2.25 0.0 0
M  V30 13 C 5.1961 8.25 0.0 0
M  V30 14 S 2.598 -0.75 0.0 0
M  V30 15 C 5.1961 -0.75 0.0 0
M  V30 16 C 6.4951 1.5 0.0 0
M  V30 17 C 6.4951 9.0 0.0 0
M  V30 18 C 3.8971 9.0 0.0 0
M  V30 19 O 1.848 -2.049 0.0 0
M  V30 20 O 3.348 -2.049 0.0 0
M  V30 21 C 1.299 0.0 0.0 0
M  V30 22 C 6.4951 0.0 0.0 0
M  V30 23 O 7.7942 8.25 0.0 0
M  V30 24 C 6.4951 10.5 0.0 0
M  V30 25 C 3.8971 10.5 0.0 0
M  V30 26 C 1.299 1.5 0.0 0
M  V30 27 C 0.0 -0.75 0.0 0
M  V30 28 C 9.0932 9.0 0.0 0
M  V30 29 C 5.1961 11.25 0.0 0
M  V30 30 N 5.1961 12.75 0.0 0
M  V30 31 C 6.4951 13.5 0.0 0
M  V30 32 C 3.8971 13.5 0.0 0
M  V30 33 C 6.4951 15.0 0.0 0
M  V30 34 C 3.8971 15.0 0.0 0
M  V30 35 C 5.1961 15.75 0.0 0
M  V30 36 N 5.1961 17.25 0.0 0
M  V30 37 C 6.4951 18.0 0.0 0
M  V30 38 C 3.8971 18.0 0.0 0
M  V30 39 C 6.4951 19.5 0.0 0
M  V30 40 C 3.8971 19.5 0.0 0
M  V30 41 N 5.1961 20.25 0.0 0
M  V30 42 C 5.1961 21.75 0.0 0
M  V30 END ATOM
M  V30 BEGIN BOND
M  V30 1 1 1 2
M  V30 2 2 2 3
M  V30 3 1 2 4
M  V30 4 1 3 5
M  V30 5 1 3 6
M  V30 6 2 4 7
M  V30 7 2 5 8
M  V30 8 1 6 9
M  V30 9 1 8 10
M  V30 10 2 9 11
M  V30 11 1 9 12
M  V30 12 1 10 13
M  V30 13 1 11 14
M  V30 14 1 11 15
M  V30 15 2 12 16
M  V30 16 2 13 17
M  V30 17 1 13 18
M  V30 18 2 14 19
M  V30 19 2 14 20
M  V30 20 1 14 21
M  V30 21 2 15 22
M  V30 22 1 17 23
M  V30 23 1 17 24
M  V30 24 2 18 25
M  V30 25 1 21 26
M  V30 26 1 21 27
M  V30 27 1 23 28
M  V30 28 2 24 29
M  V30 29 1 29 30
M  V30 30 1 30 31
M  V30 31 1 30 32
M  V30 32 1 31 33
M  V30 33 1 32 34
M  V30 34 1 33 35
M  V30 35 1 35 36
M  V30 36 1 36 37
M  V30 37 1 36 38
M  V30 38 1 37 39
M  V30 39 1 38 40
M  V30 40 1 39 41
M  V30 41 1 41 42
M  V30 42 1 7 8
M  V30 43 1 16 22
M  V30 44 1 25 29
M  V30 45 1 34 35
M  V30 46 1 40 41
M  V30 END BOND
M  V30 END CTAB
M  END
>  <Molecule Name>
Compound 135

>  <Molecule Name 2>
Compound 135

>  <Compound ID>
67

>  <Name>
TAE684

>  <Uniprot>
P42684

>  <Target>
ABL2

>  <Smiles>
COC1=CC(N2CCC(N3CCN(C)CC3)CC2)=CC=C1NC1=NC=C(Cl)C(NC2=CC=CC=C2S(=O)(=O)C(C)C)=N1

>  <Kd (nM)>
380

>  <Assay (Kd)>
Kd was assessed by competition binding assays

>  <Ki (nM)>


>  <Assay (Ki)>


>  <IC50 (nM)>


>  <Assay (IC50)>


>  <EC50 (nM)>


>  <Assay (EC50)>


>  <Article DOI>
10.1038/nbt.1990

>  <Molecular Weight>
614.216

>  <Exact Mass>
613.2601868

>  <XLogP3>
5.67

>  <Heavy Atom Count>
42

>  <Ring Count>
5

>  <Hydrogen Bond Acceptor Count>
10

>  <Hydrogen Bond Donor Count>
2

>  <Rotatable Bond Count>
9

>  <Topological Polar Surface Area>
102.93

>  <Molecular Formula>
C30H40ClN7O3S

>  <InChI>
InChI=1S/C30H40ClN7O3S/c1-21(2)42(39,40)28-8-6-5-7-26(28)33-29-24(31)20-32-30(35-29)34-25-10-9-23(19-27(25)41-4)37-13-11-22(12-14-37)38-17-15-36(3)16-18-38/h5-10,19-22H,11-18H2,1-4H3,(H2,32,33,34,35)

>  <InChI Key>
QQWUGDVOUVUTOY-UHFFFAOYSA-N

>  <BindingDB>
50242742

>  <PubChem>
16038120

>  <ChEMBL>
CHEMBL509032

$$$$
67
Actelion Java MolfileCreator 2.0

  0  0  0  0  0  0              0 V3000
M  V30 BEGIN CTAB
M  V30 COUNTS 42 46 0 0 0
M  V30 BEGIN ATOM
M  V30 1 Cl 0.0 3.75 0.0 0
M  V30 2 C 1.299 4.5 0.0 0
M  V30 3 C 2.598 3.75 0.0 0
M  V30 4 C 1.299 6.0 0.0 0
M  V30 5 N 3.8971 4.5 0.0 0
M  V30 6 N 2.598 2.25 0.0 0
M  V30 7 N 2.598 6.75 0.0 0
M  V30 8 C 3.8971 6.0 0.0 0
M  V30 9 C 3.8971 1.5 0.0 0
M  V30 10 N 5.1961 6.75 0.0 0
M  V30 11 C 3.8971 0.0 0.0 0
M  V30 12 C 5.1961 2.25 0.0 0
M  V30 13 C 5.1961 8.25 0.0 0
M  V30 14 S 2.598 -0.75 0.0 0
M  V30 15 C 5.1961 -0.75 0.0 0
M  V30 16 C 6.4951 1.5 0.0 0
M  V30 17 C 6.4951 9.0 0.0 0
M  V30 18 C 3.8971 9.0 0.0 0
M  V30 19 O 1.848 -2.049 0.0 0
M  V30 20 O 3.348 -2.049 0.0 0
M  V30 21 C 1.299 0.0 0.0 0
M  V30 22 C 6.4951 0.0 0.0 0
M  V30 23 O 7.7942 8.25 0.0 0
M  V30 24 C 6.4951 10.5 0.0 0
M  V30 25 C 3.8971 10.5 0.0 0
M  V30 26 C 1.299 1.5 0.0 0
M  V30 27 C 0.0 -0.75 0.0 0
M  V30 28 C 9.0932 9.0 0.0 0
M  V30 29 C 5.1961 11.25 0.0 0
M  V30 30 N 5.1961 12.75 0.0 0
M  V30 31 C 6.4951 13.5 0.0 0
M  V30 32 C 3.8971 13.5 0.0 0
M  V30 33 C 6.4951 15.0 0.0 0
M  V30 34 C 3.8971 15.0 0.0 0
M  V30 35 C 5.1961 15.75 0.0 0
M  V30 36 N 5.1961 17.25 0.0 0
M  V30 37 C 6.4951 18.0 0.0 0
M  V30 38 C 3.8971 18.0 0.0 0
M  V30 39 C 6.4951 19.5 0.0 0
M  V30 40 C 3.8971 19.5 0.0 0
M  V30 41 N 5.1961 20.25 0.0 0
M  V30 42 C 5.1961 21.75 0.0 0
M  V30 END ATOM
M  V30 BEGIN BOND
M  V30 1 1 1 2
M  V30 2 2 2 3
M  V30 3 1 2 4
M  V30 4 1 3 5
M  V30 5 1 3 6
M  V30 6 2 4 7
M  V30 7 2 5 8
M  V30 8 1 6 9
M  V30 9 1 8 10
M  V30 10 2 9 11
M  V30 11 1 9 12
M  V30 12 1 10 13
M  V30 13 1 11 14
M  V30 14 1 11 15
M  V30 15 2 12 16
M  V30 16 2 13 17
M  V30 17 1 13 18
M  V30 18 2 14 19
M  V30 19 2 14 20
M  V30 20 1 14 21
M  V30 21 2 15 22
M  V30 22 1 17 23
M  V30 23 1 17 24
M  V30 24 2 18 25
M  V30 25 1 21 26
M  V30 26 1 21 27
M  V30 27 1 23 28
M  V30 28 2 24 29
M  V30 29 1 29 30
M  V30 30 1 30 31
M  V30 31 1 30 32
M  V30 32 1 31 33
M  V30 33 1 32 34
M  V30 34 1 33 35
M  V30 35 1 35 36
M  V30 36 1 36 37
M  V30 37 1 36 38
M  V30 38 1 37 39
M  V30 39 1 38 40
M  V30 40 1 39 41
M  V30 41 1 41 42
M  V30 42 1 7 8
M  V30 43 1 16 22
M  V30 44 1 25 29
M  V30 45 1 34 35
M  V30 46 1 40 41
M  V30 END BOND
M  V30 END CTAB
M  END
>  <Molecule Name>
Compound 136

>  <Molecule Name 2>
Compound 136

>  <Compound ID>
67

>  <Name>
TAE684

>  <Uniprot>
P31751

>  <Target>
AKT2

>  <Smiles>
COC1=CC(N2CCC(N3CCN(C)CC3)CC2)=CC=C1NC1=NC=C(Cl)C(NC2=CC=CC=C2S(=O)(=O)C(C)C)=N1

>  <Kd (nM)>
>10000

>  <Assay (Kd)>
Kd was assessed by competition binding assays

>  <Ki (nM)>


>  <Assay (Ki)>


>  <IC50 (nM)>


>  <Assay (IC50)>


>  <EC50 (nM)>


>  <Assay (EC50)>


>  <Article DOI>
10.1038/nbt.1990

>  <Molecular Weight>
614.216

>  <Exact Mass>
613.2601868

>  <XLogP3>
5.67

>  <Heavy Atom Count>
42

>  <Ring Count>
5

>  <Hydrogen Bond Acceptor Count>
10

>  <Hydrogen Bond Donor Count>
2

>  <Rotatable Bond Count>
9

>  <Topological Polar Surface Area>
102.93

>  <Molecular Formula>
C30H40ClN7O3S

>  <InChI>
InChI=1S/C30H40ClN7O3S/c1-21(2)42(39,40)28-8-6-5-7-26(28)33-29-24(31)20-32-30(35-29)34-25-10-9-23(19-27(25)41-4)37-13-11-22(12-14-37)38-17-15-36(3)16-18-38/h5-10,19-22H,11-18H2,1-4H3,(H2,32,33,34,35)

>  <InChI Key>
QQWUGDVOUVUTOY-UHFFFAOYSA-N

>  <BindingDB>
50242742

>  <PubChem>
16038120

>  <ChEMBL>
CHEMBL509032

$$$$
67
Actelion Java MolfileCreator 2.0

  0  0  0  0  0  0              0 V3000
M  V30 BEGIN CTAB
M  V30 COUNTS 42 46 0 0 0
M  V30 BEGIN ATOM
M  V30 1 Cl 0.0 3.75 0.0 0
M  V30 2 C 1.299 4.5 0.0 0
M  V30 3 C 2.598 3.75 0.0 0
M  V30 4 C 1.299 6.0 0.0 0
M  V30 5 N 3.8971 4.5 0.0 0
M  V30 6 N 2.598 2.25 0.0 0
M  V30 7 N 2.598 6.75 0.0 0
M  V30 8 C 3.8971 6.0 0.0 0
M  V30 9 C 3.8971 1.5 0.0 0
M  V30 10 N 5.1961 6.75 0.0 0
M  V30 11 C 3.8971 0.0 0.0 0
M  V30 12 C 5.1961 2.25 0.0 0
M  V30 13 C 5.1961 8.25 0.0 0
M  V30 14 S 2.598 -0.75 0.0 0
M  V30 15 C 5.1961 -0.75 0.0 0
M  V30 16 C 6.4951 1.5 0.0 0
M  V30 17 C 6.4951 9.0 0.0 0
M  V30 18 C 3.8971 9.0 0.0 0
M  V30 19 O 1.848 -2.049 0.0 0
M  V30 20 O 3.348 -2.049 0.0 0
M  V30 21 C 1.299 0.0 0.0 0
M  V30 22 C 6.4951 0.0 0.0 0
M  V30 23 O 7.7942 8.25 0.0 0
M  V30 24 C 6.4951 10.5 0.0 0
M  V30 25 C 3.8971 10.5 0.0 0
M  V30 26 C 1.299 1.5 0.0 0
M  V30 27 C 0.0 -0.75 0.0 0
M  V30 28 C 9.0932 9.0 0.0 0
M  V30 29 C 5.1961 11.25 0.0 0
M  V30 30 N 5.1961 12.75 0.0 0
M  V30 31 C 6.4951 13.5 0.0 0
M  V30 32 C 3.8971 13.5 0.0 0
M  V30 33 C 6.4951 15.0 0.0 0
M  V30 34 C 3.8971 15.0 0.0 0
M  V30 35 C 5.1961 15.75 0.0 0
M  V30 36 N 5.1961 17.25 0.0 0
M  V30 37 C 6.4951 18.0 0.0 0
M  V30 38 C 3.8971 18.0 0.0 0
M  V30 39 C 6.4951 19.5 0.0 0
M  V30 40 C 3.8971 19.5 0.0 0
M  V30 41 N 5.1961 20.25 0.0 0
M  V30 42 C 5.1961 21.75 0.0 0
M  V30 END ATOM
M  V30 BEGIN BOND
M  V30 1 1 1 2
M  V30 2 2 2 3
M  V30 3 1 2 4
M  V30 4 1 3 5
M  V30 5 1 3 6
M  V30 6 2 4 7
M  V30 7 2 5 8
M  V30 8 1 6 9
M  V30 9 1 8 10
M  V30 10 2 9 11
M  V30 11 1 9 12
M  V30 12 1 10 13
M  V30 13 1 11 14
M  V30 14 1 11 15
M  V30 15 2 12 16
M  V30 16 2 13 17
M  V30 17 1 13 18
M  V30 18 2 14 19
M  V30 19 2 14 20
M  V30 20 1 14 21
M  V30 21 2 15 22
M  V30 22 1 17 23
M  V30 23 1 17 24
M  V30 24 2 18 25
M  V30 25 1 21 26
M  V30 26 1 21 27
M  V30 27 1 23 28
M  V30 28 2 24 29
M  V30 29 1 29 30
M  V30 30 1 30 31
M  V30 31 1 30 32
M  V30 32 1 31 33
M  V30 33 1 32 34
M  V30 34 1 33 35
M  V30 35 1 35 36
M  V30 36 1 36 37
M  V30 37 1 36 38
M  V30 38 1 37 39
M  V30 39 1 38 40
M  V30 40 1 39 41
M  V30 41 1 41 42
M  V30 42 1 7 8
M  V30 43 1 16 22
M  V30 44 1 25 29
M  V30 45 1 34 35
M  V30 46 1 40 41
M  V30 END BOND
M  V30 END CTAB
M  END
>  <Molecule Name>
Compound 137

>  <Molecule Name 2>
Compound 137

>  <Compound ID>
67

>  <Name>
TAE684

>  <Uniprot>
Q9Y243

>  <Target>
AKT3

>  <Smiles>
COC1=CC(N2CCC(N3CCN(C)CC3)CC2)=CC=C1NC1=NC=C(Cl)C(NC2=CC=CC=C2S(=O)(=O)C(C)C)=N1

>  <Kd (nM)>
>10000

>  <Assay (Kd)>
Kd was assessed by competition binding assays

>  <Ki (nM)>


>  <Assay (Ki)>


>  <IC50 (nM)>


>  <Assay (IC50)>


>  <EC50 (nM)>


>  <Assay (EC50)>


>  <Article DOI>
10.1038/nbt.1990

>  <Molecular Weight>
614.216

>  <Exact Mass>
613.2601868

>  <XLogP3>
5.67

>  <Heavy Atom Count>
42

>  <Ring Count>
5

>  <Hydrogen Bond Acceptor Count>
10

>  <Hydrogen Bond Donor Count>
2

>  <Rotatable Bond Count>
9

>  <Topological Polar Surface Area>
102.93

>  <Molecular Formula>
C30H40ClN7O3S

>  <InChI>
InChI=1S/C30H40ClN7O3S/c1-21(2)42(39,40)28-8-6-5-7-26(28)33-29-24(31)20-32-30(35-29)34-25-10-9-23(19-27(25)41-4)37-13-11-22(12-14-37)38-17-15-36(3)16-18-38/h5-10,19-22H,11-18H2,1-4H3,(H2,32,33,34,35)

>  <InChI Key>
QQWUGDVOUVUTOY-UHFFFAOYSA-N

>  <BindingDB>
50242742

>  <PubChem>
16038120

>  <ChEMBL>
CHEMBL509032

$$$$
67
Actelion Java MolfileCreator 2.0

  0  0  0  0  0  0              0 V3000
M  V30 BEGIN CTAB
M  V30 COUNTS 42 46 0 0 0
M  V30 BEGIN ATOM
M  V30 1 Cl 0.0 3.75 0.0 0
M  V30 2 C 1.299 4.5 0.0 0
M  V30 3 C 2.598 3.75 0.0 0
M  V30 4 C 1.299 6.0 0.0 0
M  V30 5 N 3.8971 4.5 0.0 0
M  V30 6 N 2.598 2.25 0.0 0
M  V30 7 N 2.598 6.75 0.0 0
M  V30 8 C 3.8971 6.0 0.0 0
M  V30 9 C 3.8971 1.5 0.0 0
M  V30 10 N 5.1961 6.75 0.0 0
M  V30 11 C 3.8971 0.0 0.0 0
M  V30 12 C 5.1961 2.25 0.0 0
M  V30 13 C 5.1961 8.25 0.0 0
M  V30 14 S 2.598 -0.75 0.0 0
M  V30 15 C 5.1961 -0.75 0.0 0
M  V30 16 C 6.4951 1.5 0.0 0
M  V30 17 C 6.4951 9.0 0.0 0
M  V30 18 C 3.8971 9.0 0.0 0
M  V30 19 O 1.848 -2.049 0.0 0
M  V30 20 O 3.348 -2.049 0.0 0
M  V30 21 C 1.299 0.0 0.0 0
M  V30 22 C 6.4951 0.0 0.0 0
M  V30 23 O 7.7942 8.25 0.0 0
M  V30 24 C 6.4951 10.5 0.0 0
M  V30 25 C 3.8971 10.5 0.0 0
M  V30 26 C 1.299 1.5 0.0 0
M  V30 27 C 0.0 -0.75 0.0 0
M  V30 28 C 9.0932 9.0 0.0 0
M  V30 29 C 5.1961 11.25 0.0 0
M  V30 30 N 5.1961 12.75 0.0 0
M  V30 31 C 6.4951 13.5 0.0 0
M  V30 32 C 3.8971 13.5 0.0 0
M  V30 33 C 6.4951 15.0 0.0 0
M  V30 34 C 3.8971 15.0 0.0 0
M  V30 35 C 5.1961 15.75 0.0 0
M  V30 36 N 5.1961 17.25 0.0 0
M  V30 37 C 6.4951 18.0 0.0 0
M  V30 38 C 3.8971 18.0 0.0 0
M  V30 39 C 6.4951 19.5 0.0 0
M  V30 40 C 3.8971 19.5 0.0 0
M  V30 41 N 5.1961 20.25 0.0 0
M  V30 42 C 5.1961 21.75 0.0 0
M  V30 END ATOM
M  V30 BEGIN BOND
M  V30 1 1 1 2
M  V30 2 2 2 3
M  V30 3 1 2 4
M  V30 4 1 3 5
M  V30 5 1 3 6
M  V30 6 2 4 7
M  V30 7 2 5 8
M  V30 8 1 6 9
M  V30 9 1 8 10
M  V30 10 2 9 11
M  V30 11 1 9 12
M  V30 12 1 10 13
M  V30 13 1 11 14
M  V30 14 1 11 15
M  V30 15 2 12 16
M  V30 16 2 13 17
M  V30 17 1 13 18
M  V30 18 2 14 19
M  V30 19 2 14 20
M  V30 20 1 14 21
M  V30 21 2 15 22
M  V30 22 1 17 23
M  V30 23 1 17 24
M  V30 24 2 18 25
M  V30 25 1 21 26
M  V30 26 1 21 27
M  V30 27 1 23 28
M  V30 28 2 24 29
M  V30 29 1 29 30
M  V30 30 1 30 31
M  V30 31 1 30 32
M  V30 32 1 31 33
M  V30 33 1 32 34
M  V30 34 1 33 35
M  V30 35 1 35 36
M  V30 36 1 36 37
M  V30 37 1 36 38
M  V30 38 1 37 39
M  V30 39 1 38 40
M  V30 40 1 39 41
M  V30 41 1 41 42
M  V30 42 1 7 8
M  V30 43 1 16 22
M  V30 44 1 25 29
M  V30 45 1 34 35
M  V30 46 1 40 41
M  V30 END BOND
M  V30 END CTAB
M  END
>  <Molecule Name>
Compound 138

>  <Molecule Name 2>
Compound 138

>  <Compound ID>
67

>  <Name>
TAE684

>  <Uniprot>
Q9UM73

>  <Target>
ALK

>  <Smiles>
COC1=CC(N2CCC(N3CCN(C)CC3)CC2)=CC=C1NC1=NC=C(Cl)C(NC2=CC=CC=C2S(=O)(=O)C(C)C)=N1

>  <Kd (nM)>


>  <Assay (Kd)>


>  <Ki (nM)>


>  <Assay (Ki)>


>  <IC50 (nM)>
0.1

>  <Assay (IC50)>
IC50 of ALK was assessed by TR-FRET ALK activity assay

>  <EC50 (nM)>


>  <Assay (EC50)>


>  <Article DOI>
10.1021/acs.jmedchem.7b01655

>  <Molecular Weight>
614.216

>  <Exact Mass>
613.2601868

>  <XLogP3>
5.67

>  <Heavy Atom Count>
42

>  <Ring Count>
5

>  <Hydrogen Bond Acceptor Count>
10

>  <Hydrogen Bond Donor Count>
2

>  <Rotatable Bond Count>
9

>  <Topological Polar Surface Area>
102.93

>  <Molecular Formula>
C30H40ClN7O3S

>  <InChI>
InChI=1S/C30H40ClN7O3S/c1-21(2)42(39,40)28-8-6-5-7-26(28)33-29-24(31)20-32-30(35-29)34-25-10-9-23(19-27(25)41-4)37-13-11-22(12-14-37)38-17-15-36(3)16-18-38/h5-10,19-22H,11-18H2,1-4H3,(H2,32,33,34,35)

>  <InChI Key>
QQWUGDVOUVUTOY-UHFFFAOYSA-N

>  <BindingDB>
50242742

>  <PubChem>
16038120

>  <ChEMBL>
CHEMBL509032

$$$$
67
Actelion Java MolfileCreator 2.0

  0  0  0  0  0  0              0 V3000
M  V30 BEGIN CTAB
M  V30 COUNTS 42 46 0 0 0
M  V30 BEGIN ATOM
M  V30 1 Cl 0.0 3.75 0.0 0
M  V30 2 C 1.299 4.5 0.0 0
M  V30 3 C 2.598 3.75 0.0 0
M  V30 4 C 1.299 6.0 0.0 0
M  V30 5 N 3.8971 4.5 0.0 0
M  V30 6 N 2.598 2.25 0.0 0
M  V30 7 N 2.598 6.75 0.0 0
M  V30 8 C 3.8971 6.0 0.0 0
M  V30 9 C 3.8971 1.5 0.0 0
M  V30 10 N 5.1961 6.75 0.0 0
M  V30 11 C 3.8971 0.0 0.0 0
M  V30 12 C 5.1961 2.25 0.0 0
M  V30 13 C 5.1961 8.25 0.0 0
M  V30 14 S 2.598 -0.75 0.0 0
M  V30 15 C 5.1961 -0.75 0.0 0
M  V30 16 C 6.4951 1.5 0.0 0
M  V30 17 C 6.4951 9.0 0.0 0
M  V30 18 C 3.8971 9.0 0.0 0
M  V30 19 O 1.848 -2.049 0.0 0
M  V30 20 O 3.348 -2.049 0.0 0
M  V30 21 C 1.299 0.0 0.0 0
M  V30 22 C 6.4951 0.0 0.0 0
M  V30 23 O 7.7942 8.25 0.0 0
M  V30 24 C 6.4951 10.5 0.0 0
M  V30 25 C 3.8971 10.5 0.0 0
M  V30 26 C 1.299 1.5 0.0 0
M  V30 27 C 0.0 -0.75 0.0 0
M  V30 28 C 9.0932 9.0 0.0 0
M  V30 29 C 5.1961 11.25 0.0 0
M  V30 30 N 5.1961 12.75 0.0 0
M  V30 31 C 6.4951 13.5 0.0 0
M  V30 32 C 3.8971 13.5 0.0 0
M  V30 33 C 6.4951 15.0 0.0 0
M  V30 34 C 3.8971 15.0 0.0 0
M  V30 35 C 5.1961 15.75 0.0 0
M  V30 36 N 5.1961 17.25 0.0 0
M  V30 37 C 6.4951 18.0 0.0 0
M  V30 38 C 3.8971 18.0 0.0 0
M  V30 39 C 6.4951 19.5 0.0 0
M  V30 40 C 3.8971 19.5 0.0 0
M  V30 41 N 5.1961 20.25 0.0 0
M  V30 42 C 5.1961 21.75 0.0 0
M  V30 END ATOM
M  V30 BEGIN BOND
M  V30 1 1 1 2
M  V30 2 2 2 3
M  V30 3 1 2 4
M  V30 4 1 3 5
M  V30 5 1 3 6
M  V30 6 2 4 7
M  V30 7 2 5 8
M  V30 8 1 6 9
M  V30 9 1 8 10
M  V30 10 2 9 11
M  V30 11 1 9 12
M  V30 12 1 10 13
M  V30 13 1 11 14
M  V30 14 1 11 15
M  V30 15 2 12 16
M  V30 16 2 13 17
M  V30 17 1 13 18
M  V30 18 2 14 19
M  V30 19 2 14 20
M  V30 20 1 14 21
M  V30 21 2 15 22
M  V30 22 1 17 23
M  V30 23 1 17 24
M  V30 24 2 18 25
M  V30 25 1 21 26
M  V30 26 1 21 27
M  V30 27 1 23 28
M  V30 28 2 24 29
M  V30 29 1 29 30
M  V30 30 1 30 31
M  V30 31 1 30 32
M  V30 32 1 31 33
M  V30 33 1 32 34
M  V30 34 1 33 35
M  V30 35 1 35 36
M  V30 36 1 36 37
M  V30 37 1 36 38
M  V30 38 1 37 39
M  V30 39 1 38 40
M  V30 40 1 39 41
M  V30 41 1 41 42
M  V30 42 1 7 8
M  V30 43 1 16 22
M  V30 44 1 25 29
M  V30 45 1 34 35
M  V30 46 1 40 41
M  V30 END BOND
M  V30 END CTAB
M  END
>  <Molecule Name>
Compound 139

>  <Molecule Name 2>
Compound 139

>  <Compound ID>
67

>  <Name>
TAE684

>  <Uniprot>
O14965

>  <Target>
AURKA

>  <Smiles>
COC1=CC(N2CCC(N3CCN(C)CC3)CC2)=CC=C1NC1=NC=C(Cl)C(NC2=CC=CC=C2S(=O)(=O)C(C)C)=N1

>  <Kd (nM)>
44

>  <Assay (Kd)>
Kd was assessed by competition binding assays

>  <Ki (nM)>


>  <Assay (Ki)>


>  <IC50 (nM)>


>  <Assay (IC50)>


>  <EC50 (nM)>


>  <Assay (EC50)>


>  <Article DOI>
10.1038/nbt.1990

>  <Molecular Weight>
614.216

>  <Exact Mass>
613.2601868

>  <XLogP3>
5.67

>  <Heavy Atom Count>
42

>  <Ring Count>
5

>  <Hydrogen Bond Acceptor Count>
10

>  <Hydrogen Bond Donor Count>
2

>  <Rotatable Bond Count>
9

>  <Topological Polar Surface Area>
102.93

>  <Molecular Formula>
C30H40ClN7O3S

>  <InChI>
InChI=1S/C30H40ClN7O3S/c1-21(2)42(39,40)28-8-6-5-7-26(28)33-29-24(31)20-32-30(35-29)34-25-10-9-23(19-27(25)41-4)37-13-11-22(12-14-37)38-17-15-36(3)16-18-38/h5-10,19-22H,11-18H2,1-4H3,(H2,32,33,34,35)

>  <InChI Key>
QQWUGDVOUVUTOY-UHFFFAOYSA-N

>  <BindingDB>
50242742

>  <PubChem>
16038120

>  <ChEMBL>
CHEMBL509032

$$$$
67
Actelion Java MolfileCreator 2.0

  0  0  0  0  0  0              0 V3000
M  V30 BEGIN CTAB
M  V30 COUNTS 42 46 0 0 0
M  V30 BEGIN ATOM
M  V30 1 Cl 0.0 3.75 0.0 0
M  V30 2 C 1.299 4.5 0.0 0
M  V30 3 C 2.598 3.75 0.0 0
M  V30 4 C 1.299 6.0 0.0 0
M  V30 5 N 3.8971 4.5 0.0 0
M  V30 6 N 2.598 2.25 0.0 0
M  V30 7 N 2.598 6.75 0.0 0
M  V30 8 C 3.8971 6.0 0.0 0
M  V30 9 C 3.8971 1.5 0.0 0
M  V30 10 N 5.1961 6.75 0.0 0
M  V30 11 C 3.8971 0.0 0.0 0
M  V30 12 C 5.1961 2.25 0.0 0
M  V30 13 C 5.1961 8.25 0.0 0
M  V30 14 S 2.598 -0.75 0.0 0
M  V30 15 C 5.1961 -0.75 0.0 0
M  V30 16 C 6.4951 1.5 0.0 0
M  V30 17 C 6.4951 9.0 0.0 0
M  V30 18 C 3.8971 9.0 0.0 0
M  V30 19 O 1.848 -2.049 0.0 0
M  V30 20 O 3.348 -2.049 0.0 0
M  V30 21 C 1.299 0.0 0.0 0
M  V30 22 C 6.4951 0.0 0.0 0
M  V30 23 O 7.7942 8.25 0.0 0
M  V30 24 C 6.4951 10.5 0.0 0
M  V30 25 C 3.8971 10.5 0.0 0
M  V30 26 C 1.299 1.5 0.0 0
M  V30 27 C 0.0 -0.75 0.0 0
M  V30 28 C 9.0932 9.0 0.0 0
M  V30 29 C 5.1961 11.25 0.0 0
M  V30 30 N 5.1961 12.75 0.0 0
M  V30 31 C 6.4951 13.5 0.0 0
M  V30 32 C 3.8971 13.5 0.0 0
M  V30 33 C 6.4951 15.0 0.0 0
M  V30 34 C 3.8971 15.0 0.0 0
M  V30 35 C 5.1961 15.75 0.0 0
M  V30 36 N 5.1961 17.25 0.0 0
M  V30 37 C 6.4951 18.0 0.0 0
M  V30 38 C 3.8971 18.0 0.0 0
M  V30 39 C 6.4951 19.5 0.0 0
M  V30 40 C 3.8971 19.5 0.0 0
M  V30 41 N 5.1961 20.25 0.0 0
M  V30 42 C 5.1961 21.75 0.0 0
M  V30 END ATOM
M  V30 BEGIN BOND
M  V30 1 1 1 2
M  V30 2 2 2 3
M  V30 3 1 2 4
M  V30 4 1 3 5
M  V30 5 1 3 6
M  V30 6 2 4 7
M  V30 7 2 5 8
M  V30 8 1 6 9
M  V30 9 1 8 10
M  V30 10 2 9 11
M  V30 11 1 9 12
M  V30 12 1 10 13
M  V30 13 1 11 14
M  V30 14 1 11 15
M  V30 15 2 12 16
M  V30 16 2 13 17
M  V30 17 1 13 18
M  V30 18 2 14 19
M  V30 19 2 14 20
M  V30 20 1 14 21
M  V30 21 2 15 22
M  V30 22 1 17 23
M  V30 23 1 17 24
M  V30 24 2 18 25
M  V30 25 1 21 26
M  V30 26 1 21 27
M  V30 27 1 23 28
M  V30 28 2 24 29
M  V30 29 1 29 30
M  V30 30 1 30 31
M  V30 31 1 30 32
M  V30 32 1 31 33
M  V30 33 1 32 34
M  V30 34 1 33 35
M  V30 35 1 35 36
M  V30 36 1 36 37
M  V30 37 1 36 38
M  V30 38 1 37 39
M  V30 39 1 38 40
M  V30 40 1 39 41
M  V30 41 1 41 42
M  V30 42 1 7 8
M  V30 43 1 16 22
M  V30 44 1 25 29
M  V30 45 1 34 35
M  V30 46 1 40 41
M  V30 END BOND
M  V30 END CTAB
M  END
>  <Molecule Name>
Compound 140

>  <Molecule Name 2>
Compound 140

>  <Compound ID>
67

>  <Name>
TAE684

>  <Uniprot>
Q96GD4

>  <Target>
AURKB

>  <Smiles>
COC1=CC(N2CCC(N3CCN(C)CC3)CC2)=CC=C1NC1=NC=C(Cl)C(NC2=CC=CC=C2S(=O)(=O)C(C)C)=N1

>  <Kd (nM)>
150

>  <Assay (Kd)>
Kd was assessed by competition binding assays

>  <Ki (nM)>


>  <Assay (Ki)>


>  <IC50 (nM)>


>  <Assay (IC50)>


>  <EC50 (nM)>


>  <Assay (EC50)>


>  <Article DOI>
10.1038/nbt.1990

>  <Molecular Weight>
614.216

>  <Exact Mass>
613.2601868

>  <XLogP3>
5.67

>  <Heavy Atom Count>
42

>  <Ring Count>
5

>  <Hydrogen Bond Acceptor Count>
10

>  <Hydrogen Bond Donor Count>
2

>  <Rotatable Bond Count>
9

>  <Topological Polar Surface Area>
102.93

>  <Molecular Formula>
C30H40ClN7O3S

>  <InChI>
InChI=1S/C30H40ClN7O3S/c1-21(2)42(39,40)28-8-6-5-7-26(28)33-29-24(31)20-32-30(35-29)34-25-10-9-23(19-27(25)41-4)37-13-11-22(12-14-37)38-17-15-36(3)16-18-38/h5-10,19-22H,11-18H2,1-4H3,(H2,32,33,34,35)

>  <InChI Key>
QQWUGDVOUVUTOY-UHFFFAOYSA-N

>  <BindingDB>
50242742

>  <PubChem>
16038120

>  <ChEMBL>
CHEMBL509032

$$$$
67
Actelion Java MolfileCreator 2.0

  0  0  0  0  0  0              0 V3000
M  V30 BEGIN CTAB
M  V30 COUNTS 42 46 0 0 0
M  V30 BEGIN ATOM
M  V30 1 Cl 0.0 3.75 0.0 0
M  V30 2 C 1.299 4.5 0.0 0
M  V30 3 C 2.598 3.75 0.0 0
M  V30 4 C 1.299 6.0 0.0 0
M  V30 5 N 3.8971 4.5 0.0 0
M  V30 6 N 2.598 2.25 0.0 0
M  V30 7 N 2.598 6.75 0.0 0
M  V30 8 C 3.8971 6.0 0.0 0
M  V30 9 C 3.8971 1.5 0.0 0
M  V30 10 N 5.1961 6.75 0.0 0
M  V30 11 C 3.8971 0.0 0.0 0
M  V30 12 C 5.1961 2.25 0.0 0
M  V30 13 C 5.1961 8.25 0.0 0
M  V30 14 S 2.598 -0.75 0.0 0
M  V30 15 C 5.1961 -0.75 0.0 0
M  V30 16 C 6.4951 1.5 0.0 0
M  V30 17 C 6.4951 9.0 0.0 0
M  V30 18 C 3.8971 9.0 0.0 0
M  V30 19 O 1.848 -2.049 0.0 0
M  V30 20 O 3.348 -2.049 0.0 0
M  V30 21 C 1.299 0.0 0.0 0
M  V30 22 C 6.4951 0.0 0.0 0
M  V30 23 O 7.7942 8.25 0.0 0
M  V30 24 C 6.4951 10.5 0.0 0
M  V30 25 C 3.8971 10.5 0.0 0
M  V30 26 C 1.299 1.5 0.0 0
M  V30 27 C 0.0 -0.75 0.0 0
M  V30 28 C 9.0932 9.0 0.0 0
M  V30 29 C 5.1961 11.25 0.0 0
M  V30 30 N 5.1961 12.75 0.0 0
M  V30 31 C 6.4951 13.5 0.0 0
M  V30 32 C 3.8971 13.5 0.0 0
M  V30 33 C 6.4951 15.0 0.0 0
M  V30 34 C 3.8971 15.0 0.0 0
M  V30 35 C 5.1961 15.75 0.0 0
M  V30 36 N 5.1961 17.25 0.0 0
M  V30 37 C 6.4951 18.0 0.0 0
M  V30 38 C 3.8971 18.0 0.0 0
M  V30 39 C 6.4951 19.5 0.0 0
M  V30 40 C 3.8971 19.5 0.0 0
M  V30 41 N 5.1961 20.25 0.0 0
M  V30 42 C 5.1961 21.75 0.0 0
M  V30 END ATOM
M  V30 BEGIN BOND
M  V30 1 1 1 2
M  V30 2 2 2 3
M  V30 3 1 2 4
M  V30 4 1 3 5
M  V30 5 1 3 6
M  V30 6 2 4 7
M  V30 7 2 5 8
M  V30 8 1 6 9
M  V30 9 1 8 10
M  V30 10 2 9 11
M  V30 11 1 9 12
M  V30 12 1 10 13
M  V30 13 1 11 14
M  V30 14 1 11 15
M  V30 15 2 12 16
M  V30 16 2 13 17
M  V30 17 1 13 18
M  V30 18 2 14 19
M  V30 19 2 14 20
M  V30 20 1 14 21
M  V30 21 2 15 22
M  V30 22 1 17 23
M  V30 23 1 17 24
M  V30 24 2 18 25
M  V30 25 1 21 26
M  V30 26 1 21 27
M  V30 27 1 23 28
M  V30 28 2 24 29
M  V30 29 1 29 30
M  V30 30 1 30 31
M  V30 31 1 30 32
M  V30 32 1 31 33
M  V30 33 1 32 34
M  V30 34 1 33 35
M  V30 35 1 35 36
M  V30 36 1 36 37
M  V30 37 1 36 38
M  V30 38 1 37 39
M  V30 39 1 38 40
M  V30 40 1 39 41
M  V30 41 1 41 42
M  V30 42 1 7 8
M  V30 43 1 16 22
M  V30 44 1 25 29
M  V30 45 1 34 35
M  V30 46 1 40 41
M  V30 END BOND
M  V30 END CTAB
M  END
>  <Molecule Name>
Compound 141

>  <Molecule Name 2>
Compound 141

>  <Compound ID>
67

>  <Name>
TAE684

>  <Uniprot>
O14874

>  <Target>
BCKDK

>  <Smiles>
COC1=CC(N2CCC(N3CCN(C)CC3)CC2)=CC=C1NC1=NC=C(Cl)C(NC2=CC=CC=C2S(=O)(=O)C(C)C)=N1

>  <Kd (nM)>


>  <Assay (Kd)>


>  <Ki (nM)>


>  <Assay (Ki)>


>  <IC50 (nM)>


>  <Assay (IC50)>


>  <EC50 (nM)>


>  <Assay (EC50)>


>  <Article DOI>
10.1016/j.cell.2020.10.038

>  <Molecular Weight>
614.216

>  <Exact Mass>
613.2601868

>  <XLogP3>
5.67

>  <Heavy Atom Count>
42

>  <Ring Count>
5

>  <Hydrogen Bond Acceptor Count>
10

>  <Hydrogen Bond Donor Count>
2

>  <Rotatable Bond Count>
9

>  <Topological Polar Surface Area>
102.93

>  <Molecular Formula>
C30H40ClN7O3S

>  <InChI>
InChI=1S/C30H40ClN7O3S/c1-21(2)42(39,40)28-8-6-5-7-26(28)33-29-24(31)20-32-30(35-29)34-25-10-9-23(19-27(25)41-4)37-13-11-22(12-14-37)38-17-15-36(3)16-18-38/h5-10,19-22H,11-18H2,1-4H3,(H2,32,33,34,35)

>  <InChI Key>
QQWUGDVOUVUTOY-UHFFFAOYSA-N

>  <BindingDB>
50242742

>  <PubChem>
16038120

>  <ChEMBL>
CHEMBL509032

$$$$
67
Actelion Java MolfileCreator 2.0

  0  0  0  0  0  0              0 V3000
M  V30 BEGIN CTAB
M  V30 COUNTS 42 46 0 0 0
M  V30 BEGIN ATOM
M  V30 1 Cl 0.0 3.75 0.0 0
M  V30 2 C 1.299 4.5 0.0 0
M  V30 3 C 2.598 3.75 0.0 0
M  V30 4 C 1.299 6.0 0.0 0
M  V30 5 N 3.8971 4.5 0.0 0
M  V30 6 N 2.598 2.25 0.0 0
M  V30 7 N 2.598 6.75 0.0 0
M  V30 8 C 3.8971 6.0 0.0 0
M  V30 9 C 3.8971 1.5 0.0 0
M  V30 10 N 5.1961 6.75 0.0 0
M  V30 11 C 3.8971 0.0 0.0 0
M  V30 12 C 5.1961 2.25 0.0 0
M  V30 13 C 5.1961 8.25 0.0 0
M  V30 14 S 2.598 -0.75 0.0 0
M  V30 15 C 5.1961 -0.75 0.0 0
M  V30 16 C 6.4951 1.5 0.0 0
M  V30 17 C 6.4951 9.0 0.0 0
M  V30 18 C 3.8971 9.0 0.0 0
M  V30 19 O 1.848 -2.049 0.0 0
M  V30 20 O 3.348 -2.049 0.0 0
M  V30 21 C 1.299 0.0 0.0 0
M  V30 22 C 6.4951 0.0 0.0 0
M  V30 23 O 7.7942 8.25 0.0 0
M  V30 24 C 6.4951 10.5 0.0 0
M  V30 25 C 3.8971 10.5 0.0 0
M  V30 26 C 1.299 1.5 0.0 0
M  V30 27 C 0.0 -0.75 0.0 0
M  V30 28 C 9.0932 9.0 0.0 0
M  V30 29 C 5.1961 11.25 0.0 0
M  V30 30 N 5.1961 12.75 0.0 0
M  V30 31 C 6.4951 13.5 0.0 0
M  V30 32 C 3.8971 13.5 0.0 0
M  V30 33 C 6.4951 15.0 0.0 0
M  V30 34 C 3.8971 15.0 0.0 0
M  V30 35 C 5.1961 15.75 0.0 0
M  V30 36 N 5.1961 17.25 0.0 0
M  V30 37 C 6.4951 18.0 0.0 0
M  V30 38 C 3.8971 18.0 0.0 0
M  V30 39 C 6.4951 19.5 0.0 0
M  V30 40 C 3.8971 19.5 0.0 0
M  V30 41 N 5.1961 20.25 0.0 0
M  V30 42 C 5.1961 21.75 0.0 0
M  V30 END ATOM
M  V30 BEGIN BOND
M  V30 1 1 1 2
M  V30 2 2 2 3
M  V30 3 1 2 4
M  V30 4 1 3 5
M  V30 5 1 3 6
M  V30 6 2 4 7
M  V30 7 2 5 8
M  V30 8 1 6 9
M  V30 9 1 8 10
M  V30 10 2 9 11
M  V30 11 1 9 12
M  V30 12 1 10 13
M  V30 13 1 11 14
M  V30 14 1 11 15
M  V30 15 2 12 16
M  V30 16 2 13 17
M  V30 17 1 13 18
M  V30 18 2 14 19
M  V30 19 2 14 20
M  V30 20 1 14 21
M  V30 21 2 15 22
M  V30 22 1 17 23
M  V30 23 1 17 24
M  V30 24 2 18 25
M  V30 25 1 21 26
M  V30 26 1 21 27
M  V30 27 1 23 28
M  V30 28 2 24 29
M  V30 29 1 29 30
M  V30 30 1 30 31
M  V30 31 1 30 32
M  V30 32 1 31 33
M  V30 33 1 32 34
M  V30 34 1 33 35
M  V30 35 1 35 36
M  V30 36 1 36 37
M  V30 37 1 36 38
M  V30 38 1 37 39
M  V30 39 1 38 40
M  V30 40 1 39 41
M  V30 41 1 41 42
M  V30 42 1 7 8
M  V30 43 1 16 22
M  V30 44 1 25 29
M  V30 45 1 34 35
M  V30 46 1 40 41
M  V30 END BOND
M  V30 END CTAB
M  END
>  <Molecule Name>
Compound 142

>  <Molecule Name 2>
Compound 142

>  <Compound ID>
67

>  <Name>
TAE684

>  <Uniprot>
P51451

>  <Target>
BLK

>  <Smiles>
COC1=CC(N2CCC(N3CCN(C)CC3)CC2)=CC=C1NC1=NC=C(Cl)C(NC2=CC=CC=C2S(=O)(=O)C(C)C)=N1

>  <Kd (nM)>
130

>  <Assay (Kd)>
Kd was assessed by competition binding assays

>  <Ki (nM)>


>  <Assay (Ki)>


>  <IC50 (nM)>


>  <Assay (IC50)>


>  <EC50 (nM)>


>  <Assay (EC50)>


>  <Article DOI>
10.1038/nbt.1990

>  <Molecular Weight>
614.216

>  <Exact Mass>
613.2601868

>  <XLogP3>
5.67

>  <Heavy Atom Count>
42

>  <Ring Count>
5

>  <Hydrogen Bond Acceptor Count>
10

>  <Hydrogen Bond Donor Count>
2

>  <Rotatable Bond Count>
9

>  <Topological Polar Surface Area>
102.93

>  <Molecular Formula>
C30H40ClN7O3S

>  <InChI>
InChI=1S/C30H40ClN7O3S/c1-21(2)42(39,40)28-8-6-5-7-26(28)33-29-24(31)20-32-30(35-29)34-25-10-9-23(19-27(25)41-4)37-13-11-22(12-14-37)38-17-15-36(3)16-18-38/h5-10,19-22H,11-18H2,1-4H3,(H2,32,33,34,35)

>  <InChI Key>
QQWUGDVOUVUTOY-UHFFFAOYSA-N

>  <BindingDB>
50242742

>  <PubChem>
16038120

>  <ChEMBL>
CHEMBL509032

$$$$
67
Actelion Java MolfileCreator 2.0

  0  0  0  0  0  0              0 V3000
M  V30 BEGIN CTAB
M  V30 COUNTS 42 46 0 0 0
M  V30 BEGIN ATOM
M  V30 1 Cl 0.0 3.75 0.0 0
M  V30 2 C 1.299 4.5 0.0 0
M  V30 3 C 2.598 3.75 0.0 0
M  V30 4 C 1.299 6.0 0.0 0
M  V30 5 N 3.8971 4.5 0.0 0
M  V30 6 N 2.598 2.25 0.0 0
M  V30 7 N 2.598 6.75 0.0 0
M  V30 8 C 3.8971 6.0 0.0 0
M  V30 9 C 3.8971 1.5 0.0 0
M  V30 10 N 5.1961 6.75 0.0 0
M  V30 11 C 3.8971 0.0 0.0 0
M  V30 12 C 5.1961 2.25 0.0 0
M  V30 13 C 5.1961 8.25 0.0 0
M  V30 14 S 2.598 -0.75 0.0 0
M  V30 15 C 5.1961 -0.75 0.0 0
M  V30 16 C 6.4951 1.5 0.0 0
M  V30 17 C 6.4951 9.0 0.0 0
M  V30 18 C 3.8971 9.0 0.0 0
M  V30 19 O 1.848 -2.049 0.0 0
M  V30 20 O 3.348 -2.049 0.0 0
M  V30 21 C 1.299 0.0 0.0 0
M  V30 22 C 6.4951 0.0 0.0 0
M  V30 23 O 7.7942 8.25 0.0 0
M  V30 24 C 6.4951 10.5 0.0 0
M  V30 25 C 3.8971 10.5 0.0 0
M  V30 26 C 1.299 1.5 0.0 0
M  V30 27 C 0.0 -0.75 0.0 0
M  V30 28 C 9.0932 9.0 0.0 0
M  V30 29 C 5.1961 11.25 0.0 0
M  V30 30 N 5.1961 12.75 0.0 0
M  V30 31 C 6.4951 13.5 0.0 0
M  V30 32 C 3.8971 13.5 0.0 0
M  V30 33 C 6.4951 15.0 0.0 0
M  V30 34 C 3.8971 15.0 0.0 0
M  V30 35 C 5.1961 15.75 0.0 0
M  V30 36 N 5.1961 17.25 0.0 0
M  V30 37 C 6.4951 18.0 0.0 0
M  V30 38 C 3.8971 18.0 0.0 0
M  V30 39 C 6.4951 19.5 0.0 0
M  V30 40 C 3.8971 19.5 0.0 0
M  V30 41 N 5.1961 20.25 0.0 0
M  V30 42 C 5.1961 21.75 0.0 0
M  V30 END ATOM
M  V30 BEGIN BOND
M  V30 1 1 1 2
M  V30 2 2 2 3
M  V30 3 1 2 4
M  V30 4 1 3 5
M  V30 5 1 3 6
M  V30 6 2 4 7
M  V30 7 2 5 8
M  V30 8 1 6 9
M  V30 9 1 8 10
M  V30 10 2 9 11
M  V30 11 1 9 12
M  V30 12 1 10 13
M  V30 13 1 11 14
M  V30 14 1 11 15
M  V30 15 2 12 16
M  V30 16 2 13 17
M  V30 17 1 13 18
M  V30 18 2 14 19
M  V30 19 2 14 20
M  V30 20 1 14 21
M  V30 21 2 15 22
M  V30 22 1 17 23
M  V30 23 1 17 24
M  V30 24 2 18 25
M  V30 25 1 21 26
M  V30 26 1 21 27
M  V30 27 1 23 28
M  V30 28 2 24 29
M  V30 29 1 29 30
M  V30 30 1 30 31
M  V30 31 1 30 32
M  V30 32 1 31 33
M  V30 33 1 32 34
M  V30 34 1 33 35
M  V30 35 1 35 36
M  V30 36 1 36 37
M  V30 37 1 36 38
M  V30 38 1 37 39
M  V30 39 1 38 40
M  V30 40 1 39 41
M  V30 41 1 41 42
M  V30 42 1 7 8
M  V30 43 1 16 22
M  V30 44 1 25 29
M  V30 45 1 34 35
M  V30 46 1 40 41
M  V30 END BOND
M  V30 END CTAB
M  END
>  <Molecule Name>
Compound 143

>  <Molecule Name 2>
Compound 143

>  <Compound ID>
67

>  <Name>
TAE684

>  <Uniprot>
Q9NSY1

>  <Target>
BMP2K

>  <Smiles>
COC1=CC(N2CCC(N3CCN(C)CC3)CC2)=CC=C1NC1=NC=C(Cl)C(NC2=CC=CC=C2S(=O)(=O)C(C)C)=N1

>  <Kd (nM)>
1900

>  <Assay (Kd)>
Kd was assessed by competition binding assays

>  <Ki (nM)>


>  <Assay (Ki)>


>  <IC50 (nM)>


>  <Assay (IC50)>


>  <EC50 (nM)>


>  <Assay (EC50)>


>  <Article DOI>
10.1038/nbt.1990

>  <Molecular Weight>
614.216

>  <Exact Mass>
613.2601868

>  <XLogP3>
5.67

>  <Heavy Atom Count>
42

>  <Ring Count>
5

>  <Hydrogen Bond Acceptor Count>
10

>  <Hydrogen Bond Donor Count>
2

>  <Rotatable Bond Count>
9

>  <Topological Polar Surface Area>
102.93

>  <Molecular Formula>
C30H40ClN7O3S

>  <InChI>
InChI=1S/C30H40ClN7O3S/c1-21(2)42(39,40)28-8-6-5-7-26(28)33-29-24(31)20-32-30(35-29)34-25-10-9-23(19-27(25)41-4)37-13-11-22(12-14-37)38-17-15-36(3)16-18-38/h5-10,19-22H,11-18H2,1-4H3,(H2,32,33,34,35)

>  <InChI Key>
QQWUGDVOUVUTOY-UHFFFAOYSA-N

>  <BindingDB>
50242742

>  <PubChem>
16038120

>  <ChEMBL>
CHEMBL509032

$$$$
67
Actelion Java MolfileCreator 2.0

  0  0  0  0  0  0              0 V3000
M  V30 BEGIN CTAB
M  V30 COUNTS 42 46 0 0 0
M  V30 BEGIN ATOM
M  V30 1 Cl 0.0 3.75 0.0 0
M  V30 2 C 1.299 4.5 0.0 0
M  V30 3 C 2.598 3.75 0.0 0
M  V30 4 C 1.299 6.0 0.0 0
M  V30 5 N 3.8971 4.5 0.0 0
M  V30 6 N 2.598 2.25 0.0 0
M  V30 7 N 2.598 6.75 0.0 0
M  V30 8 C 3.8971 6.0 0.0 0
M  V30 9 C 3.8971 1.5 0.0 0
M  V30 10 N 5.1961 6.75 0.0 0
M  V30 11 C 3.8971 0.0 0.0 0
M  V30 12 C 5.1961 2.25 0.0 0
M  V30 13 C 5.1961 8.25 0.0 0
M  V30 14 S 2.598 -0.75 0.0 0
M  V30 15 C 5.1961 -0.75 0.0 0
M  V30 16 C 6.4951 1.5 0.0 0
M  V30 17 C 6.4951 9.0 0.0 0
M  V30 18 C 3.8971 9.0 0.0 0
M  V30 19 O 1.848 -2.049 0.0 0
M  V30 20 O 3.348 -2.049 0.0 0
M  V30 21 C 1.299 0.0 0.0 0
M  V30 22 C 6.4951 0.0 0.0 0
M  V30 23 O 7.7942 8.25 0.0 0
M  V30 24 C 6.4951 10.5 0.0 0
M  V30 25 C 3.8971 10.5 0.0 0
M  V30 26 C 1.299 1.5 0.0 0
M  V30 27 C 0.0 -0.75 0.0 0
M  V30 28 C 9.0932 9.0 0.0 0
M  V30 29 C 5.1961 11.25 0.0 0
M  V30 30 N 5.1961 12.75 0.0 0
M  V30 31 C 6.4951 13.5 0.0 0
M  V30 32 C 3.8971 13.5 0.0 0
M  V30 33 C 6.4951 15.0 0.0 0
M  V30 34 C 3.8971 15.0 0.0 0
M  V30 35 C 5.1961 15.75 0.0 0
M  V30 36 N 5.1961 17.25 0.0 0
M  V30 37 C 6.4951 18.0 0.0 0
M  V30 38 C 3.8971 18.0 0.0 0
M  V30 39 C 6.4951 19.5 0.0 0
M  V30 40 C 3.8971 19.5 0.0 0
M  V30 41 N 5.1961 20.25 0.0 0
M  V30 42 C 5.1961 21.75 0.0 0
M  V30 END ATOM
M  V30 BEGIN BOND
M  V30 1 1 1 2
M  V30 2 2 2 3
M  V30 3 1 2 4
M  V30 4 1 3 5
M  V30 5 1 3 6
M  V30 6 2 4 7
M  V30 7 2 5 8
M  V30 8 1 6 9
M  V30 9 1 8 10
M  V30 10 2 9 11
M  V30 11 1 9 12
M  V30 12 1 10 13
M  V30 13 1 11 14
M  V30 14 1 11 15
M  V30 15 2 12 16
M  V30 16 2 13 17
M  V30 17 1 13 18
M  V30 18 2 14 19
M  V30 19 2 14 20
M  V30 20 1 14 21
M  V30 21 2 15 22
M  V30 22 1 17 23
M  V30 23 1 17 24
M  V30 24 2 18 25
M  V30 25 1 21 26
M  V30 26 1 21 27
M  V30 27 1 23 28
M  V30 28 2 24 29
M  V30 29 1 29 30
M  V30 30 1 30 31
M  V30 31 1 30 32
M  V30 32 1 31 33
M  V30 33 1 32 34
M  V30 34 1 33 35
M  V30 35 1 35 36
M  V30 36 1 36 37
M  V30 37 1 36 38
M  V30 38 1 37 39
M  V30 39 1 38 40
M  V30 40 1 39 41
M  V30 41 1 41 42
M  V30 42 1 7 8
M  V30 43 1 16 22
M  V30 44 1 25 29
M  V30 45 1 34 35
M  V30 46 1 40 41
M  V30 END BOND
M  V30 END CTAB
M  END
>  <Molecule Name>
Compound 144

>  <Molecule Name 2>
Compound 144

>  <Compound ID>
67

>  <Name>
TAE684

>  <Uniprot>
P36894

>  <Target>
BMPR1A

>  <Smiles>
COC1=CC(N2CCC(N3CCN(C)CC3)CC2)=CC=C1NC1=NC=C(Cl)C(NC2=CC=CC=C2S(=O)(=O)C(C)C)=N1

>  <Kd (nM)>
170

>  <Assay (Kd)>
Kd was assessed by competition binding assays

>  <Ki (nM)>


>  <Assay (Ki)>


>  <IC50 (nM)>


>  <Assay (IC50)>


>  <EC50 (nM)>


>  <Assay (EC50)>


>  <Article DOI>
10.1038/nbt.1990

>  <Molecular Weight>
614.216

>  <Exact Mass>
613.2601868

>  <XLogP3>
5.67

>  <Heavy Atom Count>
42

>  <Ring Count>
5

>  <Hydrogen Bond Acceptor Count>
10

>  <Hydrogen Bond Donor Count>
2

>  <Rotatable Bond Count>
9

>  <Topological Polar Surface Area>
102.93

>  <Molecular Formula>
C30H40ClN7O3S

>  <InChI>
InChI=1S/C30H40ClN7O3S/c1-21(2)42(39,40)28-8-6-5-7-26(28)33-29-24(31)20-32-30(35-29)34-25-10-9-23(19-27(25)41-4)37-13-11-22(12-14-37)38-17-15-36(3)16-18-38/h5-10,19-22H,11-18H2,1-4H3,(H2,32,33,34,35)

>  <InChI Key>
QQWUGDVOUVUTOY-UHFFFAOYSA-N

>  <BindingDB>
50242742

>  <PubChem>
16038120

>  <ChEMBL>
CHEMBL509032

$$$$
67
Actelion Java MolfileCreator 2.0

  0  0  0  0  0  0              0 V3000
M  V30 BEGIN CTAB
M  V30 COUNTS 42 46 0 0 0
M  V30 BEGIN ATOM
M  V30 1 Cl 0.0 3.75 0.0 0
M  V30 2 C 1.299 4.5 0.0 0
M  V30 3 C 2.598 3.75 0.0 0
M  V30 4 C 1.299 6.0 0.0 0
M  V30 5 N 3.8971 4.5 0.0 0
M  V30 6 N 2.598 2.25 0.0 0
M  V30 7 N 2.598 6.75 0.0 0
M  V30 8 C 3.8971 6.0 0.0 0
M  V30 9 C 3.8971 1.5 0.0 0
M  V30 10 N 5.1961 6.75 0.0 0
M  V30 11 C 3.8971 0.0 0.0 0
M  V30 12 C 5.1961 2.25 0.0 0
M  V30 13 C 5.1961 8.25 0.0 0
M  V30 14 S 2.598 -0.75 0.0 0
M  V30 15 C 5.1961 -0.75 0.0 0
M  V30 16 C 6.4951 1.5 0.0 0
M  V30 17 C 6.4951 9.0 0.0 0
M  V30 18 C 3.8971 9.0 0.0 0
M  V30 19 O 1.848 -2.049 0.0 0
M  V30 20 O 3.348 -2.049 0.0 0
M  V30 21 C 1.299 0.0 0.0 0
M  V30 22 C 6.4951 0.0 0.0 0
M  V30 23 O 7.7942 8.25 0.0 0
M  V30 24 C 6.4951 10.5 0.0 0
M  V30 25 C 3.8971 10.5 0.0 0
M  V30 26 C 1.299 1.5 0.0 0
M  V30 27 C 0.0 -0.75 0.0 0
M  V30 28 C 9.0932 9.0 0.0 0
M  V30 29 C 5.1961 11.25 0.0 0
M  V30 30 N 5.1961 12.75 0.0 0
M  V30 31 C 6.4951 13.5 0.0 0
M  V30 32 C 3.8971 13.5 0.0 0
M  V30 33 C 6.4951 15.0 0.0 0
M  V30 34 C 3.8971 15.0 0.0 0
M  V30 35 C 5.1961 15.75 0.0 0
M  V30 36 N 5.1961 17.25 0.0 0
M  V30 37 C 6.4951 18.0 0.0 0
M  V30 38 C 3.8971 18.0 0.0 0
M  V30 39 C 6.4951 19.5 0.0 0
M  V30 40 C 3.8971 19.5 0.0 0
M  V30 41 N 5.1961 20.25 0.0 0
M  V30 42 C 5.1961 21.75 0.0 0
M  V30 END ATOM
M  V30 BEGIN BOND
M  V30 1 1 1 2
M  V30 2 2 2 3
M  V30 3 1 2 4
M  V30 4 1 3 5
M  V30 5 1 3 6
M  V30 6 2 4 7
M  V30 7 2 5 8
M  V30 8 1 6 9
M  V30 9 1 8 10
M  V30 10 2 9 11
M  V30 11 1 9 12
M  V30 12 1 10 13
M  V30 13 1 11 14
M  V30 14 1 11 15
M  V30 15 2 12 16
M  V30 16 2 13 17
M  V30 17 1 13 18
M  V30 18 2 14 19
M  V30 19 2 14 20
M  V30 20 1 14 21
M  V30 21 2 15 22
M  V30 22 1 17 23
M  V30 23 1 17 24
M  V30 24 2 18 25
M  V30 25 1 21 26
M  V30 26 1 21 27
M  V30 27 1 23 28
M  V30 28 2 24 29
M  V30 29 1 29 30
M  V30 30 1 30 31
M  V30 31 1 30 32
M  V30 32 1 31 33
M  V30 33 1 32 34
M  V30 34 1 33 35
M  V30 35 1 35 36
M  V30 36 1 36 37
M  V30 37 1 36 38
M  V30 38 1 37 39
M  V30 39 1 38 40
M  V30 40 1 39 41
M  V30 41 1 41 42
M  V30 42 1 7 8
M  V30 43 1 16 22
M  V30 44 1 25 29
M  V30 45 1 34 35
M  V30 46 1 40 41
M  V30 END BOND
M  V30 END CTAB
M  END
>  <Molecule Name>
Compound 145

>  <Molecule Name 2>
Compound 145

>  <Compound ID>
67

>  <Name>
TAE684

>  <Uniprot>
O60566

>  <Target>
BUB1B

>  <Smiles>
COC1=CC(N2CCC(N3CCN(C)CC3)CC2)=CC=C1NC1=NC=C(Cl)C(NC2=CC=CC=C2S(=O)(=O)C(C)C)=N1

>  <Kd (nM)>


>  <Assay (Kd)>


>  <Ki (nM)>


>  <Assay (Ki)>


>  <IC50 (nM)>


>  <Assay (IC50)>


>  <EC50 (nM)>


>  <Assay (EC50)>


>  <Article DOI>
10.1016/j.cell.2020.10.038

>  <Molecular Weight>
614.216

>  <Exact Mass>
613.2601868

>  <XLogP3>
5.67

>  <Heavy Atom Count>
42

>  <Ring Count>
5

>  <Hydrogen Bond Acceptor Count>
10

>  <Hydrogen Bond Donor Count>
2

>  <Rotatable Bond Count>
9

>  <Topological Polar Surface Area>
102.93

>  <Molecular Formula>
C30H40ClN7O3S

>  <InChI>
InChI=1S/C30H40ClN7O3S/c1-21(2)42(39,40)28-8-6-5-7-26(28)33-29-24(31)20-32-30(35-29)34-25-10-9-23(19-27(25)41-4)37-13-11-22(12-14-37)38-17-15-36(3)16-18-38/h5-10,19-22H,11-18H2,1-4H3,(H2,32,33,34,35)

>  <InChI Key>
QQWUGDVOUVUTOY-UHFFFAOYSA-N

>  <BindingDB>
50242742

>  <PubChem>
16038120

>  <ChEMBL>
CHEMBL509032

$$$$
67
Actelion Java MolfileCreator 2.0

  0  0  0  0  0  0              0 V3000
M  V30 BEGIN CTAB
M  V30 COUNTS 42 46 0 0 0
M  V30 BEGIN ATOM
M  V30 1 Cl 0.0 3.75 0.0 0
M  V30 2 C 1.299 4.5 0.0 0
M  V30 3 C 2.598 3.75 0.0 0
M  V30 4 C 1.299 6.0 0.0 0
M  V30 5 N 3.8971 4.5 0.0 0
M  V30 6 N 2.598 2.25 0.0 0
M  V30 7 N 2.598 6.75 0.0 0
M  V30 8 C 3.8971 6.0 0.0 0
M  V30 9 C 3.8971 1.5 0.0 0
M  V30 10 N 5.1961 6.75 0.0 0
M  V30 11 C 3.8971 0.0 0.0 0
M  V30 12 C 5.1961 2.25 0.0 0
M  V30 13 C 5.1961 8.25 0.0 0
M  V30 14 S 2.598 -0.75 0.0 0
M  V30 15 C 5.1961 -0.75 0.0 0
M  V30 16 C 6.4951 1.5 0.0 0
M  V30 17 C 6.4951 9.0 0.0 0
M  V30 18 C 3.8971 9.0 0.0 0
M  V30 19 O 1.848 -2.049 0.0 0
M  V30 20 O 3.348 -2.049 0.0 0
M  V30 21 C 1.299 0.0 0.0 0
M  V30 22 C 6.4951 0.0 0.0 0
M  V30 23 O 7.7942 8.25 0.0 0
M  V30 24 C 6.4951 10.5 0.0 0
M  V30 25 C 3.8971 10.5 0.0 0
M  V30 26 C 1.299 1.5 0.0 0
M  V30 27 C 0.0 -0.75 0.0 0
M  V30 28 C 9.0932 9.0 0.0 0
M  V30 29 C 5.1961 11.25 0.0 0
M  V30 30 N 5.1961 12.75 0.0 0
M  V30 31 C 6.4951 13.5 0.0 0
M  V30 32 C 3.8971 13.5 0.0 0
M  V30 33 C 6.4951 15.0 0.0 0
M  V30 34 C 3.8971 15.0 0.0 0
M  V30 35 C 5.1961 15.75 0.0 0
M  V30 36 N 5.1961 17.25 0.0 0
M  V30 37 C 6.4951 18.0 0.0 0
M  V30 38 C 3.8971 18.0 0.0 0
M  V30 39 C 6.4951 19.5 0.0 0
M  V30 40 C 3.8971 19.5 0.0 0
M  V30 41 N 5.1961 20.25 0.0 0
M  V30 42 C 5.1961 21.75 0.0 0
M  V30 END ATOM
M  V30 BEGIN BOND
M  V30 1 1 1 2
M  V30 2 2 2 3
M  V30 3 1 2 4
M  V30 4 1 3 5
M  V30 5 1 3 6
M  V30 6 2 4 7
M  V30 7 2 5 8
M  V30 8 1 6 9
M  V30 9 1 8 10
M  V30 10 2 9 11
M  V30 11 1 9 12
M  V30 12 1 10 13
M  V30 13 1 11 14
M  V30 14 1 11 15
M  V30 15 2 12 16
M  V30 16 2 13 17
M  V30 17 1 13 18
M  V30 18 2 14 19
M  V30 19 2 14 20
M  V30 20 1 14 21
M  V30 21 2 15 22
M  V30 22 1 17 23
M  V30 23 1 17 24
M  V30 24 2 18 25
M  V30 25 1 21 26
M  V30 26 1 21 27
M  V30 27 1 23 28
M  V30 28 2 24 29
M  V30 29 1 29 30
M  V30 30 1 30 31
M  V30 31 1 30 32
M  V30 32 1 31 33
M  V30 33 1 32 34
M  V30 34 1 33 35
M  V30 35 1 35 36
M  V30 36 1 36 37
M  V30 37 1 36 38
M  V30 38 1 37 39
M  V30 39 1 38 40
M  V30 40 1 39 41
M  V30 41 1 41 42
M  V30 42 1 7 8
M  V30 43 1 16 22
M  V30 44 1 25 29
M  V30 45 1 34 35
M  V30 46 1 40 41
M  V30 END BOND
M  V30 END CTAB
M  END
>  <Molecule Name>
Compound 146

>  <Molecule Name 2>
Compound 146

>  <Compound ID>
67

>  <Name>
TAE684

>  <Uniprot>
O43683

>  <Target>
BUB1

>  <Smiles>
COC1=CC(N2CCC(N3CCN(C)CC3)CC2)=CC=C1NC1=NC=C(Cl)C(NC2=CC=CC=C2S(=O)(=O)C(C)C)=N1

>  <Kd (nM)>


>  <Assay (Kd)>


>  <Ki (nM)>


>  <Assay (Ki)>


>  <IC50 (nM)>


>  <Assay (IC50)>


>  <EC50 (nM)>


>  <Assay (EC50)>


>  <Article DOI>
10.1016/j.cell.2020.10.038

>  <Molecular Weight>
614.216

>  <Exact Mass>
613.2601868

>  <XLogP3>
5.67

>  <Heavy Atom Count>
42

>  <Ring Count>
5

>  <Hydrogen Bond Acceptor Count>
10

>  <Hydrogen Bond Donor Count>
2

>  <Rotatable Bond Count>
9

>  <Topological Polar Surface Area>
102.93

>  <Molecular Formula>
C30H40ClN7O3S

>  <InChI>
InChI=1S/C30H40ClN7O3S/c1-21(2)42(39,40)28-8-6-5-7-26(28)33-29-24(31)20-32-30(35-29)34-25-10-9-23(19-27(25)41-4)37-13-11-22(12-14-37)38-17-15-36(3)16-18-38/h5-10,19-22H,11-18H2,1-4H3,(H2,32,33,34,35)

>  <InChI Key>
QQWUGDVOUVUTOY-UHFFFAOYSA-N

>  <BindingDB>
50242742

>  <PubChem>
16038120

>  <ChEMBL>
CHEMBL509032

$$$$
67
Actelion Java MolfileCreator 2.0

  0  0  0  0  0  0              0 V3000
M  V30 BEGIN CTAB
M  V30 COUNTS 42 46 0 0 0
M  V30 BEGIN ATOM
M  V30 1 Cl 0.0 3.75 0.0 0
M  V30 2 C 1.299 4.5 0.0 0
M  V30 3 C 2.598 3.75 0.0 0
M  V30 4 C 1.299 6.0 0.0 0
M  V30 5 N 3.8971 4.5 0.0 0
M  V30 6 N 2.598 2.25 0.0 0
M  V30 7 N 2.598 6.75 0.0 0
M  V30 8 C 3.8971 6.0 0.0 0
M  V30 9 C 3.8971 1.5 0.0 0
M  V30 10 N 5.1961 6.75 0.0 0
M  V30 11 C 3.8971 0.0 0.0 0
M  V30 12 C 5.1961 2.25 0.0 0
M  V30 13 C 5.1961 8.25 0.0 0
M  V30 14 S 2.598 -0.75 0.0 0
M  V30 15 C 5.1961 -0.75 0.0 0
M  V30 16 C 6.4951 1.5 0.0 0
M  V30 17 C 6.4951 9.0 0.0 0
M  V30 18 C 3.8971 9.0 0.0 0
M  V30 19 O 1.848 -2.049 0.0 0
M  V30 20 O 3.348 -2.049 0.0 0
M  V30 21 C 1.299 0.0 0.0 0
M  V30 22 C 6.4951 0.0 0.0 0
M  V30 23 O 7.7942 8.25 0.0 0
M  V30 24 C 6.4951 10.5 0.0 0
M  V30 25 C 3.8971 10.5 0.0 0
M  V30 26 C 1.299 1.5 0.0 0
M  V30 27 C 0.0 -0.75 0.0 0
M  V30 28 C 9.0932 9.0 0.0 0
M  V30 29 C 5.1961 11.25 0.0 0
M  V30 30 N 5.1961 12.75 0.0 0
M  V30 31 C 6.4951 13.5 0.0 0
M  V30 32 C 3.8971 13.5 0.0 0
M  V30 33 C 6.4951 15.0 0.0 0
M  V30 34 C 3.8971 15.0 0.0 0
M  V30 35 C 5.1961 15.75 0.0 0
M  V30 36 N 5.1961 17.25 0.0 0
M  V30 37 C 6.4951 18.0 0.0 0
M  V30 38 C 3.8971 18.0 0.0 0
M  V30 39 C 6.4951 19.5 0.0 0
M  V30 40 C 3.8971 19.5 0.0 0
M  V30 41 N 5.1961 20.25 0.0 0
M  V30 42 C 5.1961 21.75 0.0 0
M  V30 END ATOM
M  V30 BEGIN BOND
M  V30 1 1 1 2
M  V30 2 2 2 3
M  V30 3 1 2 4
M  V30 4 1 3 5
M  V30 5 1 3 6
M  V30 6 2 4 7
M  V30 7 2 5 8
M  V30 8 1 6 9
M  V30 9 1 8 10
M  V30 10 2 9 11
M  V30 11 1 9 12
M  V30 12 1 10 13
M  V30 13 1 11 14
M  V30 14 1 11 15
M  V30 15 2 12 16
M  V30 16 2 13 17
M  V30 17 1 13 18
M  V30 18 2 14 19
M  V30 19 2 14 20
M  V30 20 1 14 21
M  V30 21 2 15 22
M  V30 22 1 17 23
M  V30 23 1 17 24
M  V30 24 2 18 25
M  V30 25 1 21 26
M  V30 26 1 21 27
M  V30 27 1 23 28
M  V30 28 2 24 29
M  V30 29 1 29 30
M  V30 30 1 30 31
M  V30 31 1 30 32
M  V30 32 1 31 33
M  V30 33 1 32 34
M  V30 34 1 33 35
M  V30 35 1 35 36
M  V30 36 1 36 37
M  V30 37 1 36 38
M  V30 38 1 37 39
M  V30 39 1 38 40
M  V30 40 1 39 41
M  V30 41 1 41 42
M  V30 42 1 7 8
M  V30 43 1 16 22
M  V30 44 1 25 29
M  V30 45 1 34 35
M  V30 46 1 40 41
M  V30 END BOND
M  V30 END CTAB
M  END
>  <Molecule Name>
Compound 147

>  <Molecule Name 2>
Compound 147

>  <Compound ID>
67

>  <Name>
TAE684

>  <Uniprot>
O00311

>  <Target>
CDC7

>  <Smiles>
COC1=CC(N2CCC(N3CCN(C)CC3)CC2)=CC=C1NC1=NC=C(Cl)C(NC2=CC=CC=C2S(=O)(=O)C(C)C)=N1

>  <Kd (nM)>


>  <Assay (Kd)>


>  <Ki (nM)>
>1000

>  <Assay (Ki)>
Ki of CDC7

>  <IC50 (nM)>


>  <Assay (IC50)>


>  <EC50 (nM)>


>  <Assay (EC50)>


>  <Article DOI>


>  <Molecular Weight>
614.216

>  <Exact Mass>
613.2601868

>  <XLogP3>
5.67

>  <Heavy Atom Count>
42

>  <Ring Count>
5

>  <Hydrogen Bond Acceptor Count>
10

>  <Hydrogen Bond Donor Count>
2

>  <Rotatable Bond Count>
9

>  <Topological Polar Surface Area>
102.93

>  <Molecular Formula>
C30H40ClN7O3S

>  <InChI>
InChI=1S/C30H40ClN7O3S/c1-21(2)42(39,40)28-8-6-5-7-26(28)33-29-24(31)20-32-30(35-29)34-25-10-9-23(19-27(25)41-4)37-13-11-22(12-14-37)38-17-15-36(3)16-18-38/h5-10,19-22H,11-18H2,1-4H3,(H2,32,33,34,35)

>  <InChI Key>
QQWUGDVOUVUTOY-UHFFFAOYSA-N

>  <BindingDB>
50242742

>  <PubChem>
16038120

>  <ChEMBL>
CHEMBL509032

$$$$
67
Actelion Java MolfileCreator 2.0

  0  0  0  0  0  0              0 V3000
M  V30 BEGIN CTAB
M  V30 COUNTS 42 46 0 0 0
M  V30 BEGIN ATOM
M  V30 1 Cl 0.0 3.75 0.0 0
M  V30 2 C 1.299 4.5 0.0 0
M  V30 3 C 2.598 3.75 0.0 0
M  V30 4 C 1.299 6.0 0.0 0
M  V30 5 N 3.8971 4.5 0.0 0
M  V30 6 N 2.598 2.25 0.0 0
M  V30 7 N 2.598 6.75 0.0 0
M  V30 8 C 3.8971 6.0 0.0 0
M  V30 9 C 3.8971 1.5 0.0 0
M  V30 10 N 5.1961 6.75 0.0 0
M  V30 11 C 3.8971 0.0 0.0 0
M  V30 12 C 5.1961 2.25 0.0 0
M  V30 13 C 5.1961 8.25 0.0 0
M  V30 14 S 2.598 -0.75 0.0 0
M  V30 15 C 5.1961 -0.75 0.0 0
M  V30 16 C 6.4951 1.5 0.0 0
M  V30 17 C 6.4951 9.0 0.0 0
M  V30 18 C 3.8971 9.0 0.0 0
M  V30 19 O 1.848 -2.049 0.0 0
M  V30 20 O 3.348 -2.049 0.0 0
M  V30 21 C 1.299 0.0 0.0 0
M  V30 22 C 6.4951 0.0 0.0 0
M  V30 23 O 7.7942 8.25 0.0 0
M  V30 24 C 6.4951 10.5 0.0 0
M  V30 25 C 3.8971 10.5 0.0 0
M  V30 26 C 1.299 1.5 0.0 0
M  V30 27 C 0.0 -0.75 0.0 0
M  V30 28 C 9.0932 9.0 0.0 0
M  V30 29 C 5.1961 11.25 0.0 0
M  V30 30 N 5.1961 12.75 0.0 0
M  V30 31 C 6.4951 13.5 0.0 0
M  V30 32 C 3.8971 13.5 0.0 0
M  V30 33 C 6.4951 15.0 0.0 0
M  V30 34 C 3.8971 15.0 0.0 0
M  V30 35 C 5.1961 15.75 0.0 0
M  V30 36 N 5.1961 17.25 0.0 0
M  V30 37 C 6.4951 18.0 0.0 0
M  V30 38 C 3.8971 18.0 0.0 0
M  V30 39 C 6.4951 19.5 0.0 0
M  V30 40 C 3.8971 19.5 0.0 0
M  V30 41 N 5.1961 20.25 0.0 0
M  V30 42 C 5.1961 21.75 0.0 0
M  V30 END ATOM
M  V30 BEGIN BOND
M  V30 1 1 1 2
M  V30 2 2 2 3
M  V30 3 1 2 4
M  V30 4 1 3 5
M  V30 5 1 3 6
M  V30 6 2 4 7
M  V30 7 2 5 8
M  V30 8 1 6 9
M  V30 9 1 8 10
M  V30 10 2 9 11
M  V30 11 1 9 12
M  V30 12 1 10 13
M  V30 13 1 11 14
M  V30 14 1 11 15
M  V30 15 2 12 16
M  V30 16 2 13 17
M  V30 17 1 13 18
M  V30 18 2 14 19
M  V30 19 2 14 20
M  V30 20 1 14 21
M  V30 21 2 15 22
M  V30 22 1 17 23
M  V30 23 1 17 24
M  V30 24 2 18 25
M  V30 25 1 21 26
M  V30 26 1 21 27
M  V30 27 1 23 28
M  V30 28 2 24 29
M  V30 29 1 29 30
M  V30 30 1 30 31
M  V30 31 1 30 32
M  V30 32 1 31 33
M  V30 33 1 32 34
M  V30 34 1 33 35
M  V30 35 1 35 36
M  V30 36 1 36 37
M  V30 37 1 36 38
M  V30 38 1 37 39
M  V30 39 1 38 40
M  V30 40 1 39 41
M  V30 41 1 41 42
M  V30 42 1 7 8
M  V30 43 1 16 22
M  V30 44 1 25 29
M  V30 45 1 34 35
M  V30 46 1 40 41
M  V30 END BOND
M  V30 END CTAB
M  END
>  <Molecule Name>
Compound 148

>  <Molecule Name 2>
Compound 148

>  <Compound ID>
67

>  <Name>
TAE684

>  <Uniprot>
Q15131

>  <Target>
CDK10

>  <Smiles>
COC1=CC(N2CCC(N3CCN(C)CC3)CC2)=CC=C1NC1=NC=C(Cl)C(NC2=CC=CC=C2S(=O)(=O)C(C)C)=N1

>  <Kd (nM)>


>  <Assay (Kd)>


>  <Ki (nM)>


>  <Assay (Ki)>


>  <IC50 (nM)>


>  <Assay (IC50)>


>  <EC50 (nM)>


>  <Assay (EC50)>


>  <Article DOI>
10.1016/j.cell.2020.10.038

>  <Molecular Weight>
614.216

>  <Exact Mass>
613.2601868

>  <XLogP3>
5.67

>  <Heavy Atom Count>
42

>  <Ring Count>
5

>  <Hydrogen Bond Acceptor Count>
10

>  <Hydrogen Bond Donor Count>
2

>  <Rotatable Bond Count>
9

>  <Topological Polar Surface Area>
102.93

>  <Molecular Formula>
C30H40ClN7O3S

>  <InChI>
InChI=1S/C30H40ClN7O3S/c1-21(2)42(39,40)28-8-6-5-7-26(28)33-29-24(31)20-32-30(35-29)34-25-10-9-23(19-27(25)41-4)37-13-11-22(12-14-37)38-17-15-36(3)16-18-38/h5-10,19-22H,11-18H2,1-4H3,(H2,32,33,34,35)

>  <InChI Key>
QQWUGDVOUVUTOY-UHFFFAOYSA-N

>  <BindingDB>
50242742

>  <PubChem>
16038120

>  <ChEMBL>
CHEMBL509032

$$$$
67
Actelion Java MolfileCreator 2.0

  0  0  0  0  0  0              0 V3000
M  V30 BEGIN CTAB
M  V30 COUNTS 42 46 0 0 0
M  V30 BEGIN ATOM
M  V30 1 Cl 0.0 3.75 0.0 0
M  V30 2 C 1.299 4.5 0.0 0
M  V30 3 C 2.598 3.75 0.0 0
M  V30 4 C 1.299 6.0 0.0 0
M  V30 5 N 3.8971 4.5 0.0 0
M  V30 6 N 2.598 2.25 0.0 0
M  V30 7 N 2.598 6.75 0.0 0
M  V30 8 C 3.8971 6.0 0.0 0
M  V30 9 C 3.8971 1.5 0.0 0
M  V30 10 N 5.1961 6.75 0.0 0
M  V30 11 C 3.8971 0.0 0.0 0
M  V30 12 C 5.1961 2.25 0.0 0
M  V30 13 C 5.1961 8.25 0.0 0
M  V30 14 S 2.598 -0.75 0.0 0
M  V30 15 C 5.1961 -0.75 0.0 0
M  V30 16 C 6.4951 1.5 0.0 0
M  V30 17 C 6.4951 9.0 0.0 0
M  V30 18 C 3.8971 9.0 0.0 0
M  V30 19 O 1.848 -2.049 0.0 0
M  V30 20 O 3.348 -2.049 0.0 0
M  V30 21 C 1.299 0.0 0.0 0
M  V30 22 C 6.4951 0.0 0.0 0
M  V30 23 O 7.7942 8.25 0.0 0
M  V30 24 C 6.4951 10.5 0.0 0
M  V30 25 C 3.8971 10.5 0.0 0
M  V30 26 C 1.299 1.5 0.0 0
M  V30 27 C 0.0 -0.75 0.0 0
M  V30 28 C 9.0932 9.0 0.0 0
M  V30 29 C 5.1961 11.25 0.0 0
M  V30 30 N 5.1961 12.75 0.0 0
M  V30 31 C 6.4951 13.5 0.0 0
M  V30 32 C 3.8971 13.5 0.0 0
M  V30 33 C 6.4951 15.0 0.0 0
M  V30 34 C 3.8971 15.0 0.0 0
M  V30 35 C 5.1961 15.75 0.0 0
M  V30 36 N 5.1961 17.25 0.0 0
M  V30 37 C 6.4951 18.0 0.0 0
M  V30 38 C 3.8971 18.0 0.0 0
M  V30 39 C 6.4951 19.5 0.0 0
M  V30 40 C 3.8971 19.5 0.0 0
M  V30 41 N 5.1961 20.25 0.0 0
M  V30 42 C 5.1961 21.75 0.0 0
M  V30 END ATOM
M  V30 BEGIN BOND
M  V30 1 1 1 2
M  V30 2 2 2 3
M  V30 3 1 2 4
M  V30 4 1 3 5
M  V30 5 1 3 6
M  V30 6 2 4 7
M  V30 7 2 5 8
M  V30 8 1 6 9
M  V30 9 1 8 10
M  V30 10 2 9 11
M  V30 11 1 9 12
M  V30 12 1 10 13
M  V30 13 1 11 14
M  V30 14 1 11 15
M  V30 15 2 12 16
M  V30 16 2 13 17
M  V30 17 1 13 18
M  V30 18 2 14 19
M  V30 19 2 14 20
M  V30 20 1 14 21
M  V30 21 2 15 22
M  V30 22 1 17 23
M  V30 23 1 17 24
M  V30 24 2 18 25
M  V30 25 1 21 26
M  V30 26 1 21 27
M  V30 27 1 23 28
M  V30 28 2 24 29
M  V30 29 1 29 30
M  V30 30 1 30 31
M  V30 31 1 30 32
M  V30 32 1 31 33
M  V30 33 1 32 34
M  V30 34 1 33 35
M  V30 35 1 35 36
M  V30 36 1 36 37
M  V30 37 1 36 38
M  V30 38 1 37 39
M  V30 39 1 38 40
M  V30 40 1 39 41
M  V30 41 1 41 42
M  V30 42 1 7 8
M  V30 43 1 16 22
M  V30 44 1 25 29
M  V30 45 1 34 35
M  V30 46 1 40 41
M  V30 END BOND
M  V30 END CTAB
M  END
>  <Molecule Name>
Compound 149

>  <Molecule Name 2>
Compound 149

>  <Compound ID>
67

>  <Name>
TAE684

>  <Uniprot>
Q9NYV4

>  <Target>
CDK12

>  <Smiles>
COC1=CC(N2CCC(N3CCN(C)CC3)CC2)=CC=C1NC1=NC=C(Cl)C(NC2=CC=CC=C2S(=O)(=O)C(C)C)=N1

>  <Kd (nM)>


>  <Assay (Kd)>


>  <Ki (nM)>


>  <Assay (Ki)>


>  <IC50 (nM)>


>  <Assay (IC50)>


>  <EC50 (nM)>


>  <Assay (EC50)>


>  <Article DOI>
10.1016/j.cell.2020.10.038

>  <Molecular Weight>
614.216

>  <Exact Mass>
613.2601868

>  <XLogP3>
5.67

>  <Heavy Atom Count>
42

>  <Ring Count>
5

>  <Hydrogen Bond Acceptor Count>
10

>  <Hydrogen Bond Donor Count>
2

>  <Rotatable Bond Count>
9

>  <Topological Polar Surface Area>
102.93

>  <Molecular Formula>
C30H40ClN7O3S

>  <InChI>
InChI=1S/C30H40ClN7O3S/c1-21(2)42(39,40)28-8-6-5-7-26(28)33-29-24(31)20-32-30(35-29)34-25-10-9-23(19-27(25)41-4)37-13-11-22(12-14-37)38-17-15-36(3)16-18-38/h5-10,19-22H,11-18H2,1-4H3,(H2,32,33,34,35)

>  <InChI Key>
QQWUGDVOUVUTOY-UHFFFAOYSA-N

>  <BindingDB>
50242742

>  <PubChem>
16038120

>  <ChEMBL>
CHEMBL509032

$$$$
67
Actelion Java MolfileCreator 2.0

  0  0  0  0  0  0              0 V3000
M  V30 BEGIN CTAB
M  V30 COUNTS 42 46 0 0 0
M  V30 BEGIN ATOM
M  V30 1 Cl 0.0 3.75 0.0 0
M  V30 2 C 1.299 4.5 0.0 0
M  V30 3 C 2.598 3.75 0.0 0
M  V30 4 C 1.299 6.0 0.0 0
M  V30 5 N 3.8971 4.5 0.0 0
M  V30 6 N 2.598 2.25 0.0 0
M  V30 7 N 2.598 6.75 0.0 0
M  V30 8 C 3.8971 6.0 0.0 0
M  V30 9 C 3.8971 1.5 0.0 0
M  V30 10 N 5.1961 6.75 0.0 0
M  V30 11 C 3.8971 0.0 0.0 0
M  V30 12 C 5.1961 2.25 0.0 0
M  V30 13 C 5.1961 8.25 0.0 0
M  V30 14 S 2.598 -0.75 0.0 0
M  V30 15 C 5.1961 -0.75 0.0 0
M  V30 16 C 6.4951 1.5 0.0 0
M  V30 17 C 6.4951 9.0 0.0 0
M  V30 18 C 3.8971 9.0 0.0 0
M  V30 19 O 1.848 -2.049 0.0 0
M  V30 20 O 3.348 -2.049 0.0 0
M  V30 21 C 1.299 0.0 0.0 0
M  V30 22 C 6.4951 0.0 0.0 0
M  V30 23 O 7.7942 8.25 0.0 0
M  V30 24 C 6.4951 10.5 0.0 0
M  V30 25 C 3.8971 10.5 0.0 0
M  V30 26 C 1.299 1.5 0.0 0
M  V30 27 C 0.0 -0.75 0.0 0
M  V30 28 C 9.0932 9.0 0.0 0
M  V30 29 C 5.1961 11.25 0.0 0
M  V30 30 N 5.1961 12.75 0.0 0
M  V30 31 C 6.4951 13.5 0.0 0
M  V30 32 C 3.8971 13.5 0.0 0
M  V30 33 C 6.4951 15.0 0.0 0
M  V30 34 C 3.8971 15.0 0.0 0
M  V30 35 C 5.1961 15.75 0.0 0
M  V30 36 N 5.1961 17.25 0.0 0
M  V30 37 C 6.4951 18.0 0.0 0
M  V30 38 C 3.8971 18.0 0.0 0
M  V30 39 C 6.4951 19.5 0.0 0
M  V30 40 C 3.8971 19.5 0.0 0
M  V30 41 N 5.1961 20.25 0.0 0
M  V30 42 C 5.1961 21.75 0.0 0
M  V30 END ATOM
M  V30 BEGIN BOND
M  V30 1 1 1 2
M  V30 2 2 2 3
M  V30 3 1 2 4
M  V30 4 1 3 5
M  V30 5 1 3 6
M  V30 6 2 4 7
M  V30 7 2 5 8
M  V30 8 1 6 9
M  V30 9 1 8 10
M  V30 10 2 9 11
M  V30 11 1 9 12
M  V30 12 1 10 13
M  V30 13 1 11 14
M  V30 14 1 11 15
M  V30 15 2 12 16
M  V30 16 2 13 17
M  V30 17 1 13 18
M  V30 18 2 14 19
M  V30 19 2 14 20
M  V30 20 1 14 21
M  V30 21 2 15 22
M  V30 22 1 17 23
M  V30 23 1 17 24
M  V30 24 2 18 25
M  V30 25 1 21 26
M  V30 26 1 21 27
M  V30 27 1 23 28
M  V30 28 2 24 29
M  V30 29 1 29 30
M  V30 30 1 30 31
M  V30 31 1 30 32
M  V30 32 1 31 33
M  V30 33 1 32 34
M  V30 34 1 33 35
M  V30 35 1 35 36
M  V30 36 1 36 37
M  V30 37 1 36 38
M  V30 38 1 37 39
M  V30 39 1 38 40
M  V30 40 1 39 41
M  V30 41 1 41 42
M  V30 42 1 7 8
M  V30 43 1 16 22
M  V30 44 1 25 29
M  V30 45 1 34 35
M  V30 46 1 40 41
M  V30 END BOND
M  V30 END CTAB
M  END
>  <Molecule Name>
Compound 150

>  <Molecule Name 2>
Compound 150

>  <Compound ID>
67

>  <Name>
TAE684

>  <Uniprot>
Q14004

>  <Target>
CDK13

>  <Smiles>
COC1=CC(N2CCC(N3CCN(C)CC3)CC2)=CC=C1NC1=NC=C(Cl)C(NC2=CC=CC=C2S(=O)(=O)C(C)C)=N1

>  <Kd (nM)>
>10000

>  <Assay (Kd)>
Kd was assessed by competition binding assays

>  <Ki (nM)>


>  <Assay (Ki)>


>  <IC50 (nM)>


>  <Assay (IC50)>


>  <EC50 (nM)>


>  <Assay (EC50)>


>  <Article DOI>
10.1038/nbt.1990

>  <Molecular Weight>
614.216

>  <Exact Mass>
613.2601868

>  <XLogP3>
5.67

>  <Heavy Atom Count>
42

>  <Ring Count>
5

>  <Hydrogen Bond Acceptor Count>
10

>  <Hydrogen Bond Donor Count>
2

>  <Rotatable Bond Count>
9

>  <Topological Polar Surface Area>
102.93

>  <Molecular Formula>
C30H40ClN7O3S

>  <InChI>
InChI=1S/C30H40ClN7O3S/c1-21(2)42(39,40)28-8-6-5-7-26(28)33-29-24(31)20-32-30(35-29)34-25-10-9-23(19-27(25)41-4)37-13-11-22(12-14-37)38-17-15-36(3)16-18-38/h5-10,19-22H,11-18H2,1-4H3,(H2,32,33,34,35)

>  <InChI Key>
QQWUGDVOUVUTOY-UHFFFAOYSA-N

>  <BindingDB>
50242742

>  <PubChem>
16038120

>  <ChEMBL>
CHEMBL509032

$$$$
67
Actelion Java MolfileCreator 2.0

  0  0  0  0  0  0              0 V3000
M  V30 BEGIN CTAB
M  V30 COUNTS 42 46 0 0 0
M  V30 BEGIN ATOM
M  V30 1 Cl 0.0 3.75 0.0 0
M  V30 2 C 1.299 4.5 0.0 0
M  V30 3 C 2.598 3.75 0.0 0
M  V30 4 C 1.299 6.0 0.0 0
M  V30 5 N 3.8971 4.5 0.0 0
M  V30 6 N 2.598 2.25 0.0 0
M  V30 7 N 2.598 6.75 0.0 0
M  V30 8 C 3.8971 6.0 0.0 0
M  V30 9 C 3.8971 1.5 0.0 0
M  V30 10 N 5.1961 6.75 0.0 0
M  V30 11 C 3.8971 0.0 0.0 0
M  V30 12 C 5.1961 2.25 0.0 0
M  V30 13 C 5.1961 8.25 0.0 0
M  V30 14 S 2.598 -0.75 0.0 0
M  V30 15 C 5.1961 -0.75 0.0 0
M  V30 16 C 6.4951 1.5 0.0 0
M  V30 17 C 6.4951 9.0 0.0 0
M  V30 18 C 3.8971 9.0 0.0 0
M  V30 19 O 1.848 -2.049 0.0 0
M  V30 20 O 3.348 -2.049 0.0 0
M  V30 21 C 1.299 0.0 0.0 0
M  V30 22 C 6.4951 0.0 0.0 0
M  V30 23 O 7.7942 8.25 0.0 0
M  V30 24 C 6.4951 10.5 0.0 0
M  V30 25 C 3.8971 10.5 0.0 0
M  V30 26 C 1.299 1.5 0.0 0
M  V30 27 C 0.0 -0.75 0.0 0
M  V30 28 C 9.0932 9.0 0.0 0
M  V30 29 C 5.1961 11.25 0.0 0
M  V30 30 N 5.1961 12.75 0.0 0
M  V30 31 C 6.4951 13.5 0.0 0
M  V30 32 C 3.8971 13.5 0.0 0
M  V30 33 C 6.4951 15.0 0.0 0
M  V30 34 C 3.8971 15.0 0.0 0
M  V30 35 C 5.1961 15.75 0.0 0
M  V30 36 N 5.1961 17.25 0.0 0
M  V30 37 C 6.4951 18.0 0.0 0
M  V30 38 C 3.8971 18.0 0.0 0
M  V30 39 C 6.4951 19.5 0.0 0
M  V30 40 C 3.8971 19.5 0.0 0
M  V30 41 N 5.1961 20.25 0.0 0
M  V30 42 C 5.1961 21.75 0.0 0
M  V30 END ATOM
M  V30 BEGIN BOND
M  V30 1 1 1 2
M  V30 2 2 2 3
M  V30 3 1 2 4
M  V30 4 1 3 5
M  V30 5 1 3 6
M  V30 6 2 4 7
M  V30 7 2 5 8
M  V30 8 1 6 9
M  V30 9 1 8 10
M  V30 10 2 9 11
M  V30 11 1 9 12
M  V30 12 1 10 13
M  V30 13 1 11 14
M  V30 14 1 11 15
M  V30 15 2 12 16
M  V30 16 2 13 17
M  V30 17 1 13 18
M  V30 18 2 14 19
M  V30 19 2 14 20
M  V30 20 1 14 21
M  V30 21 2 15 22
M  V30 22 1 17 23
M  V30 23 1 17 24
M  V30 24 2 18 25
M  V30 25 1 21 26
M  V30 26 1 21 27
M  V30 27 1 23 28
M  V30 28 2 24 29
M  V30 29 1 29 30
M  V30 30 1 30 31
M  V30 31 1 30 32
M  V30 32 1 31 33
M  V30 33 1 32 34
M  V30 34 1 33 35
M  V30 35 1 35 36
M  V30 36 1 36 37
M  V30 37 1 36 38
M  V30 38 1 37 39
M  V30 39 1 38 40
M  V30 40 1 39 41
M  V30 41 1 41 42
M  V30 42 1 7 8
M  V30 43 1 16 22
M  V30 44 1 25 29
M  V30 45 1 34 35
M  V30 46 1 40 41
M  V30 END BOND
M  V30 END CTAB
M  END
>  <Molecule Name>
Compound 151

>  <Molecule Name 2>
Compound 151

>  <Compound ID>
67

>  <Name>
TAE684

>  <Uniprot>
O94921

>  <Target>
CDK14

>  <Smiles>
COC1=CC(N2CCC(N3CCN(C)CC3)CC2)=CC=C1NC1=NC=C(Cl)C(NC2=CC=CC=C2S(=O)(=O)C(C)C)=N1

>  <Kd (nM)>
>10000

>  <Assay (Kd)>
Kd was assessed by competition binding assays

>  <Ki (nM)>


>  <Assay (Ki)>


>  <IC50 (nM)>


>  <Assay (IC50)>


>  <EC50 (nM)>


>  <Assay (EC50)>


>  <Article DOI>
10.1038/nbt.1990

>  <Molecular Weight>
614.216

>  <Exact Mass>
613.2601868

>  <XLogP3>
5.67

>  <Heavy Atom Count>
42

>  <Ring Count>
5

>  <Hydrogen Bond Acceptor Count>
10

>  <Hydrogen Bond Donor Count>
2

>  <Rotatable Bond Count>
9

>  <Topological Polar Surface Area>
102.93

>  <Molecular Formula>
C30H40ClN7O3S

>  <InChI>
InChI=1S/C30H40ClN7O3S/c1-21(2)42(39,40)28-8-6-5-7-26(28)33-29-24(31)20-32-30(35-29)34-25-10-9-23(19-27(25)41-4)37-13-11-22(12-14-37)38-17-15-36(3)16-18-38/h5-10,19-22H,11-18H2,1-4H3,(H2,32,33,34,35)

>  <InChI Key>
QQWUGDVOUVUTOY-UHFFFAOYSA-N

>  <BindingDB>
50242742

>  <PubChem>
16038120

>  <ChEMBL>
CHEMBL509032

$$$$
67
Actelion Java MolfileCreator 2.0

  0  0  0  0  0  0              0 V3000
M  V30 BEGIN CTAB
M  V30 COUNTS 42 46 0 0 0
M  V30 BEGIN ATOM
M  V30 1 Cl 0.0 3.75 0.0 0
M  V30 2 C 1.299 4.5 0.0 0
M  V30 3 C 2.598 3.75 0.0 0
M  V30 4 C 1.299 6.0 0.0 0
M  V30 5 N 3.8971 4.5 0.0 0
M  V30 6 N 2.598 2.25 0.0 0
M  V30 7 N 2.598 6.75 0.0 0
M  V30 8 C 3.8971 6.0 0.0 0
M  V30 9 C 3.8971 1.5 0.0 0
M  V30 10 N 5.1961 6.75 0.0 0
M  V30 11 C 3.8971 0.0 0.0 0
M  V30 12 C 5.1961 2.25 0.0 0
M  V30 13 C 5.1961 8.25 0.0 0
M  V30 14 S 2.598 -0.75 0.0 0
M  V30 15 C 5.1961 -0.75 0.0 0
M  V30 16 C 6.4951 1.5 0.0 0
M  V30 17 C 6.4951 9.0 0.0 0
M  V30 18 C 3.8971 9.0 0.0 0
M  V30 19 O 1.848 -2.049 0.0 0
M  V30 20 O 3.348 -2.049 0.0 0
M  V30 21 C 1.299 0.0 0.0 0
M  V30 22 C 6.4951 0.0 0.0 0
M  V30 23 O 7.7942 8.25 0.0 0
M  V30 24 C 6.4951 10.5 0.0 0
M  V30 25 C 3.8971 10.5 0.0 0
M  V30 26 C 1.299 1.5 0.0 0
M  V30 27 C 0.0 -0.75 0.0 0
M  V30 28 C 9.0932 9.0 0.0 0
M  V30 29 C 5.1961 11.25 0.0 0
M  V30 30 N 5.1961 12.75 0.0 0
M  V30 31 C 6.4951 13.5 0.0 0
M  V30 32 C 3.8971 13.5 0.0 0
M  V30 33 C 6.4951 15.0 0.0 0
M  V30 34 C 3.8971 15.0 0.0 0
M  V30 35 C 5.1961 15.75 0.0 0
M  V30 36 N 5.1961 17.25 0.0 0
M  V30 37 C 6.4951 18.0 0.0 0
M  V30 38 C 3.8971 18.0 0.0 0
M  V30 39 C 6.4951 19.5 0.0 0
M  V30 40 C 3.8971 19.5 0.0 0
M  V30 41 N 5.1961 20.25 0.0 0
M  V30 42 C 5.1961 21.75 0.0 0
M  V30 END ATOM
M  V30 BEGIN BOND
M  V30 1 1 1 2
M  V30 2 2 2 3
M  V30 3 1 2 4
M  V30 4 1 3 5
M  V30 5 1 3 6
M  V30 6 2 4 7
M  V30 7 2 5 8
M  V30 8 1 6 9
M  V30 9 1 8 10
M  V30 10 2 9 11
M  V30 11 1 9 12
M  V30 12 1 10 13
M  V30 13 1 11 14
M  V30 14 1 11 15
M  V30 15 2 12 16
M  V30 16 2 13 17
M  V30 17 1 13 18
M  V30 18 2 14 19
M  V30 19 2 14 20
M  V30 20 1 14 21
M  V30 21 2 15 22
M  V30 22 1 17 23
M  V30 23 1 17 24
M  V30 24 2 18 25
M  V30 25 1 21 26
M  V30 26 1 21 27
M  V30 27 1 23 28
M  V30 28 2 24 29
M  V30 29 1 29 30
M  V30 30 1 30 31
M  V30 31 1 30 32
M  V30 32 1 31 33
M  V30 33 1 32 34
M  V30 34 1 33 35
M  V30 35 1 35 36
M  V30 36 1 36 37
M  V30 37 1 36 38
M  V30 38 1 37 39
M  V30 39 1 38 40
M  V30 40 1 39 41
M  V30 41 1 41 42
M  V30 42 1 7 8
M  V30 43 1 16 22
M  V30 44 1 25 29
M  V30 45 1 34 35
M  V30 46 1 40 41
M  V30 END BOND
M  V30 END CTAB
M  END
>  <Molecule Name>
Compound 152

>  <Molecule Name 2>
Compound 152

>  <Compound ID>
67

>  <Name>
TAE684

>  <Uniprot>
Q00536

>  <Target>
CDK16

>  <Smiles>
COC1=CC(N2CCC(N3CCN(C)CC3)CC2)=CC=C1NC1=NC=C(Cl)C(NC2=CC=CC=C2S(=O)(=O)C(C)C)=N1

>  <Kd (nM)>
560

>  <Assay (Kd)>
Kd was assessed by competition binding assays

>  <Ki (nM)>


>  <Assay (Ki)>


>  <IC50 (nM)>


>  <Assay (IC50)>


>  <EC50 (nM)>


>  <Assay (EC50)>


>  <Article DOI>
10.1038/nbt.1990

>  <Molecular Weight>
614.216

>  <Exact Mass>
613.2601868

>  <XLogP3>
5.67

>  <Heavy Atom Count>
42

>  <Ring Count>
5

>  <Hydrogen Bond Acceptor Count>
10

>  <Hydrogen Bond Donor Count>
2

>  <Rotatable Bond Count>
9

>  <Topological Polar Surface Area>
102.93

>  <Molecular Formula>
C30H40ClN7O3S

>  <InChI>
InChI=1S/C30H40ClN7O3S/c1-21(2)42(39,40)28-8-6-5-7-26(28)33-29-24(31)20-32-30(35-29)34-25-10-9-23(19-27(25)41-4)37-13-11-22(12-14-37)38-17-15-36(3)16-18-38/h5-10,19-22H,11-18H2,1-4H3,(H2,32,33,34,35)

>  <InChI Key>
QQWUGDVOUVUTOY-UHFFFAOYSA-N

>  <BindingDB>
50242742

>  <PubChem>
16038120

>  <ChEMBL>
CHEMBL509032

$$$$
67
Actelion Java MolfileCreator 2.0

  0  0  0  0  0  0              0 V3000
M  V30 BEGIN CTAB
M  V30 COUNTS 42 46 0 0 0
M  V30 BEGIN ATOM
M  V30 1 Cl 0.0 3.75 0.0 0
M  V30 2 C 1.299 4.5 0.0 0
M  V30 3 C 2.598 3.75 0.0 0
M  V30 4 C 1.299 6.0 0.0 0
M  V30 5 N 3.8971 4.5 0.0 0
M  V30 6 N 2.598 2.25 0.0 0
M  V30 7 N 2.598 6.75 0.0 0
M  V30 8 C 3.8971 6.0 0.0 0
M  V30 9 C 3.8971 1.5 0.0 0
M  V30 10 N 5.1961 6.75 0.0 0
M  V30 11 C 3.8971 0.0 0.0 0
M  V30 12 C 5.1961 2.25 0.0 0
M  V30 13 C 5.1961 8.25 0.0 0
M  V30 14 S 2.598 -0.75 0.0 0
M  V30 15 C 5.1961 -0.75 0.0 0
M  V30 16 C 6.4951 1.5 0.0 0
M  V30 17 C 6.4951 9.0 0.0 0
M  V30 18 C 3.8971 9.0 0.0 0
M  V30 19 O 1.848 -2.049 0.0 0
M  V30 20 O 3.348 -2.049 0.0 0
M  V30 21 C 1.299 0.0 0.0 0
M  V30 22 C 6.4951 0.0 0.0 0
M  V30 23 O 7.7942 8.25 0.0 0
M  V30 24 C 6.4951 10.5 0.0 0
M  V30 25 C 3.8971 10.5 0.0 0
M  V30 26 C 1.299 1.5 0.0 0
M  V30 27 C 0.0 -0.75 0.0 0
M  V30 28 C 9.0932 9.0 0.0 0
M  V30 29 C 5.1961 11.25 0.0 0
M  V30 30 N 5.1961 12.75 0.0 0
M  V30 31 C 6.4951 13.5 0.0 0
M  V30 32 C 3.8971 13.5 0.0 0
M  V30 33 C 6.4951 15.0 0.0 0
M  V30 34 C 3.8971 15.0 0.0 0
M  V30 35 C 5.1961 15.75 0.0 0
M  V30 36 N 5.1961 17.25 0.0 0
M  V30 37 C 6.4951 18.0 0.0 0
M  V30 38 C 3.8971 18.0 0.0 0
M  V30 39 C 6.4951 19.5 0.0 0
M  V30 40 C 3.8971 19.5 0.0 0
M  V30 41 N 5.1961 20.25 0.0 0
M  V30 42 C 5.1961 21.75 0.0 0
M  V30 END ATOM
M  V30 BEGIN BOND
M  V30 1 1 1 2
M  V30 2 2 2 3
M  V30 3 1 2 4
M  V30 4 1 3 5
M  V30 5 1 3 6
M  V30 6 2 4 7
M  V30 7 2 5 8
M  V30 8 1 6 9
M  V30 9 1 8 10
M  V30 10 2 9 11
M  V30 11 1 9 12
M  V30 12 1 10 13
M  V30 13 1 11 14
M  V30 14 1 11 15
M  V30 15 2 12 16
M  V30 16 2 13 17
M  V30 17 1 13 18
M  V30 18 2 14 19
M  V30 19 2 14 20
M  V30 20 1 14 21
M  V30 21 2 15 22
M  V30 22 1 17 23
M  V30 23 1 17 24
M  V30 24 2 18 25
M  V30 25 1 21 26
M  V30 26 1 21 27
M  V30 27 1 23 28
M  V30 28 2 24 29
M  V30 29 1 29 30
M  V30 30 1 30 31
M  V30 31 1 30 32
M  V30 32 1 31 33
M  V30 33 1 32 34
M  V30 34 1 33 35
M  V30 35 1 35 36
M  V30 36 1 36 37
M  V30 37 1 36 38
M  V30 38 1 37 39
M  V30 39 1 38 40
M  V30 40 1 39 41
M  V30 41 1 41 42
M  V30 42 1 7 8
M  V30 43 1 16 22
M  V30 44 1 25 29
M  V30 45 1 34 35
M  V30 46 1 40 41
M  V30 END BOND
M  V30 END CTAB
M  END
>  <Molecule Name>
Compound 153

>  <Molecule Name 2>
Compound 153

>  <Compound ID>
67

>  <Name>
TAE684

>  <Uniprot>
Q00537

>  <Target>
CDK17

>  <Smiles>
COC1=CC(N2CCC(N3CCN(C)CC3)CC2)=CC=C1NC1=NC=C(Cl)C(NC2=CC=CC=C2S(=O)(=O)C(C)C)=N1

>  <Kd (nM)>
810

>  <Assay (Kd)>
Kd was assessed by competition binding assays

>  <Ki (nM)>


>  <Assay (Ki)>


>  <IC50 (nM)>


>  <Assay (IC50)>


>  <EC50 (nM)>


>  <Assay (EC50)>


>  <Article DOI>
10.1038/nbt.1990

>  <Molecular Weight>
614.216

>  <Exact Mass>
613.2601868

>  <XLogP3>
5.67

>  <Heavy Atom Count>
42

>  <Ring Count>
5

>  <Hydrogen Bond Acceptor Count>
10

>  <Hydrogen Bond Donor Count>
2

>  <Rotatable Bond Count>
9

>  <Topological Polar Surface Area>
102.93

>  <Molecular Formula>
C30H40ClN7O3S

>  <InChI>
InChI=1S/C30H40ClN7O3S/c1-21(2)42(39,40)28-8-6-5-7-26(28)33-29-24(31)20-32-30(35-29)34-25-10-9-23(19-27(25)41-4)37-13-11-22(12-14-37)38-17-15-36(3)16-18-38/h5-10,19-22H,11-18H2,1-4H3,(H2,32,33,34,35)

>  <InChI Key>
QQWUGDVOUVUTOY-UHFFFAOYSA-N

>  <BindingDB>
50242742

>  <PubChem>
16038120

>  <ChEMBL>
CHEMBL509032

$$$$
67
Actelion Java MolfileCreator 2.0

  0  0  0  0  0  0              0 V3000
M  V30 BEGIN CTAB
M  V30 COUNTS 42 46 0 0 0
M  V30 BEGIN ATOM
M  V30 1 Cl 0.0 3.75 0.0 0
M  V30 2 C 1.299 4.5 0.0 0
M  V30 3 C 2.598 3.75 0.0 0
M  V30 4 C 1.299 6.0 0.0 0
M  V30 5 N 3.8971 4.5 0.0 0
M  V30 6 N 2.598 2.25 0.0 0
M  V30 7 N 2.598 6.75 0.0 0
M  V30 8 C 3.8971 6.0 0.0 0
M  V30 9 C 3.8971 1.5 0.0 0
M  V30 10 N 5.1961 6.75 0.0 0
M  V30 11 C 3.8971 0.0 0.0 0
M  V30 12 C 5.1961 2.25 0.0 0
M  V30 13 C 5.1961 8.25 0.0 0
M  V30 14 S 2.598 -0.75 0.0 0
M  V30 15 C 5.1961 -0.75 0.0 0
M  V30 16 C 6.4951 1.5 0.0 0
M  V30 17 C 6.4951 9.0 0.0 0
M  V30 18 C 3.8971 9.0 0.0 0
M  V30 19 O 1.848 -2.049 0.0 0
M  V30 20 O 3.348 -2.049 0.0 0
M  V30 21 C 1.299 0.0 0.0 0
M  V30 22 C 6.4951 0.0 0.0 0
M  V30 23 O 7.7942 8.25 0.0 0
M  V30 24 C 6.4951 10.5 0.0 0
M  V30 25 C 3.8971 10.5 0.0 0
M  V30 26 C 1.299 1.5 0.0 0
M  V30 27 C 0.0 -0.75 0.0 0
M  V30 28 C 9.0932 9.0 0.0 0
M  V30 29 C 5.1961 11.25 0.0 0
M  V30 30 N 5.1961 12.75 0.0 0
M  V30 31 C 6.4951 13.5 0.0 0
M  V30 32 C 3.8971 13.5 0.0 0
M  V30 33 C 6.4951 15.0 0.0 0
M  V30 34 C 3.8971 15.0 0.0 0
M  V30 35 C 5.1961 15.75 0.0 0
M  V30 36 N 5.1961 17.25 0.0 0
M  V30 37 C 6.4951 18.0 0.0 0
M  V30 38 C 3.8971 18.0 0.0 0
M  V30 39 C 6.4951 19.5 0.0 0
M  V30 40 C 3.8971 19.5 0.0 0
M  V30 41 N 5.1961 20.25 0.0 0
M  V30 42 C 5.1961 21.75 0.0 0
M  V30 END ATOM
M  V30 BEGIN BOND
M  V30 1 1 1 2
M  V30 2 2 2 3
M  V30 3 1 2 4
M  V30 4 1 3 5
M  V30 5 1 3 6
M  V30 6 2 4 7
M  V30 7 2 5 8
M  V30 8 1 6 9
M  V30 9 1 8 10
M  V30 10 2 9 11
M  V30 11 1 9 12
M  V30 12 1 10 13
M  V30 13 1 11 14
M  V30 14 1 11 15
M  V30 15 2 12 16
M  V30 16 2 13 17
M  V30 17 1 13 18
M  V30 18 2 14 19
M  V30 19 2 14 20
M  V30 20 1 14 21
M  V30 21 2 15 22
M  V30 22 1 17 23
M  V30 23 1 17 24
M  V30 24 2 18 25
M  V30 25 1 21 26
M  V30 26 1 21 27
M  V30 27 1 23 28
M  V30 28 2 24 29
M  V30 29 1 29 30
M  V30 30 1 30 31
M  V30 31 1 30 32
M  V30 32 1 31 33
M  V30 33 1 32 34
M  V30 34 1 33 35
M  V30 35 1 35 36
M  V30 36 1 36 37
M  V30 37 1 36 38
M  V30 38 1 37 39
M  V30 39 1 38 40
M  V30 40 1 39 41
M  V30 41 1 41 42
M  V30 42 1 7 8
M  V30 43 1 16 22
M  V30 44 1 25 29
M  V30 45 1 34 35
M  V30 46 1 40 41
M  V30 END BOND
M  V30 END CTAB
M  END
>  <Molecule Name>
Compound 154

>  <Molecule Name 2>
Compound 154

>  <Compound ID>
67

>  <Name>
TAE684

>  <Uniprot>
Q07002

>  <Target>
CDK18

>  <Smiles>
COC1=CC(N2CCC(N3CCN(C)CC3)CC2)=CC=C1NC1=NC=C(Cl)C(NC2=CC=CC=C2S(=O)(=O)C(C)C)=N1

>  <Kd (nM)>
>10000

>  <Assay (Kd)>
Kd was assessed by competition binding assays

>  <Ki (nM)>


>  <Assay (Ki)>


>  <IC50 (nM)>


>  <Assay (IC50)>


>  <EC50 (nM)>


>  <Assay (EC50)>


>  <Article DOI>
10.1038/nbt.1990

>  <Molecular Weight>
614.216

>  <Exact Mass>
613.2601868

>  <XLogP3>
5.67

>  <Heavy Atom Count>
42

>  <Ring Count>
5

>  <Hydrogen Bond Acceptor Count>
10

>  <Hydrogen Bond Donor Count>
2

>  <Rotatable Bond Count>
9

>  <Topological Polar Surface Area>
102.93

>  <Molecular Formula>
C30H40ClN7O3S

>  <InChI>
InChI=1S/C30H40ClN7O3S/c1-21(2)42(39,40)28-8-6-5-7-26(28)33-29-24(31)20-32-30(35-29)34-25-10-9-23(19-27(25)41-4)37-13-11-22(12-14-37)38-17-15-36(3)16-18-38/h5-10,19-22H,11-18H2,1-4H3,(H2,32,33,34,35)

>  <InChI Key>
QQWUGDVOUVUTOY-UHFFFAOYSA-N

>  <BindingDB>
50242742

>  <PubChem>
16038120

>  <ChEMBL>
CHEMBL509032

$$$$
67
Actelion Java MolfileCreator 2.0

  0  0  0  0  0  0              0 V3000
M  V30 BEGIN CTAB
M  V30 COUNTS 42 46 0 0 0
M  V30 BEGIN ATOM
M  V30 1 Cl 0.0 3.75 0.0 0
M  V30 2 C 1.299 4.5 0.0 0
M  V30 3 C 2.598 3.75 0.0 0
M  V30 4 C 1.299 6.0 0.0 0
M  V30 5 N 3.8971 4.5 0.0 0
M  V30 6 N 2.598 2.25 0.0 0
M  V30 7 N 2.598 6.75 0.0 0
M  V30 8 C 3.8971 6.0 0.0 0
M  V30 9 C 3.8971 1.5 0.0 0
M  V30 10 N 5.1961 6.75 0.0 0
M  V30 11 C 3.8971 0.0 0.0 0
M  V30 12 C 5.1961 2.25 0.0 0
M  V30 13 C 5.1961 8.25 0.0 0
M  V30 14 S 2.598 -0.75 0.0 0
M  V30 15 C 5.1961 -0.75 0.0 0
M  V30 16 C 6.4951 1.5 0.0 0
M  V30 17 C 6.4951 9.0 0.0 0
M  V30 18 C 3.8971 9.0 0.0 0
M  V30 19 O 1.848 -2.049 0.0 0
M  V30 20 O 3.348 -2.049 0.0 0
M  V30 21 C 1.299 0.0 0.0 0
M  V30 22 C 6.4951 0.0 0.0 0
M  V30 23 O 7.7942 8.25 0.0 0
M  V30 24 C 6.4951 10.5 0.0 0
M  V30 25 C 3.8971 10.5 0.0 0
M  V30 26 C 1.299 1.5 0.0 0
M  V30 27 C 0.0 -0.75 0.0 0
M  V30 28 C 9.0932 9.0 0.0 0
M  V30 29 C 5.1961 11.25 0.0 0
M  V30 30 N 5.1961 12.75 0.0 0
M  V30 31 C 6.4951 13.5 0.0 0
M  V30 32 C 3.8971 13.5 0.0 0
M  V30 33 C 6.4951 15.0 0.0 0
M  V30 34 C 3.8971 15.0 0.0 0
M  V30 35 C 5.1961 15.75 0.0 0
M  V30 36 N 5.1961 17.25 0.0 0
M  V30 37 C 6.4951 18.0 0.0 0
M  V30 38 C 3.8971 18.0 0.0 0
M  V30 39 C 6.4951 19.5 0.0 0
M  V30 40 C 3.8971 19.5 0.0 0
M  V30 41 N 5.1961 20.25 0.0 0
M  V30 42 C 5.1961 21.75 0.0 0
M  V30 END ATOM
M  V30 BEGIN BOND
M  V30 1 1 1 2
M  V30 2 2 2 3
M  V30 3 1 2 4
M  V30 4 1 3 5
M  V30 5 1 3 6
M  V30 6 2 4 7
M  V30 7 2 5 8
M  V30 8 1 6 9
M  V30 9 1 8 10
M  V30 10 2 9 11
M  V30 11 1 9 12
M  V30 12 1 10 13
M  V30 13 1 11 14
M  V30 14 1 11 15
M  V30 15 2 12 16
M  V30 16 2 13 17
M  V30 17 1 13 18
M  V30 18 2 14 19
M  V30 19 2 14 20
M  V30 20 1 14 21
M  V30 21 2 15 22
M  V30 22 1 17 23
M  V30 23 1 17 24
M  V30 24 2 18 25
M  V30 25 1 21 26
M  V30 26 1 21 27
M  V30 27 1 23 28
M  V30 28 2 24 29
M  V30 29 1 29 30
M  V30 30 1 30 31
M  V30 31 1 30 32
M  V30 32 1 31 33
M  V30 33 1 32 34
M  V30 34 1 33 35
M  V30 35 1 35 36
M  V30 36 1 36 37
M  V30 37 1 36 38
M  V30 38 1 37 39
M  V30 39 1 38 40
M  V30 40 1 39 41
M  V30 41 1 41 42
M  V30 42 1 7 8
M  V30 43 1 16 22
M  V30 44 1 25 29
M  V30 45 1 34 35
M  V30 46 1 40 41
M  V30 END BOND
M  V30 END CTAB
M  END
>  <Molecule Name>
Compound 155

>  <Molecule Name 2>
Compound 155

>  <Compound ID>
67

>  <Name>
TAE684

>  <Uniprot>
P06493

>  <Target>
CDK1

>  <Smiles>
COC1=CC(N2CCC(N3CCN(C)CC3)CC2)=CC=C1NC1=NC=C(Cl)C(NC2=CC=CC=C2S(=O)(=O)C(C)C)=N1

>  <Kd (nM)>


>  <Assay (Kd)>


>  <Ki (nM)>
316.23

>  <Assay (Ki)>
Ki of CDK1

>  <IC50 (nM)>


>  <Assay (IC50)>


>  <EC50 (nM)>


>  <Assay (EC50)>


>  <Article DOI>


>  <Molecular Weight>
614.216

>  <Exact Mass>
613.2601868

>  <XLogP3>
5.67

>  <Heavy Atom Count>
42

>  <Ring Count>
5

>  <Hydrogen Bond Acceptor Count>
10

>  <Hydrogen Bond Donor Count>
2

>  <Rotatable Bond Count>
9

>  <Topological Polar Surface Area>
102.93

>  <Molecular Formula>
C30H40ClN7O3S

>  <InChI>
InChI=1S/C30H40ClN7O3S/c1-21(2)42(39,40)28-8-6-5-7-26(28)33-29-24(31)20-32-30(35-29)34-25-10-9-23(19-27(25)41-4)37-13-11-22(12-14-37)38-17-15-36(3)16-18-38/h5-10,19-22H,11-18H2,1-4H3,(H2,32,33,34,35)

>  <InChI Key>
QQWUGDVOUVUTOY-UHFFFAOYSA-N

>  <BindingDB>
50242742

>  <PubChem>
16038120

>  <ChEMBL>
CHEMBL509032

$$$$
67
Actelion Java MolfileCreator 2.0

  0  0  0  0  0  0              0 V3000
M  V30 BEGIN CTAB
M  V30 COUNTS 42 46 0 0 0
M  V30 BEGIN ATOM
M  V30 1 Cl 0.0 3.75 0.0 0
M  V30 2 C 1.299 4.5 0.0 0
M  V30 3 C 2.598 3.75 0.0 0
M  V30 4 C 1.299 6.0 0.0 0
M  V30 5 N 3.8971 4.5 0.0 0
M  V30 6 N 2.598 2.25 0.0 0
M  V30 7 N 2.598 6.75 0.0 0
M  V30 8 C 3.8971 6.0 0.0 0
M  V30 9 C 3.8971 1.5 0.0 0
M  V30 10 N 5.1961 6.75 0.0 0
M  V30 11 C 3.8971 0.0 0.0 0
M  V30 12 C 5.1961 2.25 0.0 0
M  V30 13 C 5.1961 8.25 0.0 0
M  V30 14 S 2.598 -0.75 0.0 0
M  V30 15 C 5.1961 -0.75 0.0 0
M  V30 16 C 6.4951 1.5 0.0 0
M  V30 17 C 6.4951 9.0 0.0 0
M  V30 18 C 3.8971 9.0 0.0 0
M  V30 19 O 1.848 -2.049 0.0 0
M  V30 20 O 3.348 -2.049 0.0 0
M  V30 21 C 1.299 0.0 0.0 0
M  V30 22 C 6.4951 0.0 0.0 0
M  V30 23 O 7.7942 8.25 0.0 0
M  V30 24 C 6.4951 10.5 0.0 0
M  V30 25 C 3.8971 10.5 0.0 0
M  V30 26 C 1.299 1.5 0.0 0
M  V30 27 C 0.0 -0.75 0.0 0
M  V30 28 C 9.0932 9.0 0.0 0
M  V30 29 C 5.1961 11.25 0.0 0
M  V30 30 N 5.1961 12.75 0.0 0
M  V30 31 C 6.4951 13.5 0.0 0
M  V30 32 C 3.8971 13.5 0.0 0
M  V30 33 C 6.4951 15.0 0.0 0
M  V30 34 C 3.8971 15.0 0.0 0
M  V30 35 C 5.1961 15.75 0.0 0
M  V30 36 N 5.1961 17.25 0.0 0
M  V30 37 C 6.4951 18.0 0.0 0
M  V30 38 C 3.8971 18.0 0.0 0
M  V30 39 C 6.4951 19.5 0.0 0
M  V30 40 C 3.8971 19.5 0.0 0
M  V30 41 N 5.1961 20.25 0.0 0
M  V30 42 C 5.1961 21.75 0.0 0
M  V30 END ATOM
M  V30 BEGIN BOND
M  V30 1 1 1 2
M  V30 2 2 2 3
M  V30 3 1 2 4
M  V30 4 1 3 5
M  V30 5 1 3 6
M  V30 6 2 4 7
M  V30 7 2 5 8
M  V30 8 1 6 9
M  V30 9 1 8 10
M  V30 10 2 9 11
M  V30 11 1 9 12
M  V30 12 1 10 13
M  V30 13 1 11 14
M  V30 14 1 11 15
M  V30 15 2 12 16
M  V30 16 2 13 17
M  V30 17 1 13 18
M  V30 18 2 14 19
M  V30 19 2 14 20
M  V30 20 1 14 21
M  V30 21 2 15 22
M  V30 22 1 17 23
M  V30 23 1 17 24
M  V30 24 2 18 25
M  V30 25 1 21 26
M  V30 26 1 21 27
M  V30 27 1 23 28
M  V30 28 2 24 29
M  V30 29 1 29 30
M  V30 30 1 30 31
M  V30 31 1 30 32
M  V30 32 1 31 33
M  V30 33 1 32 34
M  V30 34 1 33 35
M  V30 35 1 35 36
M  V30 36 1 36 37
M  V30 37 1 36 38
M  V30 38 1 37 39
M  V30 39 1 38 40
M  V30 40 1 39 41
M  V30 41 1 41 42
M  V30 42 1 7 8
M  V30 43 1 16 22
M  V30 44 1 25 29
M  V30 45 1 34 35
M  V30 46 1 40 41
M  V30 END BOND
M  V30 END CTAB
M  END
>  <Molecule Name>
Compound 156

>  <Molecule Name 2>
Compound 156

>  <Compound ID>
67

>  <Name>
TAE684

>  <Uniprot>
P24941

>  <Target>
CDK2

>  <Smiles>
COC1=CC(N2CCC(N3CCN(C)CC3)CC2)=CC=C1NC1=NC=C(Cl)C(NC2=CC=CC=C2S(=O)(=O)C(C)C)=N1

>  <Kd (nM)>
5200

>  <Assay (Kd)>
Kd was assessed by competition binding assays

>  <Ki (nM)>


>  <Assay (Ki)>


>  <IC50 (nM)>


>  <Assay (IC50)>


>  <EC50 (nM)>


>  <Assay (EC50)>


>  <Article DOI>
10.1038/nbt.1990

>  <Molecular Weight>
614.216

>  <Exact Mass>
613.2601868

>  <XLogP3>
5.67

>  <Heavy Atom Count>
42

>  <Ring Count>
5

>  <Hydrogen Bond Acceptor Count>
10

>  <Hydrogen Bond Donor Count>
2

>  <Rotatable Bond Count>
9

>  <Topological Polar Surface Area>
102.93

>  <Molecular Formula>
C30H40ClN7O3S

>  <InChI>
InChI=1S/C30H40ClN7O3S/c1-21(2)42(39,40)28-8-6-5-7-26(28)33-29-24(31)20-32-30(35-29)34-25-10-9-23(19-27(25)41-4)37-13-11-22(12-14-37)38-17-15-36(3)16-18-38/h5-10,19-22H,11-18H2,1-4H3,(H2,32,33,34,35)

>  <InChI Key>
QQWUGDVOUVUTOY-UHFFFAOYSA-N

>  <BindingDB>
50242742

>  <PubChem>
16038120

>  <ChEMBL>
CHEMBL509032

$$$$
67
Actelion Java MolfileCreator 2.0

  0  0  0  0  0  0              0 V3000
M  V30 BEGIN CTAB
M  V30 COUNTS 42 46 0 0 0
M  V30 BEGIN ATOM
M  V30 1 Cl 0.0 3.75 0.0 0
M  V30 2 C 1.299 4.5 0.0 0
M  V30 3 C 2.598 3.75 0.0 0
M  V30 4 C 1.299 6.0 0.0 0
M  V30 5 N 3.8971 4.5 0.0 0
M  V30 6 N 2.598 2.25 0.0 0
M  V30 7 N 2.598 6.75 0.0 0
M  V30 8 C 3.8971 6.0 0.0 0
M  V30 9 C 3.8971 1.5 0.0 0
M  V30 10 N 5.1961 6.75 0.0 0
M  V30 11 C 3.8971 0.0 0.0 0
M  V30 12 C 5.1961 2.25 0.0 0
M  V30 13 C 5.1961 8.25 0.0 0
M  V30 14 S 2.598 -0.75 0.0 0
M  V30 15 C 5.1961 -0.75 0.0 0
M  V30 16 C 6.4951 1.5 0.0 0
M  V30 17 C 6.4951 9.0 0.0 0
M  V30 18 C 3.8971 9.0 0.0 0
M  V30 19 O 1.848 -2.049 0.0 0
M  V30 20 O 3.348 -2.049 0.0 0
M  V30 21 C 1.299 0.0 0.0 0
M  V30 22 C 6.4951 0.0 0.0 0
M  V30 23 O 7.7942 8.25 0.0 0
M  V30 24 C 6.4951 10.5 0.0 0
M  V30 25 C 3.8971 10.5 0.0 0
M  V30 26 C 1.299 1.5 0.0 0
M  V30 27 C 0.0 -0.75 0.0 0
M  V30 28 C 9.0932 9.0 0.0 0
M  V30 29 C 5.1961 11.25 0.0 0
M  V30 30 N 5.1961 12.75 0.0 0
M  V30 31 C 6.4951 13.5 0.0 0
M  V30 32 C 3.8971 13.5 0.0 0
M  V30 33 C 6.4951 15.0 0.0 0
M  V30 34 C 3.8971 15.0 0.0 0
M  V30 35 C 5.1961 15.75 0.0 0
M  V30 36 N 5.1961 17.25 0.0 0
M  V30 37 C 6.4951 18.0 0.0 0
M  V30 38 C 3.8971 18.0 0.0 0
M  V30 39 C 6.4951 19.5 0.0 0
M  V30 40 C 3.8971 19.5 0.0 0
M  V30 41 N 5.1961 20.25 0.0 0
M  V30 42 C 5.1961 21.75 0.0 0
M  V30 END ATOM
M  V30 BEGIN BOND
M  V30 1 1 1 2
M  V30 2 2 2 3
M  V30 3 1 2 4
M  V30 4 1 3 5
M  V30 5 1 3 6
M  V30 6 2 4 7
M  V30 7 2 5 8
M  V30 8 1 6 9
M  V30 9 1 8 10
M  V30 10 2 9 11
M  V30 11 1 9 12
M  V30 12 1 10 13
M  V30 13 1 11 14
M  V30 14 1 11 15
M  V30 15 2 12 16
M  V30 16 2 13 17
M  V30 17 1 13 18
M  V30 18 2 14 19
M  V30 19 2 14 20
M  V30 20 1 14 21
M  V30 21 2 15 22
M  V30 22 1 17 23
M  V30 23 1 17 24
M  V30 24 2 18 25
M  V30 25 1 21 26
M  V30 26 1 21 27
M  V30 27 1 23 28
M  V30 28 2 24 29
M  V30 29 1 29 30
M  V30 30 1 30 31
M  V30 31 1 30 32
M  V30 32 1 31 33
M  V30 33 1 32 34
M  V30 34 1 33 35
M  V30 35 1 35 36
M  V30 36 1 36 37
M  V30 37 1 36 38
M  V30 38 1 37 39
M  V30 39 1 38 40
M  V30 40 1 39 41
M  V30 41 1 41 42
M  V30 42 1 7 8
M  V30 43 1 16 22
M  V30 44 1 25 29
M  V30 45 1 34 35
M  V30 46 1 40 41
M  V30 END BOND
M  V30 END CTAB
M  END
>  <Molecule Name>
Compound 157

>  <Molecule Name 2>
Compound 157

>  <Compound ID>
67

>  <Name>
TAE684

>  <Uniprot>
P11802

>  <Target>
CDK4

>  <Smiles>
COC1=CC(N2CCC(N3CCN(C)CC3)CC2)=CC=C1NC1=NC=C(Cl)C(NC2=CC=CC=C2S(=O)(=O)C(C)C)=N1

>  <Kd (nM)>
1400/400

>  <Assay (Kd)>
Kd of CDK4-cyclinD1/3 was assessed by competition binding assays

>  <Ki (nM)>


>  <Assay (Ki)>


>  <IC50 (nM)>


>  <Assay (IC50)>


>  <EC50 (nM)>


>  <Assay (EC50)>


>  <Article DOI>
10.1038/nbt.1990

>  <Molecular Weight>
614.216

>  <Exact Mass>
613.2601868

>  <XLogP3>
5.67

>  <Heavy Atom Count>
42

>  <Ring Count>
5

>  <Hydrogen Bond Acceptor Count>
10

>  <Hydrogen Bond Donor Count>
2

>  <Rotatable Bond Count>
9

>  <Topological Polar Surface Area>
102.93

>  <Molecular Formula>
C30H40ClN7O3S

>  <InChI>
InChI=1S/C30H40ClN7O3S/c1-21(2)42(39,40)28-8-6-5-7-26(28)33-29-24(31)20-32-30(35-29)34-25-10-9-23(19-27(25)41-4)37-13-11-22(12-14-37)38-17-15-36(3)16-18-38/h5-10,19-22H,11-18H2,1-4H3,(H2,32,33,34,35)

>  <InChI Key>
QQWUGDVOUVUTOY-UHFFFAOYSA-N

>  <BindingDB>
50242742

>  <PubChem>
16038120

>  <ChEMBL>
CHEMBL509032

$$$$
67
Actelion Java MolfileCreator 2.0

  0  0  0  0  0  0              0 V3000
M  V30 BEGIN CTAB
M  V30 COUNTS 42 46 0 0 0
M  V30 BEGIN ATOM
M  V30 1 Cl 0.0 3.75 0.0 0
M  V30 2 C 1.299 4.5 0.0 0
M  V30 3 C 2.598 3.75 0.0 0
M  V30 4 C 1.299 6.0 0.0 0
M  V30 5 N 3.8971 4.5 0.0 0
M  V30 6 N 2.598 2.25 0.0 0
M  V30 7 N 2.598 6.75 0.0 0
M  V30 8 C 3.8971 6.0 0.0 0
M  V30 9 C 3.8971 1.5 0.0 0
M  V30 10 N 5.1961 6.75 0.0 0
M  V30 11 C 3.8971 0.0 0.0 0
M  V30 12 C 5.1961 2.25 0.0 0
M  V30 13 C 5.1961 8.25 0.0 0
M  V30 14 S 2.598 -0.75 0.0 0
M  V30 15 C 5.1961 -0.75 0.0 0
M  V30 16 C 6.4951 1.5 0.0 0
M  V30 17 C 6.4951 9.0 0.0 0
M  V30 18 C 3.8971 9.0 0.0 0
M  V30 19 O 1.848 -2.049 0.0 0
M  V30 20 O 3.348 -2.049 0.0 0
M  V30 21 C 1.299 0.0 0.0 0
M  V30 22 C 6.4951 0.0 0.0 0
M  V30 23 O 7.7942 8.25 0.0 0
M  V30 24 C 6.4951 10.5 0.0 0
M  V30 25 C 3.8971 10.5 0.0 0
M  V30 26 C 1.299 1.5 0.0 0
M  V30 27 C 0.0 -0.75 0.0 0
M  V30 28 C 9.0932 9.0 0.0 0
M  V30 29 C 5.1961 11.25 0.0 0
M  V30 30 N 5.1961 12.75 0.0 0
M  V30 31 C 6.4951 13.5 0.0 0
M  V30 32 C 3.8971 13.5 0.0 0
M  V30 33 C 6.4951 15.0 0.0 0
M  V30 34 C 3.8971 15.0 0.0 0
M  V30 35 C 5.1961 15.75 0.0 0
M  V30 36 N 5.1961 17.25 0.0 0
M  V30 37 C 6.4951 18.0 0.0 0
M  V30 38 C 3.8971 18.0 0.0 0
M  V30 39 C 6.4951 19.5 0.0 0
M  V30 40 C 3.8971 19.5 0.0 0
M  V30 41 N 5.1961 20.25 0.0 0
M  V30 42 C 5.1961 21.75 0.0 0
M  V30 END ATOM
M  V30 BEGIN BOND
M  V30 1 1 1 2
M  V30 2 2 2 3
M  V30 3 1 2 4
M  V30 4 1 3 5
M  V30 5 1 3 6
M  V30 6 2 4 7
M  V30 7 2 5 8
M  V30 8 1 6 9
M  V30 9 1 8 10
M  V30 10 2 9 11
M  V30 11 1 9 12
M  V30 12 1 10 13
M  V30 13 1 11 14
M  V30 14 1 11 15
M  V30 15 2 12 16
M  V30 16 2 13 17
M  V30 17 1 13 18
M  V30 18 2 14 19
M  V30 19 2 14 20
M  V30 20 1 14 21
M  V30 21 2 15 22
M  V30 22 1 17 23
M  V30 23 1 17 24
M  V30 24 2 18 25
M  V30 25 1 21 26
M  V30 26 1 21 27
M  V30 27 1 23 28
M  V30 28 2 24 29
M  V30 29 1 29 30
M  V30 30 1 30 31
M  V30 31 1 30 32
M  V30 32 1 31 33
M  V30 33 1 32 34
M  V30 34 1 33 35
M  V30 35 1 35 36
M  V30 36 1 36 37
M  V30 37 1 36 38
M  V30 38 1 37 39
M  V30 39 1 38 40
M  V30 40 1 39 41
M  V30 41 1 41 42
M  V30 42 1 7 8
M  V30 43 1 16 22
M  V30 44 1 25 29
M  V30 45 1 34 35
M  V30 46 1 40 41
M  V30 END BOND
M  V30 END CTAB
M  END
>  <Molecule Name>
Compound 158

>  <Molecule Name 2>
Compound 158

>  <Compound ID>
67

>  <Name>
TAE684

>  <Uniprot>
Q00535

>  <Target>
CDK5

>  <Smiles>
COC1=CC(N2CCC(N3CCN(C)CC3)CC2)=CC=C1NC1=NC=C(Cl)C(NC2=CC=CC=C2S(=O)(=O)C(C)C)=N1

>  <Kd (nM)>
1600

>  <Assay (Kd)>
Kd was assessed by competition binding assays

>  <Ki (nM)>


>  <Assay (Ki)>


>  <IC50 (nM)>


>  <Assay (IC50)>


>  <EC50 (nM)>


>  <Assay (EC50)>


>  <Article DOI>
10.1038/nbt.1990

>  <Molecular Weight>
614.216

>  <Exact Mass>
613.2601868

>  <XLogP3>
5.67

>  <Heavy Atom Count>
42

>  <Ring Count>
5

>  <Hydrogen Bond Acceptor Count>
10

>  <Hydrogen Bond Donor Count>
2

>  <Rotatable Bond Count>
9

>  <Topological Polar Surface Area>
102.93

>  <Molecular Formula>
C30H40ClN7O3S

>  <InChI>
InChI=1S/C30H40ClN7O3S/c1-21(2)42(39,40)28-8-6-5-7-26(28)33-29-24(31)20-32-30(35-29)34-25-10-9-23(19-27(25)41-4)37-13-11-22(12-14-37)38-17-15-36(3)16-18-38/h5-10,19-22H,11-18H2,1-4H3,(H2,32,33,34,35)

>  <InChI Key>
QQWUGDVOUVUTOY-UHFFFAOYSA-N

>  <BindingDB>
50242742

>  <PubChem>
16038120

>  <ChEMBL>
CHEMBL509032

$$$$
67
Actelion Java MolfileCreator 2.0

  0  0  0  0  0  0              0 V3000
M  V30 BEGIN CTAB
M  V30 COUNTS 42 46 0 0 0
M  V30 BEGIN ATOM
M  V30 1 Cl 0.0 3.75 0.0 0
M  V30 2 C 1.299 4.5 0.0 0
M  V30 3 C 2.598 3.75 0.0 0
M  V30 4 C 1.299 6.0 0.0 0
M  V30 5 N 3.8971 4.5 0.0 0
M  V30 6 N 2.598 2.25 0.0 0
M  V30 7 N 2.598 6.75 0.0 0
M  V30 8 C 3.8971 6.0 0.0 0
M  V30 9 C 3.8971 1.5 0.0 0
M  V30 10 N 5.1961 6.75 0.0 0
M  V30 11 C 3.8971 0.0 0.0 0
M  V30 12 C 5.1961 2.25 0.0 0
M  V30 13 C 5.1961 8.25 0.0 0
M  V30 14 S 2.598 -0.75 0.0 0
M  V30 15 C 5.1961 -0.75 0.0 0
M  V30 16 C 6.4951 1.5 0.0 0
M  V30 17 C 6.4951 9.0 0.0 0
M  V30 18 C 3.8971 9.0 0.0 0
M  V30 19 O 1.848 -2.049 0.0 0
M  V30 20 O 3.348 -2.049 0.0 0
M  V30 21 C 1.299 0.0 0.0 0
M  V30 22 C 6.4951 0.0 0.0 0
M  V30 23 O 7.7942 8.25 0.0 0
M  V30 24 C 6.4951 10.5 0.0 0
M  V30 25 C 3.8971 10.5 0.0 0
M  V30 26 C 1.299 1.5 0.0 0
M  V30 27 C 0.0 -0.75 0.0 0
M  V30 28 C 9.0932 9.0 0.0 0
M  V30 29 C 5.1961 11.25 0.0 0
M  V30 30 N 5.1961 12.75 0.0 0
M  V30 31 C 6.4951 13.5 0.0 0
M  V30 32 C 3.8971 13.5 0.0 0
M  V30 33 C 6.4951 15.0 0.0 0
M  V30 34 C 3.8971 15.0 0.0 0
M  V30 35 C 5.1961 15.75 0.0 0
M  V30 36 N 5.1961 17.25 0.0 0
M  V30 37 C 6.4951 18.0 0.0 0
M  V30 38 C 3.8971 18.0 0.0 0
M  V30 39 C 6.4951 19.5 0.0 0
M  V30 40 C 3.8971 19.5 0.0 0
M  V30 41 N 5.1961 20.25 0.0 0
M  V30 42 C 5.1961 21.75 0.0 0
M  V30 END ATOM
M  V30 BEGIN BOND
M  V30 1 1 1 2
M  V30 2 2 2 3
M  V30 3 1 2 4
M  V30 4 1 3 5
M  V30 5 1 3 6
M  V30 6 2 4 7
M  V30 7 2 5 8
M  V30 8 1 6 9
M  V30 9 1 8 10
M  V30 10 2 9 11
M  V30 11 1 9 12
M  V30 12 1 10 13
M  V30 13 1 11 14
M  V30 14 1 11 15
M  V30 15 2 12 16
M  V30 16 2 13 17
M  V30 17 1 13 18
M  V30 18 2 14 19
M  V30 19 2 14 20
M  V30 20 1 14 21
M  V30 21 2 15 22
M  V30 22 1 17 23
M  V30 23 1 17 24
M  V30 24 2 18 25
M  V30 25 1 21 26
M  V30 26 1 21 27
M  V30 27 1 23 28
M  V30 28 2 24 29
M  V30 29 1 29 30
M  V30 30 1 30 31
M  V30 31 1 30 32
M  V30 32 1 31 33
M  V30 33 1 32 34
M  V30 34 1 33 35
M  V30 35 1 35 36
M  V30 36 1 36 37
M  V30 37 1 36 38
M  V30 38 1 37 39
M  V30 39 1 38 40
M  V30 40 1 39 41
M  V30 41 1 41 42
M  V30 42 1 7 8
M  V30 43 1 16 22
M  V30 44 1 25 29
M  V30 45 1 34 35
M  V30 46 1 40 41
M  V30 END BOND
M  V30 END CTAB
M  END
>  <Molecule Name>
Compound 159

>  <Molecule Name 2>
Compound 159

>  <Compound ID>
67

>  <Name>
TAE684

>  <Uniprot>
Q00534

>  <Target>
CDK6

>  <Smiles>
COC1=CC(N2CCC(N3CCN(C)CC3)CC2)=CC=C1NC1=NC=C(Cl)C(NC2=CC=CC=C2S(=O)(=O)C(C)C)=N1

>  <Kd (nM)>


>  <Assay (Kd)>


>  <Ki (nM)>


>  <Assay (Ki)>


>  <IC50 (nM)>


>  <Assay (IC50)>


>  <EC50 (nM)>


>  <Assay (EC50)>


>  <Article DOI>
10.1016/j.cell.2020.10.038

>  <Molecular Weight>
614.216

>  <Exact Mass>
613.2601868

>  <XLogP3>
5.67

>  <Heavy Atom Count>
42

>  <Ring Count>
5

>  <Hydrogen Bond Acceptor Count>
10

>  <Hydrogen Bond Donor Count>
2

>  <Rotatable Bond Count>
9

>  <Topological Polar Surface Area>
102.93

>  <Molecular Formula>
C30H40ClN7O3S

>  <InChI>
InChI=1S/C30H40ClN7O3S/c1-21(2)42(39,40)28-8-6-5-7-26(28)33-29-24(31)20-32-30(35-29)34-25-10-9-23(19-27(25)41-4)37-13-11-22(12-14-37)38-17-15-36(3)16-18-38/h5-10,19-22H,11-18H2,1-4H3,(H2,32,33,34,35)

>  <InChI Key>
QQWUGDVOUVUTOY-UHFFFAOYSA-N

>  <BindingDB>
50242742

>  <PubChem>
16038120

>  <ChEMBL>
CHEMBL509032

$$$$
67
Actelion Java MolfileCreator 2.0

  0  0  0  0  0  0              0 V3000
M  V30 BEGIN CTAB
M  V30 COUNTS 42 46 0 0 0
M  V30 BEGIN ATOM
M  V30 1 Cl 0.0 3.75 0.0 0
M  V30 2 C 1.299 4.5 0.0 0
M  V30 3 C 2.598 3.75 0.0 0
M  V30 4 C 1.299 6.0 0.0 0
M  V30 5 N 3.8971 4.5 0.0 0
M  V30 6 N 2.598 2.25 0.0 0
M  V30 7 N 2.598 6.75 0.0 0
M  V30 8 C 3.8971 6.0 0.0 0
M  V30 9 C 3.8971 1.5 0.0 0
M  V30 10 N 5.1961 6.75 0.0 0
M  V30 11 C 3.8971 0.0 0.0 0
M  V30 12 C 5.1961 2.25 0.0 0
M  V30 13 C 5.1961 8.25 0.0 0
M  V30 14 S 2.598 -0.75 0.0 0
M  V30 15 C 5.1961 -0.75 0.0 0
M  V30 16 C 6.4951 1.5 0.0 0
M  V30 17 C 6.4951 9.0 0.0 0
M  V30 18 C 3.8971 9.0 0.0 0
M  V30 19 O 1.848 -2.049 0.0 0
M  V30 20 O 3.348 -2.049 0.0 0
M  V30 21 C 1.299 0.0 0.0 0
M  V30 22 C 6.4951 0.0 0.0 0
M  V30 23 O 7.7942 8.25 0.0 0
M  V30 24 C 6.4951 10.5 0.0 0
M  V30 25 C 3.8971 10.5 0.0 0
M  V30 26 C 1.299 1.5 0.0 0
M  V30 27 C 0.0 -0.75 0.0 0
M  V30 28 C 9.0932 9.0 0.0 0
M  V30 29 C 5.1961 11.25 0.0 0
M  V30 30 N 5.1961 12.75 0.0 0
M  V30 31 C 6.4951 13.5 0.0 0
M  V30 32 C 3.8971 13.5 0.0 0
M  V30 33 C 6.4951 15.0 0.0 0
M  V30 34 C 3.8971 15.0 0.0 0
M  V30 35 C 5.1961 15.75 0.0 0
M  V30 36 N 5.1961 17.25 0.0 0
M  V30 37 C 6.4951 18.0 0.0 0
M  V30 38 C 3.8971 18.0 0.0 0
M  V30 39 C 6.4951 19.5 0.0 0
M  V30 40 C 3.8971 19.5 0.0 0
M  V30 41 N 5.1961 20.25 0.0 0
M  V30 42 C 5.1961 21.75 0.0 0
M  V30 END ATOM
M  V30 BEGIN BOND
M  V30 1 1 1 2
M  V30 2 2 2 3
M  V30 3 1 2 4
M  V30 4 1 3 5
M  V30 5 1 3 6
M  V30 6 2 4 7
M  V30 7 2 5 8
M  V30 8 1 6 9
M  V30 9 1 8 10
M  V30 10 2 9 11
M  V30 11 1 9 12
M  V30 12 1 10 13
M  V30 13 1 11 14
M  V30 14 1 11 15
M  V30 15 2 12 16
M  V30 16 2 13 17
M  V30 17 1 13 18
M  V30 18 2 14 19
M  V30 19 2 14 20
M  V30 20 1 14 21
M  V30 21 2 15 22
M  V30 22 1 17 23
M  V30 23 1 17 24
M  V30 24 2 18 25
M  V30 25 1 21 26
M  V30 26 1 21 27
M  V30 27 1 23 28
M  V30 28 2 24 29
M  V30 29 1 29 30
M  V30 30 1 30 31
M  V30 31 1 30 32
M  V30 32 1 31 33
M  V30 33 1 32 34
M  V30 34 1 33 35
M  V30 35 1 35 36
M  V30 36 1 36 37
M  V30 37 1 36 38
M  V30 38 1 37 39
M  V30 39 1 38 40
M  V30 40 1 39 41
M  V30 41 1 41 42
M  V30 42 1 7 8
M  V30 43 1 16 22
M  V30 44 1 25 29
M  V30 45 1 34 35
M  V30 46 1 40 41
M  V30 END BOND
M  V30 END CTAB
M  END
>  <Molecule Name>
Compound 160

>  <Molecule Name 2>
Compound 160

>  <Compound ID>
67

>  <Name>
TAE684

>  <Uniprot>
P50613

>  <Target>
CDK7

>  <Smiles>
COC1=CC(N2CCC(N3CCN(C)CC3)CC2)=CC=C1NC1=NC=C(Cl)C(NC2=CC=CC=C2S(=O)(=O)C(C)C)=N1

>  <Kd (nM)>
190

>  <Assay (Kd)>
Kd was assessed by competition binding assays

>  <Ki (nM)>


>  <Assay (Ki)>


>  <IC50 (nM)>


>  <Assay (IC50)>


>  <EC50 (nM)>


>  <Assay (EC50)>


>  <Article DOI>
10.1038/nbt.1990

>  <Molecular Weight>
614.216

>  <Exact Mass>
613.2601868

>  <XLogP3>
5.67

>  <Heavy Atom Count>
42

>  <Ring Count>
5

>  <Hydrogen Bond Acceptor Count>
10

>  <Hydrogen Bond Donor Count>
2

>  <Rotatable Bond Count>
9

>  <Topological Polar Surface Area>
102.93

>  <Molecular Formula>
C30H40ClN7O3S

>  <InChI>
InChI=1S/C30H40ClN7O3S/c1-21(2)42(39,40)28-8-6-5-7-26(28)33-29-24(31)20-32-30(35-29)34-25-10-9-23(19-27(25)41-4)37-13-11-22(12-14-37)38-17-15-36(3)16-18-38/h5-10,19-22H,11-18H2,1-4H3,(H2,32,33,34,35)

>  <InChI Key>
QQWUGDVOUVUTOY-UHFFFAOYSA-N

>  <BindingDB>
50242742

>  <PubChem>
16038120

>  <ChEMBL>
CHEMBL509032

$$$$
67
Actelion Java MolfileCreator 2.0

  0  0  0  0  0  0              0 V3000
M  V30 BEGIN CTAB
M  V30 COUNTS 42 46 0 0 0
M  V30 BEGIN ATOM
M  V30 1 Cl 0.0 3.75 0.0 0
M  V30 2 C 1.299 4.5 0.0 0
M  V30 3 C 2.598 3.75 0.0 0
M  V30 4 C 1.299 6.0 0.0 0
M  V30 5 N 3.8971 4.5 0.0 0
M  V30 6 N 2.598 2.25 0.0 0
M  V30 7 N 2.598 6.75 0.0 0
M  V30 8 C 3.8971 6.0 0.0 0
M  V30 9 C 3.8971 1.5 0.0 0
M  V30 10 N 5.1961 6.75 0.0 0
M  V30 11 C 3.8971 0.0 0.0 0
M  V30 12 C 5.1961 2.25 0.0 0
M  V30 13 C 5.1961 8.25 0.0 0
M  V30 14 S 2.598 -0.75 0.0 0
M  V30 15 C 5.1961 -0.75 0.0 0
M  V30 16 C 6.4951 1.5 0.0 0
M  V30 17 C 6.4951 9.0 0.0 0
M  V30 18 C 3.8971 9.0 0.0 0
M  V30 19 O 1.848 -2.049 0.0 0
M  V30 20 O 3.348 -2.049 0.0 0
M  V30 21 C 1.299 0.0 0.0 0
M  V30 22 C 6.4951 0.0 0.0 0
M  V30 23 O 7.7942 8.25 0.0 0
M  V30 24 C 6.4951 10.5 0.0 0
M  V30 25 C 3.8971 10.5 0.0 0
M  V30 26 C 1.299 1.5 0.0 0
M  V30 27 C 0.0 -0.75 0.0 0
M  V30 28 C 9.0932 9.0 0.0 0
M  V30 29 C 5.1961 11.25 0.0 0
M  V30 30 N 5.1961 12.75 0.0 0
M  V30 31 C 6.4951 13.5 0.0 0
M  V30 32 C 3.8971 13.5 0.0 0
M  V30 33 C 6.4951 15.0 0.0 0
M  V30 34 C 3.8971 15.0 0.0 0
M  V30 35 C 5.1961 15.75 0.0 0
M  V30 36 N 5.1961 17.25 0.0 0
M  V30 37 C 6.4951 18.0 0.0 0
M  V30 38 C 3.8971 18.0 0.0 0
M  V30 39 C 6.4951 19.5 0.0 0
M  V30 40 C 3.8971 19.5 0.0 0
M  V30 41 N 5.1961 20.25 0.0 0
M  V30 42 C 5.1961 21.75 0.0 0
M  V30 END ATOM
M  V30 BEGIN BOND
M  V30 1 1 1 2
M  V30 2 2 2 3
M  V30 3 1 2 4
M  V30 4 1 3 5
M  V30 5 1 3 6
M  V30 6 2 4 7
M  V30 7 2 5 8
M  V30 8 1 6 9
M  V30 9 1 8 10
M  V30 10 2 9 11
M  V30 11 1 9 12
M  V30 12 1 10 13
M  V30 13 1 11 14
M  V30 14 1 11 15
M  V30 15 2 12 16
M  V30 16 2 13 17
M  V30 17 1 13 18
M  V30 18 2 14 19
M  V30 19 2 14 20
M  V30 20 1 14 21
M  V30 21 2 15 22
M  V30 22 1 17 23
M  V30 23 1 17 24
M  V30 24 2 18 25
M  V30 25 1 21 26
M  V30 26 1 21 27
M  V30 27 1 23 28
M  V30 28 2 24 29
M  V30 29 1 29 30
M  V30 30 1 30 31
M  V30 31 1 30 32
M  V30 32 1 31 33
M  V30 33 1 32 34
M  V30 34 1 33 35
M  V30 35 1 35 36
M  V30 36 1 36 37
M  V30 37 1 36 38
M  V30 38 1 37 39
M  V30 39 1 38 40
M  V30 40 1 39 41
M  V30 41 1 41 42
M  V30 42 1 7 8
M  V30 43 1 16 22
M  V30 44 1 25 29
M  V30 45 1 34 35
M  V30 46 1 40 41
M  V30 END BOND
M  V30 END CTAB
M  END
>  <Molecule Name>
Compound 161

>  <Molecule Name 2>
Compound 161

>  <Compound ID>
67

>  <Name>
TAE684

>  <Uniprot>
P50750

>  <Target>
CDK9

>  <Smiles>
COC1=CC(N2CCC(N3CCN(C)CC3)CC2)=CC=C1NC1=NC=C(Cl)C(NC2=CC=CC=C2S(=O)(=O)C(C)C)=N1

>  <Kd (nM)>
>10000

>  <Assay (Kd)>
Kd was assessed by competition binding assays

>  <Ki (nM)>


>  <Assay (Ki)>


>  <IC50 (nM)>


>  <Assay (IC50)>


>  <EC50 (nM)>


>  <Assay (EC50)>


>  <Article DOI>
10.1038/nbt.1990

>  <Molecular Weight>
614.216

>  <Exact Mass>
613.2601868

>  <XLogP3>
5.67

>  <Heavy Atom Count>
42

>  <Ring Count>
5

>  <Hydrogen Bond Acceptor Count>
10

>  <Hydrogen Bond Donor Count>
2

>  <Rotatable Bond Count>
9

>  <Topological Polar Surface Area>
102.93

>  <Molecular Formula>
C30H40ClN7O3S

>  <InChI>
InChI=1S/C30H40ClN7O3S/c1-21(2)42(39,40)28-8-6-5-7-26(28)33-29-24(31)20-32-30(35-29)34-25-10-9-23(19-27(25)41-4)37-13-11-22(12-14-37)38-17-15-36(3)16-18-38/h5-10,19-22H,11-18H2,1-4H3,(H2,32,33,34,35)

>  <InChI Key>
QQWUGDVOUVUTOY-UHFFFAOYSA-N

>  <BindingDB>
50242742

>  <PubChem>
16038120

>  <ChEMBL>
CHEMBL509032

$$$$
67
Actelion Java MolfileCreator 2.0

  0  0  0  0  0  0              0 V3000
M  V30 BEGIN CTAB
M  V30 COUNTS 42 46 0 0 0
M  V30 BEGIN ATOM
M  V30 1 Cl 0.0 3.75 0.0 0
M  V30 2 C 1.299 4.5 0.0 0
M  V30 3 C 2.598 3.75 0.0 0
M  V30 4 C 1.299 6.0 0.0 0
M  V30 5 N 3.8971 4.5 0.0 0
M  V30 6 N 2.598 2.25 0.0 0
M  V30 7 N 2.598 6.75 0.0 0
M  V30 8 C 3.8971 6.0 0.0 0
M  V30 9 C 3.8971 1.5 0.0 0
M  V30 10 N 5.1961 6.75 0.0 0
M  V30 11 C 3.8971 0.0 0.0 0
M  V30 12 C 5.1961 2.25 0.0 0
M  V30 13 C 5.1961 8.25 0.0 0
M  V30 14 S 2.598 -0.75 0.0 0
M  V30 15 C 5.1961 -0.75 0.0 0
M  V30 16 C 6.4951 1.5 0.0 0
M  V30 17 C 6.4951 9.0 0.0 0
M  V30 18 C 3.8971 9.0 0.0 0
M  V30 19 O 1.848 -2.049 0.0 0
M  V30 20 O 3.348 -2.049 0.0 0
M  V30 21 C 1.299 0.0 0.0 0
M  V30 22 C 6.4951 0.0 0.0 0
M  V30 23 O 7.7942 8.25 0.0 0
M  V30 24 C 6.4951 10.5 0.0 0
M  V30 25 C 3.8971 10.5 0.0 0
M  V30 26 C 1.299 1.5 0.0 0
M  V30 27 C 0.0 -0.75 0.0 0
M  V30 28 C 9.0932 9.0 0.0 0
M  V30 29 C 5.1961 11.25 0.0 0
M  V30 30 N 5.1961 12.75 0.0 0
M  V30 31 C 6.4951 13.5 0.0 0
M  V30 32 C 3.8971 13.5 0.0 0
M  V30 33 C 6.4951 15.0 0.0 0
M  V30 34 C 3.8971 15.0 0.0 0
M  V30 35 C 5.1961 15.75 0.0 0
M  V30 36 N 5.1961 17.25 0.0 0
M  V30 37 C 6.4951 18.0 0.0 0
M  V30 38 C 3.8971 18.0 0.0 0
M  V30 39 C 6.4951 19.5 0.0 0
M  V30 40 C 3.8971 19.5 0.0 0
M  V30 41 N 5.1961 20.25 0.0 0
M  V30 42 C 5.1961 21.75 0.0 0
M  V30 END ATOM
M  V30 BEGIN BOND
M  V30 1 1 1 2
M  V30 2 2 2 3
M  V30 3 1 2 4
M  V30 4 1 3 5
M  V30 5 1 3 6
M  V30 6 2 4 7
M  V30 7 2 5 8
M  V30 8 1 6 9
M  V30 9 1 8 10
M  V30 10 2 9 11
M  V30 11 1 9 12
M  V30 12 1 10 13
M  V30 13 1 11 14
M  V30 14 1 11 15
M  V30 15 2 12 16
M  V30 16 2 13 17
M  V30 17 1 13 18
M  V30 18 2 14 19
M  V30 19 2 14 20
M  V30 20 1 14 21
M  V30 21 2 15 22
M  V30 22 1 17 23
M  V30 23 1 17 24
M  V30 24 2 18 25
M  V30 25 1 21 26
M  V30 26 1 21 27
M  V30 27 1 23 28
M  V30 28 2 24 29
M  V30 29 1 29 30
M  V30 30 1 30 31
M  V30 31 1 30 32
M  V30 32 1 31 33
M  V30 33 1 32 34
M  V30 34 1 33 35
M  V30 35 1 35 36
M  V30 36 1 36 37
M  V30 37 1 36 38
M  V30 38 1 37 39
M  V30 39 1 38 40
M  V30 40 1 39 41
M  V30 41 1 41 42
M  V30 42 1 7 8
M  V30 43 1 16 22
M  V30 44 1 25 29
M  V30 45 1 34 35
M  V30 46 1 40 41
M  V30 END BOND
M  V30 END CTAB
M  END
>  <Molecule Name>
Compound 162

>  <Molecule Name 2>
Compound 162

>  <Compound ID>
67

>  <Name>
TAE684

>  <Uniprot>
O14757

>  <Target>
CHEK1

>  <Smiles>
COC1=CC(N2CCC(N3CCN(C)CC3)CC2)=CC=C1NC1=NC=C(Cl)C(NC2=CC=CC=C2S(=O)(=O)C(C)C)=N1

>  <Kd (nM)>
44

>  <Assay (Kd)>
Kd was assessed by competition binding assays

>  <Ki (nM)>


>  <Assay (Ki)>


>  <IC50 (nM)>


>  <Assay (IC50)>


>  <EC50 (nM)>


>  <Assay (EC50)>


>  <Article DOI>
10.1038/nbt.1990

>  <Molecular Weight>
614.216

>  <Exact Mass>
613.2601868

>  <XLogP3>
5.67

>  <Heavy Atom Count>
42

>  <Ring Count>
5

>  <Hydrogen Bond Acceptor Count>
10

>  <Hydrogen Bond Donor Count>
2

>  <Rotatable Bond Count>
9

>  <Topological Polar Surface Area>
102.93

>  <Molecular Formula>
C30H40ClN7O3S

>  <InChI>
InChI=1S/C30H40ClN7O3S/c1-21(2)42(39,40)28-8-6-5-7-26(28)33-29-24(31)20-32-30(35-29)34-25-10-9-23(19-27(25)41-4)37-13-11-22(12-14-37)38-17-15-36(3)16-18-38/h5-10,19-22H,11-18H2,1-4H3,(H2,32,33,34,35)

>  <InChI Key>
QQWUGDVOUVUTOY-UHFFFAOYSA-N

>  <BindingDB>
50242742

>  <PubChem>
16038120

>  <ChEMBL>
CHEMBL509032

$$$$
67
Actelion Java MolfileCreator 2.0

  0  0  0  0  0  0              0 V3000
M  V30 BEGIN CTAB
M  V30 COUNTS 42 46 0 0 0
M  V30 BEGIN ATOM
M  V30 1 Cl 0.0 3.75 0.0 0
M  V30 2 C 1.299 4.5 0.0 0
M  V30 3 C 2.598 3.75 0.0 0
M  V30 4 C 1.299 6.0 0.0 0
M  V30 5 N 3.8971 4.5 0.0 0
M  V30 6 N 2.598 2.25 0.0 0
M  V30 7 N 2.598 6.75 0.0 0
M  V30 8 C 3.8971 6.0 0.0 0
M  V30 9 C 3.8971 1.5 0.0 0
M  V30 10 N 5.1961 6.75 0.0 0
M  V30 11 C 3.8971 0.0 0.0 0
M  V30 12 C 5.1961 2.25 0.0 0
M  V30 13 C 5.1961 8.25 0.0 0
M  V30 14 S 2.598 -0.75 0.0 0
M  V30 15 C 5.1961 -0.75 0.0 0
M  V30 16 C 6.4951 1.5 0.0 0
M  V30 17 C 6.4951 9.0 0.0 0
M  V30 18 C 3.8971 9.0 0.0 0
M  V30 19 O 1.848 -2.049 0.0 0
M  V30 20 O 3.348 -2.049 0.0 0
M  V30 21 C 1.299 0.0 0.0 0
M  V30 22 C 6.4951 0.0 0.0 0
M  V30 23 O 7.7942 8.25 0.0 0
M  V30 24 C 6.4951 10.5 0.0 0
M  V30 25 C 3.8971 10.5 0.0 0
M  V30 26 C 1.299 1.5 0.0 0
M  V30 27 C 0.0 -0.75 0.0 0
M  V30 28 C 9.0932 9.0 0.0 0
M  V30 29 C 5.1961 11.25 0.0 0
M  V30 30 N 5.1961 12.75 0.0 0
M  V30 31 C 6.4951 13.5 0.0 0
M  V30 32 C 3.8971 13.5 0.0 0
M  V30 33 C 6.4951 15.0 0.0 0
M  V30 34 C 3.8971 15.0 0.0 0
M  V30 35 C 5.1961 15.75 0.0 0
M  V30 36 N 5.1961 17.25 0.0 0
M  V30 37 C 6.4951 18.0 0.0 0
M  V30 38 C 3.8971 18.0 0.0 0
M  V30 39 C 6.4951 19.5 0.0 0
M  V30 40 C 3.8971 19.5 0.0 0
M  V30 41 N 5.1961 20.25 0.0 0
M  V30 42 C 5.1961 21.75 0.0 0
M  V30 END ATOM
M  V30 BEGIN BOND
M  V30 1 1 1 2
M  V30 2 2 2 3
M  V30 3 1 2 4
M  V30 4 1 3 5
M  V30 5 1 3 6
M  V30 6 2 4 7
M  V30 7 2 5 8
M  V30 8 1 6 9
M  V30 9 1 8 10
M  V30 10 2 9 11
M  V30 11 1 9 12
M  V30 12 1 10 13
M  V30 13 1 11 14
M  V30 14 1 11 15
M  V30 15 2 12 16
M  V30 16 2 13 17
M  V30 17 1 13 18
M  V30 18 2 14 19
M  V30 19 2 14 20
M  V30 20 1 14 21
M  V30 21 2 15 22
M  V30 22 1 17 23
M  V30 23 1 17 24
M  V30 24 2 18 25
M  V30 25 1 21 26
M  V30 26 1 21 27
M  V30 27 1 23 28
M  V30 28 2 24 29
M  V30 29 1 29 30
M  V30 30 1 30 31
M  V30 31 1 30 32
M  V30 32 1 31 33
M  V30 33 1 32 34
M  V30 34 1 33 35
M  V30 35 1 35 36
M  V30 36 1 36 37
M  V30 37 1 36 38
M  V30 38 1 37 39
M  V30 39 1 38 40
M  V30 40 1 39 41
M  V30 41 1 41 42
M  V30 42 1 7 8
M  V30 43 1 16 22
M  V30 44 1 25 29
M  V30 45 1 34 35
M  V30 46 1 40 41
M  V30 END BOND
M  V30 END CTAB
M  END
>  <Molecule Name>
Compound 163

>  <Molecule Name 2>
Compound 163

>  <Compound ID>
67

>  <Name>
TAE684

>  <Uniprot>
Q8NI60

>  <Target>
COQ8A

>  <Smiles>
COC1=CC(N2CCC(N3CCN(C)CC3)CC2)=CC=C1NC1=NC=C(Cl)C(NC2=CC=CC=C2S(=O)(=O)C(C)C)=N1

>  <Kd (nM)>
1700

>  <Assay (Kd)>
Kd was assessed by competition binding assays

>  <Ki (nM)>


>  <Assay (Ki)>


>  <IC50 (nM)>


>  <Assay (IC50)>


>  <EC50 (nM)>


>  <Assay (EC50)>


>  <Article DOI>
10.1038/nbt.1990

>  <Molecular Weight>
614.216

>  <Exact Mass>
613.2601868

>  <XLogP3>
5.67

>  <Heavy Atom Count>
42

>  <Ring Count>
5

>  <Hydrogen Bond Acceptor Count>
10

>  <Hydrogen Bond Donor Count>
2

>  <Rotatable Bond Count>
9

>  <Topological Polar Surface Area>
102.93

>  <Molecular Formula>
C30H40ClN7O3S

>  <InChI>
InChI=1S/C30H40ClN7O3S/c1-21(2)42(39,40)28-8-6-5-7-26(28)33-29-24(31)20-32-30(35-29)34-25-10-9-23(19-27(25)41-4)37-13-11-22(12-14-37)38-17-15-36(3)16-18-38/h5-10,19-22H,11-18H2,1-4H3,(H2,32,33,34,35)

>  <InChI Key>
QQWUGDVOUVUTOY-UHFFFAOYSA-N

>  <BindingDB>
50242742

>  <PubChem>
16038120

>  <ChEMBL>
CHEMBL509032

$$$$
67
Actelion Java MolfileCreator 2.0

  0  0  0  0  0  0              0 V3000
M  V30 BEGIN CTAB
M  V30 COUNTS 42 46 0 0 0
M  V30 BEGIN ATOM
M  V30 1 Cl 0.0 3.75 0.0 0
M  V30 2 C 1.299 4.5 0.0 0
M  V30 3 C 2.598 3.75 0.0 0
M  V30 4 C 1.299 6.0 0.0 0
M  V30 5 N 3.8971 4.5 0.0 0
M  V30 6 N 2.598 2.25 0.0 0
M  V30 7 N 2.598 6.75 0.0 0
M  V30 8 C 3.8971 6.0 0.0 0
M  V30 9 C 3.8971 1.5 0.0 0
M  V30 10 N 5.1961 6.75 0.0 0
M  V30 11 C 3.8971 0.0 0.0 0
M  V30 12 C 5.1961 2.25 0.0 0
M  V30 13 C 5.1961 8.25 0.0 0
M  V30 14 S 2.598 -0.75 0.0 0
M  V30 15 C 5.1961 -0.75 0.0 0
M  V30 16 C 6.4951 1.5 0.0 0
M  V30 17 C 6.4951 9.0 0.0 0
M  V30 18 C 3.8971 9.0 0.0 0
M  V30 19 O 1.848 -2.049 0.0 0
M  V30 20 O 3.348 -2.049 0.0 0
M  V30 21 C 1.299 0.0 0.0 0
M  V30 22 C 6.4951 0.0 0.0 0
M  V30 23 O 7.7942 8.25 0.0 0
M  V30 24 C 6.4951 10.5 0.0 0
M  V30 25 C 3.8971 10.5 0.0 0
M  V30 26 C 1.299 1.5 0.0 0
M  V30 27 C 0.0 -0.75 0.0 0
M  V30 28 C 9.0932 9.0 0.0 0
M  V30 29 C 5.1961 11.25 0.0 0
M  V30 30 N 5.1961 12.75 0.0 0
M  V30 31 C 6.4951 13.5 0.0 0
M  V30 32 C 3.8971 13.5 0.0 0
M  V30 33 C 6.4951 15.0 0.0 0
M  V30 34 C 3.8971 15.0 0.0 0
M  V30 35 C 5.1961 15.75 0.0 0
M  V30 36 N 5.1961 17.25 0.0 0
M  V30 37 C 6.4951 18.0 0.0 0
M  V30 38 C 3.8971 18.0 0.0 0
M  V30 39 C 6.4951 19.5 0.0 0
M  V30 40 C 3.8971 19.5 0.0 0
M  V30 41 N 5.1961 20.25 0.0 0
M  V30 42 C 5.1961 21.75 0.0 0
M  V30 END ATOM
M  V30 BEGIN BOND
M  V30 1 1 1 2
M  V30 2 2 2 3
M  V30 3 1 2 4
M  V30 4 1 3 5
M  V30 5 1 3 6
M  V30 6 2 4 7
M  V30 7 2 5 8
M  V30 8 1 6 9
M  V30 9 1 8 10
M  V30 10 2 9 11
M  V30 11 1 9 12
M  V30 12 1 10 13
M  V30 13 1 11 14
M  V30 14 1 11 15
M  V30 15 2 12 16
M  V30 16 2 13 17
M  V30 17 1 13 18
M  V30 18 2 14 19
M  V30 19 2 14 20
M  V30 20 1 14 21
M  V30 21 2 15 22
M  V30 22 1 17 23
M  V30 23 1 17 24
M  V30 24 2 18 25
M  V30 25 1 21 26
M  V30 26 1 21 27
M  V30 27 1 23 28
M  V30 28 2 24 29
M  V30 29 1 29 30
M  V30 30 1 30 31
M  V30 31 1 30 32
M  V30 32 1 31 33
M  V30 33 1 32 34
M  V30 34 1 33 35
M  V30 35 1 35 36
M  V30 36 1 36 37
M  V30 37 1 36 38
M  V30 38 1 37 39
M  V30 39 1 38 40
M  V30 40 1 39 41
M  V30 41 1 41 42
M  V30 42 1 7 8
M  V30 43 1 16 22
M  V30 44 1 25 29
M  V30 45 1 34 35
M  V30 46 1 40 41
M  V30 END BOND
M  V30 END CTAB
M  END
>  <Molecule Name>
Compound 164

>  <Molecule Name 2>
Compound 164

>  <Compound ID>
67

>  <Name>
TAE684

>  <Uniprot>
Q96D53

>  <Target>
COQ8B

>  <Smiles>
COC1=CC(N2CCC(N3CCN(C)CC3)CC2)=CC=C1NC1=NC=C(Cl)C(NC2=CC=CC=C2S(=O)(=O)C(C)C)=N1

>  <Kd (nM)>
92

>  <Assay (Kd)>
Kd was assessed by competition binding assays

>  <Ki (nM)>


>  <Assay (Ki)>


>  <IC50 (nM)>


>  <Assay (IC50)>


>  <EC50 (nM)>


>  <Assay (EC50)>


>  <Article DOI>
10.1038/nbt.1990

>  <Molecular Weight>
614.216

>  <Exact Mass>
613.2601868

>  <XLogP3>
5.67

>  <Heavy Atom Count>
42

>  <Ring Count>
5

>  <Hydrogen Bond Acceptor Count>
10

>  <Hydrogen Bond Donor Count>
2

>  <Rotatable Bond Count>
9

>  <Topological Polar Surface Area>
102.93

>  <Molecular Formula>
C30H40ClN7O3S

>  <InChI>
InChI=1S/C30H40ClN7O3S/c1-21(2)42(39,40)28-8-6-5-7-26(28)33-29-24(31)20-32-30(35-29)34-25-10-9-23(19-27(25)41-4)37-13-11-22(12-14-37)38-17-15-36(3)16-18-38/h5-10,19-22H,11-18H2,1-4H3,(H2,32,33,34,35)

>  <InChI Key>
QQWUGDVOUVUTOY-UHFFFAOYSA-N

>  <BindingDB>
50242742

>  <PubChem>
16038120

>  <ChEMBL>
CHEMBL509032

$$$$
67
Actelion Java MolfileCreator 2.0

  0  0  0  0  0  0              0 V3000
M  V30 BEGIN CTAB
M  V30 COUNTS 42 46 0 0 0
M  V30 BEGIN ATOM
M  V30 1 Cl 0.0 3.75 0.0 0
M  V30 2 C 1.299 4.5 0.0 0
M  V30 3 C 2.598 3.75 0.0 0
M  V30 4 C 1.299 6.0 0.0 0
M  V30 5 N 3.8971 4.5 0.0 0
M  V30 6 N 2.598 2.25 0.0 0
M  V30 7 N 2.598 6.75 0.0 0
M  V30 8 C 3.8971 6.0 0.0 0
M  V30 9 C 3.8971 1.5 0.0 0
M  V30 10 N 5.1961 6.75 0.0 0
M  V30 11 C 3.8971 0.0 0.0 0
M  V30 12 C 5.1961 2.25 0.0 0
M  V30 13 C 5.1961 8.25 0.0 0
M  V30 14 S 2.598 -0.75 0.0 0
M  V30 15 C 5.1961 -0.75 0.0 0
M  V30 16 C 6.4951 1.5 0.0 0
M  V30 17 C 6.4951 9.0 0.0 0
M  V30 18 C 3.8971 9.0 0.0 0
M  V30 19 O 1.848 -2.049 0.0 0
M  V30 20 O 3.348 -2.049 0.0 0
M  V30 21 C 1.299 0.0 0.0 0
M  V30 22 C 6.4951 0.0 0.0 0
M  V30 23 O 7.7942 8.25 0.0 0
M  V30 24 C 6.4951 10.5 0.0 0
M  V30 25 C 3.8971 10.5 0.0 0
M  V30 26 C 1.299 1.5 0.0 0
M  V30 27 C 0.0 -0.75 0.0 0
M  V30 28 C 9.0932 9.0 0.0 0
M  V30 29 C 5.1961 11.25 0.0 0
M  V30 30 N 5.1961 12.75 0.0 0
M  V30 31 C 6.4951 13.5 0.0 0
M  V30 32 C 3.8971 13.5 0.0 0
M  V30 33 C 6.4951 15.0 0.0 0
M  V30 34 C 3.8971 15.0 0.0 0
M  V30 35 C 5.1961 15.75 0.0 0
M  V30 36 N 5.1961 17.25 0.0 0
M  V30 37 C 6.4951 18.0 0.0 0
M  V30 38 C 3.8971 18.0 0.0 0
M  V30 39 C 6.4951 19.5 0.0 0
M  V30 40 C 3.8971 19.5 0.0 0
M  V30 41 N 5.1961 20.25 0.0 0
M  V30 42 C 5.1961 21.75 0.0 0
M  V30 END ATOM
M  V30 BEGIN BOND
M  V30 1 1 1 2
M  V30 2 2 2 3
M  V30 3 1 2 4
M  V30 4 1 3 5
M  V30 5 1 3 6
M  V30 6 2 4 7
M  V30 7 2 5 8
M  V30 8 1 6 9
M  V30 9 1 8 10
M  V30 10 2 9 11
M  V30 11 1 9 12
M  V30 12 1 10 13
M  V30 13 1 11 14
M  V30 14 1 11 15
M  V30 15 2 12 16
M  V30 16 2 13 17
M  V30 17 1 13 18
M  V30 18 2 14 19
M  V30 19 2 14 20
M  V30 20 1 14 21
M  V30 21 2 15 22
M  V30 22 1 17 23
M  V30 23 1 17 24
M  V30 24 2 18 25
M  V30 25 1 21 26
M  V30 26 1 21 27
M  V30 27 1 23 28
M  V30 28 2 24 29
M  V30 29 1 29 30
M  V30 30 1 30 31
M  V30 31 1 30 32
M  V30 32 1 31 33
M  V30 33 1 32 34
M  V30 34 1 33 35
M  V30 35 1 35 36
M  V30 36 1 36 37
M  V30 37 1 36 38
M  V30 38 1 37 39
M  V30 39 1 38 40
M  V30 40 1 39 41
M  V30 41 1 41 42
M  V30 42 1 7 8
M  V30 43 1 16 22
M  V30 44 1 25 29
M  V30 45 1 34 35
M  V30 46 1 40 41
M  V30 END BOND
M  V30 END CTAB
M  END
>  <Molecule Name>
Compound 165

>  <Molecule Name 2>
Compound 165

>  <Compound ID>
67

>  <Name>
TAE684

>  <Uniprot>
P41240

>  <Target>
CSK

>  <Smiles>
COC1=CC(N2CCC(N3CCN(C)CC3)CC2)=CC=C1NC1=NC=C(Cl)C(NC2=CC=CC=C2S(=O)(=O)C(C)C)=N1

>  <Kd (nM)>
1800

>  <Assay (Kd)>
Kd was assessed by competition binding assays

>  <Ki (nM)>


>  <Assay (Ki)>


>  <IC50 (nM)>


>  <Assay (IC50)>


>  <EC50 (nM)>


>  <Assay (EC50)>


>  <Article DOI>
10.1038/nbt.1990

>  <Molecular Weight>
614.216

>  <Exact Mass>
613.2601868

>  <XLogP3>
5.67

>  <Heavy Atom Count>
42

>  <Ring Count>
5

>  <Hydrogen Bond Acceptor Count>
10

>  <Hydrogen Bond Donor Count>
2

>  <Rotatable Bond Count>
9

>  <Topological Polar Surface Area>
102.93

>  <Molecular Formula>
C30H40ClN7O3S

>  <InChI>
InChI=1S/C30H40ClN7O3S/c1-21(2)42(39,40)28-8-6-5-7-26(28)33-29-24(31)20-32-30(35-29)34-25-10-9-23(19-27(25)41-4)37-13-11-22(12-14-37)38-17-15-36(3)16-18-38/h5-10,19-22H,11-18H2,1-4H3,(H2,32,33,34,35)

>  <InChI Key>
QQWUGDVOUVUTOY-UHFFFAOYSA-N

>  <BindingDB>
50242742

>  <PubChem>
16038120

>  <ChEMBL>
CHEMBL509032

$$$$
67
Actelion Java MolfileCreator 2.0

  0  0  0  0  0  0              0 V3000
M  V30 BEGIN CTAB
M  V30 COUNTS 42 46 0 0 0
M  V30 BEGIN ATOM
M  V30 1 Cl 0.0 3.75 0.0 0
M  V30 2 C 1.299 4.5 0.0 0
M  V30 3 C 2.598 3.75 0.0 0
M  V30 4 C 1.299 6.0 0.0 0
M  V30 5 N 3.8971 4.5 0.0 0
M  V30 6 N 2.598 2.25 0.0 0
M  V30 7 N 2.598 6.75 0.0 0
M  V30 8 C 3.8971 6.0 0.0 0
M  V30 9 C 3.8971 1.5 0.0 0
M  V30 10 N 5.1961 6.75 0.0 0
M  V30 11 C 3.8971 0.0 0.0 0
M  V30 12 C 5.1961 2.25 0.0 0
M  V30 13 C 5.1961 8.25 0.0 0
M  V30 14 S 2.598 -0.75 0.0 0
M  V30 15 C 5.1961 -0.75 0.0 0
M  V30 16 C 6.4951 1.5 0.0 0
M  V30 17 C 6.4951 9.0 0.0 0
M  V30 18 C 3.8971 9.0 0.0 0
M  V30 19 O 1.848 -2.049 0.0 0
M  V30 20 O 3.348 -2.049 0.0 0
M  V30 21 C 1.299 0.0 0.0 0
M  V30 22 C 6.4951 0.0 0.0 0
M  V30 23 O 7.7942 8.25 0.0 0
M  V30 24 C 6.4951 10.5 0.0 0
M  V30 25 C 3.8971 10.5 0.0 0
M  V30 26 C 1.299 1.5 0.0 0
M  V30 27 C 0.0 -0.75 0.0 0
M  V30 28 C 9.0932 9.0 0.0 0
M  V30 29 C 5.1961 11.25 0.0 0
M  V30 30 N 5.1961 12.75 0.0 0
M  V30 31 C 6.4951 13.5 0.0 0
M  V30 32 C 3.8971 13.5 0.0 0
M  V30 33 C 6.4951 15.0 0.0 0
M  V30 34 C 3.8971 15.0 0.0 0
M  V30 35 C 5.1961 15.75 0.0 0
M  V30 36 N 5.1961 17.25 0.0 0
M  V30 37 C 6.4951 18.0 0.0 0
M  V30 38 C 3.8971 18.0 0.0 0
M  V30 39 C 6.4951 19.5 0.0 0
M  V30 40 C 3.8971 19.5 0.0 0
M  V30 41 N 5.1961 20.25 0.0 0
M  V30 42 C 5.1961 21.75 0.0 0
M  V30 END ATOM
M  V30 BEGIN BOND
M  V30 1 1 1 2
M  V30 2 2 2 3
M  V30 3 1 2 4
M  V30 4 1 3 5
M  V30 5 1 3 6
M  V30 6 2 4 7
M  V30 7 2 5 8
M  V30 8 1 6 9
M  V30 9 1 8 10
M  V30 10 2 9 11
M  V30 11 1 9 12
M  V30 12 1 10 13
M  V30 13 1 11 14
M  V30 14 1 11 15
M  V30 15 2 12 16
M  V30 16 2 13 17
M  V30 17 1 13 18
M  V30 18 2 14 19
M  V30 19 2 14 20
M  V30 20 1 14 21
M  V30 21 2 15 22
M  V30 22 1 17 23
M  V30 23 1 17 24
M  V30 24 2 18 25
M  V30 25 1 21 26
M  V30 26 1 21 27
M  V30 27 1 23 28
M  V30 28 2 24 29
M  V30 29 1 29 30
M  V30 30 1 30 31
M  V30 31 1 30 32
M  V30 32 1 31 33
M  V30 33 1 32 34
M  V30 34 1 33 35
M  V30 35 1 35 36
M  V30 36 1 36 37
M  V30 37 1 36 38
M  V30 38 1 37 39
M  V30 39 1 38 40
M  V30 40 1 39 41
M  V30 41 1 41 42
M  V30 42 1 7 8
M  V30 43 1 16 22
M  V30 44 1 25 29
M  V30 45 1 34 35
M  V30 46 1 40 41
M  V30 END BOND
M  V30 END CTAB
M  END
>  <Molecule Name>
Compound 166

>  <Molecule Name 2>
Compound 166

>  <Compound ID>
67

>  <Name>
TAE684

>  <Uniprot>
P48730

>  <Target>
CSNK1D

>  <Smiles>
COC1=CC(N2CCC(N3CCN(C)CC3)CC2)=CC=C1NC1=NC=C(Cl)C(NC2=CC=CC=C2S(=O)(=O)C(C)C)=N1

>  <Kd (nM)>
>10000

>  <Assay (Kd)>
Kd was assessed by competition binding assays

>  <Ki (nM)>


>  <Assay (Ki)>


>  <IC50 (nM)>


>  <Assay (IC50)>


>  <EC50 (nM)>


>  <Assay (EC50)>


>  <Article DOI>
10.1038/nbt.1990

>  <Molecular Weight>
614.216

>  <Exact Mass>
613.2601868

>  <XLogP3>
5.67

>  <Heavy Atom Count>
42

>  <Ring Count>
5

>  <Hydrogen Bond Acceptor Count>
10

>  <Hydrogen Bond Donor Count>
2

>  <Rotatable Bond Count>
9

>  <Topological Polar Surface Area>
102.93

>  <Molecular Formula>
C30H40ClN7O3S

>  <InChI>
InChI=1S/C30H40ClN7O3S/c1-21(2)42(39,40)28-8-6-5-7-26(28)33-29-24(31)20-32-30(35-29)34-25-10-9-23(19-27(25)41-4)37-13-11-22(12-14-37)38-17-15-36(3)16-18-38/h5-10,19-22H,11-18H2,1-4H3,(H2,32,33,34,35)

>  <InChI Key>
QQWUGDVOUVUTOY-UHFFFAOYSA-N

>  <BindingDB>
50242742

>  <PubChem>
16038120

>  <ChEMBL>
CHEMBL509032

$$$$
67
Actelion Java MolfileCreator 2.0

  0  0  0  0  0  0              0 V3000
M  V30 BEGIN CTAB
M  V30 COUNTS 42 46 0 0 0
M  V30 BEGIN ATOM
M  V30 1 Cl 0.0 3.75 0.0 0
M  V30 2 C 1.299 4.5 0.0 0
M  V30 3 C 2.598 3.75 0.0 0
M  V30 4 C 1.299 6.0 0.0 0
M  V30 5 N 3.8971 4.5 0.0 0
M  V30 6 N 2.598 2.25 0.0 0
M  V30 7 N 2.598 6.75 0.0 0
M  V30 8 C 3.8971 6.0 0.0 0
M  V30 9 C 3.8971 1.5 0.0 0
M  V30 10 N 5.1961 6.75 0.0 0
M  V30 11 C 3.8971 0.0 0.0 0
M  V30 12 C 5.1961 2.25 0.0 0
M  V30 13 C 5.1961 8.25 0.0 0
M  V30 14 S 2.598 -0.75 0.0 0
M  V30 15 C 5.1961 -0.75 0.0 0
M  V30 16 C 6.4951 1.5 0.0 0
M  V30 17 C 6.4951 9.0 0.0 0
M  V30 18 C 3.8971 9.0 0.0 0
M  V30 19 O 1.848 -2.049 0.0 0
M  V30 20 O 3.348 -2.049 0.0 0
M  V30 21 C 1.299 0.0 0.0 0
M  V30 22 C 6.4951 0.0 0.0 0
M  V30 23 O 7.7942 8.25 0.0 0
M  V30 24 C 6.4951 10.5 0.0 0
M  V30 25 C 3.8971 10.5 0.0 0
M  V30 26 C 1.299 1.5 0.0 0
M  V30 27 C 0.0 -0.75 0.0 0
M  V30 28 C 9.0932 9.0 0.0 0
M  V30 29 C 5.1961 11.25 0.0 0
M  V30 30 N 5.1961 12.75 0.0 0
M  V30 31 C 6.4951 13.5 0.0 0
M  V30 32 C 3.8971 13.5 0.0 0
M  V30 33 C 6.4951 15.0 0.0 0
M  V30 34 C 3.8971 15.0 0.0 0
M  V30 35 C 5.1961 15.75 0.0 0
M  V30 36 N 5.1961 17.25 0.0 0
M  V30 37 C 6.4951 18.0 0.0 0
M  V30 38 C 3.8971 18.0 0.0 0
M  V30 39 C 6.4951 19.5 0.0 0
M  V30 40 C 3.8971 19.5 0.0 0
M  V30 41 N 5.1961 20.25 0.0 0
M  V30 42 C 5.1961 21.75 0.0 0
M  V30 END ATOM
M  V30 BEGIN BOND
M  V30 1 1 1 2
M  V30 2 2 2 3
M  V30 3 1 2 4
M  V30 4 1 3 5
M  V30 5 1 3 6
M  V30 6 2 4 7
M  V30 7 2 5 8
M  V30 8 1 6 9
M  V30 9 1 8 10
M  V30 10 2 9 11
M  V30 11 1 9 12
M  V30 12 1 10 13
M  V30 13 1 11 14
M  V30 14 1 11 15
M  V30 15 2 12 16
M  V30 16 2 13 17
M  V30 17 1 13 18
M  V30 18 2 14 19
M  V30 19 2 14 20
M  V30 20 1 14 21
M  V30 21 2 15 22
M  V30 22 1 17 23
M  V30 23 1 17 24
M  V30 24 2 18 25
M  V30 25 1 21 26
M  V30 26 1 21 27
M  V30 27 1 23 28
M  V30 28 2 24 29
M  V30 29 1 29 30
M  V30 30 1 30 31
M  V30 31 1 30 32
M  V30 32 1 31 33
M  V30 33 1 32 34
M  V30 34 1 33 35
M  V30 35 1 35 36
M  V30 36 1 36 37
M  V30 37 1 36 38
M  V30 38 1 37 39
M  V30 39 1 38 40
M  V30 40 1 39 41
M  V30 41 1 41 42
M  V30 42 1 7 8
M  V30 43 1 16 22
M  V30 44 1 25 29
M  V30 45 1 34 35
M  V30 46 1 40 41
M  V30 END BOND
M  V30 END CTAB
M  END
>  <Molecule Name>
Compound 167

>  <Molecule Name 2>
Compound 167

>  <Compound ID>
67

>  <Name>
TAE684

>  <Uniprot>
P49674

>  <Target>
CSNK1E

>  <Smiles>
COC1=CC(N2CCC(N3CCN(C)CC3)CC2)=CC=C1NC1=NC=C(Cl)C(NC2=CC=CC=C2S(=O)(=O)C(C)C)=N1

>  <Kd (nM)>
>10000

>  <Assay (Kd)>
Kd was assessed by competition binding assays

>  <Ki (nM)>


>  <Assay (Ki)>


>  <IC50 (nM)>


>  <Assay (IC50)>


>  <EC50 (nM)>


>  <Assay (EC50)>


>  <Article DOI>
10.1038/nbt.1990

>  <Molecular Weight>
614.216

>  <Exact Mass>
613.2601868

>  <XLogP3>
5.67

>  <Heavy Atom Count>
42

>  <Ring Count>
5

>  <Hydrogen Bond Acceptor Count>
10

>  <Hydrogen Bond Donor Count>
2

>  <Rotatable Bond Count>
9

>  <Topological Polar Surface Area>
102.93

>  <Molecular Formula>
C30H40ClN7O3S

>  <InChI>
InChI=1S/C30H40ClN7O3S/c1-21(2)42(39,40)28-8-6-5-7-26(28)33-29-24(31)20-32-30(35-29)34-25-10-9-23(19-27(25)41-4)37-13-11-22(12-14-37)38-17-15-36(3)16-18-38/h5-10,19-22H,11-18H2,1-4H3,(H2,32,33,34,35)

>  <InChI Key>
QQWUGDVOUVUTOY-UHFFFAOYSA-N

>  <BindingDB>
50242742

>  <PubChem>
16038120

>  <ChEMBL>
CHEMBL509032

$$$$
67
Actelion Java MolfileCreator 2.0

  0  0  0  0  0  0              0 V3000
M  V30 BEGIN CTAB
M  V30 COUNTS 42 46 0 0 0
M  V30 BEGIN ATOM
M  V30 1 Cl 0.0 3.75 0.0 0
M  V30 2 C 1.299 4.5 0.0 0
M  V30 3 C 2.598 3.75 0.0 0
M  V30 4 C 1.299 6.0 0.0 0
M  V30 5 N 3.8971 4.5 0.0 0
M  V30 6 N 2.598 2.25 0.0 0
M  V30 7 N 2.598 6.75 0.0 0
M  V30 8 C 3.8971 6.0 0.0 0
M  V30 9 C 3.8971 1.5 0.0 0
M  V30 10 N 5.1961 6.75 0.0 0
M  V30 11 C 3.8971 0.0 0.0 0
M  V30 12 C 5.1961 2.25 0.0 0
M  V30 13 C 5.1961 8.25 0.0 0
M  V30 14 S 2.598 -0.75 0.0 0
M  V30 15 C 5.1961 -0.75 0.0 0
M  V30 16 C 6.4951 1.5 0.0 0
M  V30 17 C 6.4951 9.0 0.0 0
M  V30 18 C 3.8971 9.0 0.0 0
M  V30 19 O 1.848 -2.049 0.0 0
M  V30 20 O 3.348 -2.049 0.0 0
M  V30 21 C 1.299 0.0 0.0 0
M  V30 22 C 6.4951 0.0 0.0 0
M  V30 23 O 7.7942 8.25 0.0 0
M  V30 24 C 6.4951 10.5 0.0 0
M  V30 25 C 3.8971 10.5 0.0 0
M  V30 26 C 1.299 1.5 0.0 0
M  V30 27 C 0.0 -0.75 0.0 0
M  V30 28 C 9.0932 9.0 0.0 0
M  V30 29 C 5.1961 11.25 0.0 0
M  V30 30 N 5.1961 12.75 0.0 0
M  V30 31 C 6.4951 13.5 0.0 0
M  V30 32 C 3.8971 13.5 0.0 0
M  V30 33 C 6.4951 15.0 0.0 0
M  V30 34 C 3.8971 15.0 0.0 0
M  V30 35 C 5.1961 15.75 0.0 0
M  V30 36 N 5.1961 17.25 0.0 0
M  V30 37 C 6.4951 18.0 0.0 0
M  V30 38 C 3.8971 18.0 0.0 0
M  V30 39 C 6.4951 19.5 0.0 0
M  V30 40 C 3.8971 19.5 0.0 0
M  V30 41 N 5.1961 20.25 0.0 0
M  V30 42 C 5.1961 21.75 0.0 0
M  V30 END ATOM
M  V30 BEGIN BOND
M  V30 1 1 1 2
M  V30 2 2 2 3
M  V30 3 1 2 4
M  V30 4 1 3 5
M  V30 5 1 3 6
M  V30 6 2 4 7
M  V30 7 2 5 8
M  V30 8 1 6 9
M  V30 9 1 8 10
M  V30 10 2 9 11
M  V30 11 1 9 12
M  V30 12 1 10 13
M  V30 13 1 11 14
M  V30 14 1 11 15
M  V30 15 2 12 16
M  V30 16 2 13 17
M  V30 17 1 13 18
M  V30 18 2 14 19
M  V30 19 2 14 20
M  V30 20 1 14 21
M  V30 21 2 15 22
M  V30 22 1 17 23
M  V30 23 1 17 24
M  V30 24 2 18 25
M  V30 25 1 21 26
M  V30 26 1 21 27
M  V30 27 1 23 28
M  V30 28 2 24 29
M  V30 29 1 29 30
M  V30 30 1 30 31
M  V30 31 1 30 32
M  V30 32 1 31 33
M  V30 33 1 32 34
M  V30 34 1 33 35
M  V30 35 1 35 36
M  V30 36 1 36 37
M  V30 37 1 36 38
M  V30 38 1 37 39
M  V30 39 1 38 40
M  V30 40 1 39 41
M  V30 41 1 41 42
M  V30 42 1 7 8
M  V30 43 1 16 22
M  V30 44 1 25 29
M  V30 45 1 34 35
M  V30 46 1 40 41
M  V30 END BOND
M  V30 END CTAB
M  END
>  <Molecule Name>
Compound 168

>  <Molecule Name 2>
Compound 168

>  <Compound ID>
67

>  <Name>
TAE684

>  <Uniprot>
O00418

>  <Target>
EEF2K

>  <Smiles>
COC1=CC(N2CCC(N3CCN(C)CC3)CC2)=CC=C1NC1=NC=C(Cl)C(NC2=CC=CC=C2S(=O)(=O)C(C)C)=N1

>  <Kd (nM)>


>  <Assay (Kd)>


>  <Ki (nM)>


>  <Assay (Ki)>


>  <IC50 (nM)>


>  <Assay (IC50)>


>  <EC50 (nM)>


>  <Assay (EC50)>


>  <Article DOI>
10.1016/j.cell.2020.10.038

>  <Molecular Weight>
614.216

>  <Exact Mass>
613.2601868

>  <XLogP3>
5.67

>  <Heavy Atom Count>
42

>  <Ring Count>
5

>  <Hydrogen Bond Acceptor Count>
10

>  <Hydrogen Bond Donor Count>
2

>  <Rotatable Bond Count>
9

>  <Topological Polar Surface Area>
102.93

>  <Molecular Formula>
C30H40ClN7O3S

>  <InChI>
InChI=1S/C30H40ClN7O3S/c1-21(2)42(39,40)28-8-6-5-7-26(28)33-29-24(31)20-32-30(35-29)34-25-10-9-23(19-27(25)41-4)37-13-11-22(12-14-37)38-17-15-36(3)16-18-38/h5-10,19-22H,11-18H2,1-4H3,(H2,32,33,34,35)

>  <InChI Key>
QQWUGDVOUVUTOY-UHFFFAOYSA-N

>  <BindingDB>
50242742

>  <PubChem>
16038120

>  <ChEMBL>
CHEMBL509032

$$$$
67
Actelion Java MolfileCreator 2.0

  0  0  0  0  0  0              0 V3000
M  V30 BEGIN CTAB
M  V30 COUNTS 42 46 0 0 0
M  V30 BEGIN ATOM
M  V30 1 Cl 0.0 3.75 0.0 0
M  V30 2 C 1.299 4.5 0.0 0
M  V30 3 C 2.598 3.75 0.0 0
M  V30 4 C 1.299 6.0 0.0 0
M  V30 5 N 3.8971 4.5 0.0 0
M  V30 6 N 2.598 2.25 0.0 0
M  V30 7 N 2.598 6.75 0.0 0
M  V30 8 C 3.8971 6.0 0.0 0
M  V30 9 C 3.8971 1.5 0.0 0
M  V30 10 N 5.1961 6.75 0.0 0
M  V30 11 C 3.8971 0.0 0.0 0
M  V30 12 C 5.1961 2.25 0.0 0
M  V30 13 C 5.1961 8.25 0.0 0
M  V30 14 S 2.598 -0.75 0.0 0
M  V30 15 C 5.1961 -0.75 0.0 0
M  V30 16 C 6.4951 1.5 0.0 0
M  V30 17 C 6.4951 9.0 0.0 0
M  V30 18 C 3.8971 9.0 0.0 0
M  V30 19 O 1.848 -2.049 0.0 0
M  V30 20 O 3.348 -2.049 0.0 0
M  V30 21 C 1.299 0.0 0.0 0
M  V30 22 C 6.4951 0.0 0.0 0
M  V30 23 O 7.7942 8.25 0.0 0
M  V30 24 C 6.4951 10.5 0.0 0
M  V30 25 C 3.8971 10.5 0.0 0
M  V30 26 C 1.299 1.5 0.0 0
M  V30 27 C 0.0 -0.75 0.0 0
M  V30 28 C 9.0932 9.0 0.0 0
M  V30 29 C 5.1961 11.25 0.0 0
M  V30 30 N 5.1961 12.75 0.0 0
M  V30 31 C 6.4951 13.5 0.0 0
M  V30 32 C 3.8971 13.5 0.0 0
M  V30 33 C 6.4951 15.0 0.0 0
M  V30 34 C 3.8971 15.0 0.0 0
M  V30 35 C 5.1961 15.75 0.0 0
M  V30 36 N 5.1961 17.25 0.0 0
M  V30 37 C 6.4951 18.0 0.0 0
M  V30 38 C 3.8971 18.0 0.0 0
M  V30 39 C 6.4951 19.5 0.0 0
M  V30 40 C 3.8971 19.5 0.0 0
M  V30 41 N 5.1961 20.25 0.0 0
M  V30 42 C 5.1961 21.75 0.0 0
M  V30 END ATOM
M  V30 BEGIN BOND
M  V30 1 1 1 2
M  V30 2 2 2 3
M  V30 3 1 2 4
M  V30 4 1 3 5
M  V30 5 1 3 6
M  V30 6 2 4 7
M  V30 7 2 5 8
M  V30 8 1 6 9
M  V30 9 1 8 10
M  V30 10 2 9 11
M  V30 11 1 9 12
M  V30 12 1 10 13
M  V30 13 1 11 14
M  V30 14 1 11 15
M  V30 15 2 12 16
M  V30 16 2 13 17
M  V30 17 1 13 18
M  V30 18 2 14 19
M  V30 19 2 14 20
M  V30 20 1 14 21
M  V30 21 2 15 22
M  V30 22 1 17 23
M  V30 23 1 17 24
M  V30 24 2 18 25
M  V30 25 1 21 26
M  V30 26 1 21 27
M  V30 27 1 23 28
M  V30 28 2 24 29
M  V30 29 1 29 30
M  V30 30 1 30 31
M  V30 31 1 30 32
M  V30 32 1 31 33
M  V30 33 1 32 34
M  V30 34 1 33 35
M  V30 35 1 35 36
M  V30 36 1 36 37
M  V30 37 1 36 38
M  V30 38 1 37 39
M  V30 39 1 38 40
M  V30 40 1 39 41
M  V30 41 1 41 42
M  V30 42 1 7 8
M  V30 43 1 16 22
M  V30 44 1 25 29
M  V30 45 1 34 35
M  V30 46 1 40 41
M  V30 END BOND
M  V30 END CTAB
M  END
>  <Molecule Name>
Compound 169

>  <Molecule Name 2>
Compound 169

>  <Compound ID>
67

>  <Name>
TAE684

>  <Uniprot>
P21709

>  <Target>
EPHA1

>  <Smiles>
COC1=CC(N2CCC(N3CCN(C)CC3)CC2)=CC=C1NC1=NC=C(Cl)C(NC2=CC=CC=C2S(=O)(=O)C(C)C)=N1

>  <Kd (nM)>
39

>  <Assay (Kd)>
Kd was assessed by competition binding assays

>  <Ki (nM)>


>  <Assay (Ki)>


>  <IC50 (nM)>


>  <Assay (IC50)>


>  <EC50 (nM)>


>  <Assay (EC50)>


>  <Article DOI>
10.1038/nbt.1990

>  <Molecular Weight>
614.216

>  <Exact Mass>
613.2601868

>  <XLogP3>
5.67

>  <Heavy Atom Count>
42

>  <Ring Count>
5

>  <Hydrogen Bond Acceptor Count>
10

>  <Hydrogen Bond Donor Count>
2

>  <Rotatable Bond Count>
9

>  <Topological Polar Surface Area>
102.93

>  <Molecular Formula>
C30H40ClN7O3S

>  <InChI>
InChI=1S/C30H40ClN7O3S/c1-21(2)42(39,40)28-8-6-5-7-26(28)33-29-24(31)20-32-30(35-29)34-25-10-9-23(19-27(25)41-4)37-13-11-22(12-14-37)38-17-15-36(3)16-18-38/h5-10,19-22H,11-18H2,1-4H3,(H2,32,33,34,35)

>  <InChI Key>
QQWUGDVOUVUTOY-UHFFFAOYSA-N

>  <BindingDB>
50242742

>  <PubChem>
16038120

>  <ChEMBL>
CHEMBL509032

$$$$
67
Actelion Java MolfileCreator 2.0

  0  0  0  0  0  0              0 V3000
M  V30 BEGIN CTAB
M  V30 COUNTS 42 46 0 0 0
M  V30 BEGIN ATOM
M  V30 1 Cl 0.0 3.75 0.0 0
M  V30 2 C 1.299 4.5 0.0 0
M  V30 3 C 2.598 3.75 0.0 0
M  V30 4 C 1.299 6.0 0.0 0
M  V30 5 N 3.8971 4.5 0.0 0
M  V30 6 N 2.598 2.25 0.0 0
M  V30 7 N 2.598 6.75 0.0 0
M  V30 8 C 3.8971 6.0 0.0 0
M  V30 9 C 3.8971 1.5 0.0 0
M  V30 10 N 5.1961 6.75 0.0 0
M  V30 11 C 3.8971 0.0 0.0 0
M  V30 12 C 5.1961 2.25 0.0 0
M  V30 13 C 5.1961 8.25 0.0 0
M  V30 14 S 2.598 -0.75 0.0 0
M  V30 15 C 5.1961 -0.75 0.0 0
M  V30 16 C 6.4951 1.5 0.0 0
M  V30 17 C 6.4951 9.0 0.0 0
M  V30 18 C 3.8971 9.0 0.0 0
M  V30 19 O 1.848 -2.049 0.0 0
M  V30 20 O 3.348 -2.049 0.0 0
M  V30 21 C 1.299 0.0 0.0 0
M  V30 22 C 6.4951 0.0 0.0 0
M  V30 23 O 7.7942 8.25 0.0 0
M  V30 24 C 6.4951 10.5 0.0 0
M  V30 25 C 3.8971 10.5 0.0 0
M  V30 26 C 1.299 1.5 0.0 0
M  V30 27 C 0.0 -0.75 0.0 0
M  V30 28 C 9.0932 9.0 0.0 0
M  V30 29 C 5.1961 11.25 0.0 0
M  V30 30 N 5.1961 12.75 0.0 0
M  V30 31 C 6.4951 13.5 0.0 0
M  V30 32 C 3.8971 13.5 0.0 0
M  V30 33 C 6.4951 15.0 0.0 0
M  V30 34 C 3.8971 15.0 0.0 0
M  V30 35 C 5.1961 15.75 0.0 0
M  V30 36 N 5.1961 17.25 0.0 0
M  V30 37 C 6.4951 18.0 0.0 0
M  V30 38 C 3.8971 18.0 0.0 0
M  V30 39 C 6.4951 19.5 0.0 0
M  V30 40 C 3.8971 19.5 0.0 0
M  V30 41 N 5.1961 20.25 0.0 0
M  V30 42 C 5.1961 21.75 0.0 0
M  V30 END ATOM
M  V30 BEGIN BOND
M  V30 1 1 1 2
M  V30 2 2 2 3
M  V30 3 1 2 4
M  V30 4 1 3 5
M  V30 5 1 3 6
M  V30 6 2 4 7
M  V30 7 2 5 8
M  V30 8 1 6 9
M  V30 9 1 8 10
M  V30 10 2 9 11
M  V30 11 1 9 12
M  V30 12 1 10 13
M  V30 13 1 11 14
M  V30 14 1 11 15
M  V30 15 2 12 16
M  V30 16 2 13 17
M  V30 17 1 13 18
M  V30 18 2 14 19
M  V30 19 2 14 20
M  V30 20 1 14 21
M  V30 21 2 15 22
M  V30 22 1 17 23
M  V30 23 1 17 24
M  V30 24 2 18 25
M  V30 25 1 21 26
M  V30 26 1 21 27
M  V30 27 1 23 28
M  V30 28 2 24 29
M  V30 29 1 29 30
M  V30 30 1 30 31
M  V30 31 1 30 32
M  V30 32 1 31 33
M  V30 33 1 32 34
M  V30 34 1 33 35
M  V30 35 1 35 36
M  V30 36 1 36 37
M  V30 37 1 36 38
M  V30 38 1 37 39
M  V30 39 1 38 40
M  V30 40 1 39 41
M  V30 41 1 41 42
M  V30 42 1 7 8
M  V30 43 1 16 22
M  V30 44 1 25 29
M  V30 45 1 34 35
M  V30 46 1 40 41
M  V30 END BOND
M  V30 END CTAB
M  END
>  <Molecule Name>
Compound 170

>  <Molecule Name 2>
Compound 170

>  <Compound ID>
67

>  <Name>
TAE684

>  <Uniprot>
P29323

>  <Target>
EPHB2

>  <Smiles>
COC1=CC(N2CCC(N3CCN(C)CC3)CC2)=CC=C1NC1=NC=C(Cl)C(NC2=CC=CC=C2S(=O)(=O)C(C)C)=N1

>  <Kd (nM)>
1500

>  <Assay (Kd)>
Kd was assessed by competition binding assays

>  <Ki (nM)>


>  <Assay (Ki)>


>  <IC50 (nM)>


>  <Assay (IC50)>


>  <EC50 (nM)>


>  <Assay (EC50)>


>  <Article DOI>
10.1038/nbt.1990

>  <Molecular Weight>
614.216

>  <Exact Mass>
613.2601868

>  <XLogP3>
5.67

>  <Heavy Atom Count>
42

>  <Ring Count>
5

>  <Hydrogen Bond Acceptor Count>
10

>  <Hydrogen Bond Donor Count>
2

>  <Rotatable Bond Count>
9

>  <Topological Polar Surface Area>
102.93

>  <Molecular Formula>
C30H40ClN7O3S

>  <InChI>
InChI=1S/C30H40ClN7O3S/c1-21(2)42(39,40)28-8-6-5-7-26(28)33-29-24(31)20-32-30(35-29)34-25-10-9-23(19-27(25)41-4)37-13-11-22(12-14-37)38-17-15-36(3)16-18-38/h5-10,19-22H,11-18H2,1-4H3,(H2,32,33,34,35)

>  <InChI Key>
QQWUGDVOUVUTOY-UHFFFAOYSA-N

>  <BindingDB>
50242742

>  <PubChem>
16038120

>  <ChEMBL>
CHEMBL509032

$$$$
67
Actelion Java MolfileCreator 2.0

  0  0  0  0  0  0              0 V3000
M  V30 BEGIN CTAB
M  V30 COUNTS 42 46 0 0 0
M  V30 BEGIN ATOM
M  V30 1 Cl 0.0 3.75 0.0 0
M  V30 2 C 1.299 4.5 0.0 0
M  V30 3 C 2.598 3.75 0.0 0
M  V30 4 C 1.299 6.0 0.0 0
M  V30 5 N 3.8971 4.5 0.0 0
M  V30 6 N 2.598 2.25 0.0 0
M  V30 7 N 2.598 6.75 0.0 0
M  V30 8 C 3.8971 6.0 0.0 0
M  V30 9 C 3.8971 1.5 0.0 0
M  V30 10 N 5.1961 6.75 0.0 0
M  V30 11 C 3.8971 0.0 0.0 0
M  V30 12 C 5.1961 2.25 0.0 0
M  V30 13 C 5.1961 8.25 0.0 0
M  V30 14 S 2.598 -0.75 0.0 0
M  V30 15 C 5.1961 -0.75 0.0 0
M  V30 16 C 6.4951 1.5 0.0 0
M  V30 17 C 6.4951 9.0 0.0 0
M  V30 18 C 3.8971 9.0 0.0 0
M  V30 19 O 1.848 -2.049 0.0 0
M  V30 20 O 3.348 -2.049 0.0 0
M  V30 21 C 1.299 0.0 0.0 0
M  V30 22 C 6.4951 0.0 0.0 0
M  V30 23 O 7.7942 8.25 0.0 0
M  V30 24 C 6.4951 10.5 0.0 0
M  V30 25 C 3.8971 10.5 0.0 0
M  V30 26 C 1.299 1.5 0.0 0
M  V30 27 C 0.0 -0.75 0.0 0
M  V30 28 C 9.0932 9.0 0.0 0
M  V30 29 C 5.1961 11.25 0.0 0
M  V30 30 N 5.1961 12.75 0.0 0
M  V30 31 C 6.4951 13.5 0.0 0
M  V30 32 C 3.8971 13.5 0.0 0
M  V30 33 C 6.4951 15.0 0.0 0
M  V30 34 C 3.8971 15.0 0.0 0
M  V30 35 C 5.1961 15.75 0.0 0
M  V30 36 N 5.1961 17.25 0.0 0
M  V30 37 C 6.4951 18.0 0.0 0
M  V30 38 C 3.8971 18.0 0.0 0
M  V30 39 C 6.4951 19.5 0.0 0
M  V30 40 C 3.8971 19.5 0.0 0
M  V30 41 N 5.1961 20.25 0.0 0
M  V30 42 C 5.1961 21.75 0.0 0
M  V30 END ATOM
M  V30 BEGIN BOND
M  V30 1 1 1 2
M  V30 2 2 2 3
M  V30 3 1 2 4
M  V30 4 1 3 5
M  V30 5 1 3 6
M  V30 6 2 4 7
M  V30 7 2 5 8
M  V30 8 1 6 9
M  V30 9 1 8 10
M  V30 10 2 9 11
M  V30 11 1 9 12
M  V30 12 1 10 13
M  V30 13 1 11 14
M  V30 14 1 11 15
M  V30 15 2 12 16
M  V30 16 2 13 17
M  V30 17 1 13 18
M  V30 18 2 14 19
M  V30 19 2 14 20
M  V30 20 1 14 21
M  V30 21 2 15 22
M  V30 22 1 17 23
M  V30 23 1 17 24
M  V30 24 2 18 25
M  V30 25 1 21 26
M  V30 26 1 21 27
M  V30 27 1 23 28
M  V30 28 2 24 29
M  V30 29 1 29 30
M  V30 30 1 30 31
M  V30 31 1 30 32
M  V30 32 1 31 33
M  V30 33 1 32 34
M  V30 34 1 33 35
M  V30 35 1 35 36
M  V30 36 1 36 37
M  V30 37 1 36 38
M  V30 38 1 37 39
M  V30 39 1 38 40
M  V30 40 1 39 41
M  V30 41 1 41 42
M  V30 42 1 7 8
M  V30 43 1 16 22
M  V30 44 1 25 29
M  V30 45 1 34 35
M  V30 46 1 40 41
M  V30 END BOND
M  V30 END CTAB
M  END
>  <Molecule Name>
Compound 171

>  <Molecule Name 2>
Compound 171

>  <Compound ID>
67

>  <Name>
TAE684

>  <Uniprot>
P54760

>  <Target>
EPHB4

>  <Smiles>
COC1=CC(N2CCC(N3CCN(C)CC3)CC2)=CC=C1NC1=NC=C(Cl)C(NC2=CC=CC=C2S(=O)(=O)C(C)C)=N1

>  <Kd (nM)>
750

>  <Assay (Kd)>
Kd was assessed by competition binding assays

>  <Ki (nM)>


>  <Assay (Ki)>


>  <IC50 (nM)>


>  <Assay (IC50)>


>  <EC50 (nM)>


>  <Assay (EC50)>


>  <Article DOI>
10.1038/nbt.1990

>  <Molecular Weight>
614.216

>  <Exact Mass>
613.2601868

>  <XLogP3>
5.67

>  <Heavy Atom Count>
42

>  <Ring Count>
5

>  <Hydrogen Bond Acceptor Count>
10

>  <Hydrogen Bond Donor Count>
2

>  <Rotatable Bond Count>
9

>  <Topological Polar Surface Area>
102.93

>  <Molecular Formula>
C30H40ClN7O3S

>  <InChI>
InChI=1S/C30H40ClN7O3S/c1-21(2)42(39,40)28-8-6-5-7-26(28)33-29-24(31)20-32-30(35-29)34-25-10-9-23(19-27(25)41-4)37-13-11-22(12-14-37)38-17-15-36(3)16-18-38/h5-10,19-22H,11-18H2,1-4H3,(H2,32,33,34,35)

>  <InChI Key>
QQWUGDVOUVUTOY-UHFFFAOYSA-N

>  <BindingDB>
50242742

>  <PubChem>
16038120

>  <ChEMBL>
CHEMBL509032

$$$$
67
Actelion Java MolfileCreator 2.0

  0  0  0  0  0  0              0 V3000
M  V30 BEGIN CTAB
M  V30 COUNTS 42 46 0 0 0
M  V30 BEGIN ATOM
M  V30 1 Cl 0.0 3.75 0.0 0
M  V30 2 C 1.299 4.5 0.0 0
M  V30 3 C 2.598 3.75 0.0 0
M  V30 4 C 1.299 6.0 0.0 0
M  V30 5 N 3.8971 4.5 0.0 0
M  V30 6 N 2.598 2.25 0.0 0
M  V30 7 N 2.598 6.75 0.0 0
M  V30 8 C 3.8971 6.0 0.0 0
M  V30 9 C 3.8971 1.5 0.0 0
M  V30 10 N 5.1961 6.75 0.0 0
M  V30 11 C 3.8971 0.0 0.0 0
M  V30 12 C 5.1961 2.25 0.0 0
M  V30 13 C 5.1961 8.25 0.0 0
M  V30 14 S 2.598 -0.75 0.0 0
M  V30 15 C 5.1961 -0.75 0.0 0
M  V30 16 C 6.4951 1.5 0.0 0
M  V30 17 C 6.4951 9.0 0.0 0
M  V30 18 C 3.8971 9.0 0.0 0
M  V30 19 O 1.848 -2.049 0.0 0
M  V30 20 O 3.348 -2.049 0.0 0
M  V30 21 C 1.299 0.0 0.0 0
M  V30 22 C 6.4951 0.0 0.0 0
M  V30 23 O 7.7942 8.25 0.0 0
M  V30 24 C 6.4951 10.5 0.0 0
M  V30 25 C 3.8971 10.5 0.0 0
M  V30 26 C 1.299 1.5 0.0 0
M  V30 27 C 0.0 -0.75 0.0 0
M  V30 28 C 9.0932 9.0 0.0 0
M  V30 29 C 5.1961 11.25 0.0 0
M  V30 30 N 5.1961 12.75 0.0 0
M  V30 31 C 6.4951 13.5 0.0 0
M  V30 32 C 3.8971 13.5 0.0 0
M  V30 33 C 6.4951 15.0 0.0 0
M  V30 34 C 3.8971 15.0 0.0 0
M  V30 35 C 5.1961 15.75 0.0 0
M  V30 36 N 5.1961 17.25 0.0 0
M  V30 37 C 6.4951 18.0 0.0 0
M  V30 38 C 3.8971 18.0 0.0 0
M  V30 39 C 6.4951 19.5 0.0 0
M  V30 40 C 3.8971 19.5 0.0 0
M  V30 41 N 5.1961 20.25 0.0 0
M  V30 42 C 5.1961 21.75 0.0 0
M  V30 END ATOM
M  V30 BEGIN BOND
M  V30 1 1 1 2
M  V30 2 2 2 3
M  V30 3 1 2 4
M  V30 4 1 3 5
M  V30 5 1 3 6
M  V30 6 2 4 7
M  V30 7 2 5 8
M  V30 8 1 6 9
M  V30 9 1 8 10
M  V30 10 2 9 11
M  V30 11 1 9 12
M  V30 12 1 10 13
M  V30 13 1 11 14
M  V30 14 1 11 15
M  V30 15 2 12 16
M  V30 16 2 13 17
M  V30 17 1 13 18
M  V30 18 2 14 19
M  V30 19 2 14 20
M  V30 20 1 14 21
M  V30 21 2 15 22
M  V30 22 1 17 23
M  V30 23 1 17 24
M  V30 24 2 18 25
M  V30 25 1 21 26
M  V30 26 1 21 27
M  V30 27 1 23 28
M  V30 28 2 24 29
M  V30 29 1 29 30
M  V30 30 1 30 31
M  V30 31 1 30 32
M  V30 32 1 31 33
M  V30 33 1 32 34
M  V30 34 1 33 35
M  V30 35 1 35 36
M  V30 36 1 36 37
M  V30 37 1 36 38
M  V30 38 1 37 39
M  V30 39 1 38 40
M  V30 40 1 39 41
M  V30 41 1 41 42
M  V30 42 1 7 8
M  V30 43 1 16 22
M  V30 44 1 25 29
M  V30 45 1 34 35
M  V30 46 1 40 41
M  V30 END BOND
M  V30 END CTAB
M  END
>  <Molecule Name>
Compound 172

>  <Molecule Name 2>
Compound 172

>  <Compound ID>
67

>  <Name>
TAE684

>  <Uniprot>
Q05397

>  <Target>
FAK

>  <Smiles>
COC1=CC(N2CCC(N3CCN(C)CC3)CC2)=CC=C1NC1=NC=C(Cl)C(NC2=CC=CC=C2S(=O)(=O)C(C)C)=N1

>  <Kd (nM)>
1.1

>  <Assay (Kd)>
Kd was assessed by competition binding assays

>  <Ki (nM)>


>  <Assay (Ki)>


>  <IC50 (nM)>


>  <Assay (IC50)>


>  <EC50 (nM)>


>  <Assay (EC50)>


>  <Article DOI>
10.1038/nbt.1990

>  <Molecular Weight>
614.216

>  <Exact Mass>
613.2601868

>  <XLogP3>
5.67

>  <Heavy Atom Count>
42

>  <Ring Count>
5

>  <Hydrogen Bond Acceptor Count>
10

>  <Hydrogen Bond Donor Count>
2

>  <Rotatable Bond Count>
9

>  <Topological Polar Surface Area>
102.93

>  <Molecular Formula>
C30H40ClN7O3S

>  <InChI>
InChI=1S/C30H40ClN7O3S/c1-21(2)42(39,40)28-8-6-5-7-26(28)33-29-24(31)20-32-30(35-29)34-25-10-9-23(19-27(25)41-4)37-13-11-22(12-14-37)38-17-15-36(3)16-18-38/h5-10,19-22H,11-18H2,1-4H3,(H2,32,33,34,35)

>  <InChI Key>
QQWUGDVOUVUTOY-UHFFFAOYSA-N

>  <BindingDB>
50242742

>  <PubChem>
16038120

>  <ChEMBL>
CHEMBL509032

$$$$
67
Actelion Java MolfileCreator 2.0

  0  0  0  0  0  0              0 V3000
M  V30 BEGIN CTAB
M  V30 COUNTS 42 46 0 0 0
M  V30 BEGIN ATOM
M  V30 1 Cl 0.0 3.75 0.0 0
M  V30 2 C 1.299 4.5 0.0 0
M  V30 3 C 2.598 3.75 0.0 0
M  V30 4 C 1.299 6.0 0.0 0
M  V30 5 N 3.8971 4.5 0.0 0
M  V30 6 N 2.598 2.25 0.0 0
M  V30 7 N 2.598 6.75 0.0 0
M  V30 8 C 3.8971 6.0 0.0 0
M  V30 9 C 3.8971 1.5 0.0 0
M  V30 10 N 5.1961 6.75 0.0 0
M  V30 11 C 3.8971 0.0 0.0 0
M  V30 12 C 5.1961 2.25 0.0 0
M  V30 13 C 5.1961 8.25 0.0 0
M  V30 14 S 2.598 -0.75 0.0 0
M  V30 15 C 5.1961 -0.75 0.0 0
M  V30 16 C 6.4951 1.5 0.0 0
M  V30 17 C 6.4951 9.0 0.0 0
M  V30 18 C 3.8971 9.0 0.0 0
M  V30 19 O 1.848 -2.049 0.0 0
M  V30 20 O 3.348 -2.049 0.0 0
M  V30 21 C 1.299 0.0 0.0 0
M  V30 22 C 6.4951 0.0 0.0 0
M  V30 23 O 7.7942 8.25 0.0 0
M  V30 24 C 6.4951 10.5 0.0 0
M  V30 25 C 3.8971 10.5 0.0 0
M  V30 26 C 1.299 1.5 0.0 0
M  V30 27 C 0.0 -0.75 0.0 0
M  V30 28 C 9.0932 9.0 0.0 0
M  V30 29 C 5.1961 11.25 0.0 0
M  V30 30 N 5.1961 12.75 0.0 0
M  V30 31 C 6.4951 13.5 0.0 0
M  V30 32 C 3.8971 13.5 0.0 0
M  V30 33 C 6.4951 15.0 0.0 0
M  V30 34 C 3.8971 15.0 0.0 0
M  V30 35 C 5.1961 15.75 0.0 0
M  V30 36 N 5.1961 17.25 0.0 0
M  V30 37 C 6.4951 18.0 0.0 0
M  V30 38 C 3.8971 18.0 0.0 0
M  V30 39 C 6.4951 19.5 0.0 0
M  V30 40 C 3.8971 19.5 0.0 0
M  V30 41 N 5.1961 20.25 0.0 0
M  V30 42 C 5.1961 21.75 0.0 0
M  V30 END ATOM
M  V30 BEGIN BOND
M  V30 1 1 1 2
M  V30 2 2 2 3
M  V30 3 1 2 4
M  V30 4 1 3 5
M  V30 5 1 3 6
M  V30 6 2 4 7
M  V30 7 2 5 8
M  V30 8 1 6 9
M  V30 9 1 8 10
M  V30 10 2 9 11
M  V30 11 1 9 12
M  V30 12 1 10 13
M  V30 13 1 11 14
M  V30 14 1 11 15
M  V30 15 2 12 16
M  V30 16 2 13 17
M  V30 17 1 13 18
M  V30 18 2 14 19
M  V30 19 2 14 20
M  V30 20 1 14 21
M  V30 21 2 15 22
M  V30 22 1 17 23
M  V30 23 1 17 24
M  V30 24 2 18 25
M  V30 25 1 21 26
M  V30 26 1 21 27
M  V30 27 1 23 28
M  V30 28 2 24 29
M  V30 29 1 29 30
M  V30 30 1 30 31
M  V30 31 1 30 32
M  V30 32 1 31 33
M  V30 33 1 32 34
M  V30 34 1 33 35
M  V30 35 1 35 36
M  V30 36 1 36 37
M  V30 37 1 36 38
M  V30 38 1 37 39
M  V30 39 1 38 40
M  V30 40 1 39 41
M  V30 41 1 41 42
M  V30 42 1 7 8
M  V30 43 1 16 22
M  V30 44 1 25 29
M  V30 45 1 34 35
M  V30 46 1 40 41
M  V30 END BOND
M  V30 END CTAB
M  END
>  <Molecule Name>
Compound 173

>  <Molecule Name 2>
Compound 173

>  <Compound ID>
67

>  <Name>
TAE684

>  <Uniprot>
P16591

>  <Target>
FER

>  <Smiles>
COC1=CC(N2CCC(N3CCN(C)CC3)CC2)=CC=C1NC1=NC=C(Cl)C(NC2=CC=CC=C2S(=O)(=O)C(C)C)=N1

>  <Kd (nM)>
1.4

>  <Assay (Kd)>
Kd was assessed by competition binding assays

>  <Ki (nM)>


>  <Assay (Ki)>


>  <IC50 (nM)>


>  <Assay (IC50)>


>  <EC50 (nM)>


>  <Assay (EC50)>


>  <Article DOI>
10.1038/nbt.1990

>  <Molecular Weight>
614.216

>  <Exact Mass>
613.2601868

>  <XLogP3>
5.67

>  <Heavy Atom Count>
42

>  <Ring Count>
5

>  <Hydrogen Bond Acceptor Count>
10

>  <Hydrogen Bond Donor Count>
2

>  <Rotatable Bond Count>
9

>  <Topological Polar Surface Area>
102.93

>  <Molecular Formula>
C30H40ClN7O3S

>  <InChI>
InChI=1S/C30H40ClN7O3S/c1-21(2)42(39,40)28-8-6-5-7-26(28)33-29-24(31)20-32-30(35-29)34-25-10-9-23(19-27(25)41-4)37-13-11-22(12-14-37)38-17-15-36(3)16-18-38/h5-10,19-22H,11-18H2,1-4H3,(H2,32,33,34,35)

>  <InChI Key>
QQWUGDVOUVUTOY-UHFFFAOYSA-N

>  <BindingDB>
50242742

>  <PubChem>
16038120

>  <ChEMBL>
CHEMBL509032

$$$$
67
Actelion Java MolfileCreator 2.0

  0  0  0  0  0  0              0 V3000
M  V30 BEGIN CTAB
M  V30 COUNTS 42 46 0 0 0
M  V30 BEGIN ATOM
M  V30 1 Cl 0.0 3.75 0.0 0
M  V30 2 C 1.299 4.5 0.0 0
M  V30 3 C 2.598 3.75 0.0 0
M  V30 4 C 1.299 6.0 0.0 0
M  V30 5 N 3.8971 4.5 0.0 0
M  V30 6 N 2.598 2.25 0.0 0
M  V30 7 N 2.598 6.75 0.0 0
M  V30 8 C 3.8971 6.0 0.0 0
M  V30 9 C 3.8971 1.5 0.0 0
M  V30 10 N 5.1961 6.75 0.0 0
M  V30 11 C 3.8971 0.0 0.0 0
M  V30 12 C 5.1961 2.25 0.0 0
M  V30 13 C 5.1961 8.25 0.0 0
M  V30 14 S 2.598 -0.75 0.0 0
M  V30 15 C 5.1961 -0.75 0.0 0
M  V30 16 C 6.4951 1.5 0.0 0
M  V30 17 C 6.4951 9.0 0.0 0
M  V30 18 C 3.8971 9.0 0.0 0
M  V30 19 O 1.848 -2.049 0.0 0
M  V30 20 O 3.348 -2.049 0.0 0
M  V30 21 C 1.299 0.0 0.0 0
M  V30 22 C 6.4951 0.0 0.0 0
M  V30 23 O 7.7942 8.25 0.0 0
M  V30 24 C 6.4951 10.5 0.0 0
M  V30 25 C 3.8971 10.5 0.0 0
M  V30 26 C 1.299 1.5 0.0 0
M  V30 27 C 0.0 -0.75 0.0 0
M  V30 28 C 9.0932 9.0 0.0 0
M  V30 29 C 5.1961 11.25 0.0 0
M  V30 30 N 5.1961 12.75 0.0 0
M  V30 31 C 6.4951 13.5 0.0 0
M  V30 32 C 3.8971 13.5 0.0 0
M  V30 33 C 6.4951 15.0 0.0 0
M  V30 34 C 3.8971 15.0 0.0 0
M  V30 35 C 5.1961 15.75 0.0 0
M  V30 36 N 5.1961 17.25 0.0 0
M  V30 37 C 6.4951 18.0 0.0 0
M  V30 38 C 3.8971 18.0 0.0 0
M  V30 39 C 6.4951 19.5 0.0 0
M  V30 40 C 3.8971 19.5 0.0 0
M  V30 41 N 5.1961 20.25 0.0 0
M  V30 42 C 5.1961 21.75 0.0 0
M  V30 END ATOM
M  V30 BEGIN BOND
M  V30 1 1 1 2
M  V30 2 2 2 3
M  V30 3 1 2 4
M  V30 4 1 3 5
M  V30 5 1 3 6
M  V30 6 2 4 7
M  V30 7 2 5 8
M  V30 8 1 6 9
M  V30 9 1 8 10
M  V30 10 2 9 11
M  V30 11 1 9 12
M  V30 12 1 10 13
M  V30 13 1 11 14
M  V30 14 1 11 15
M  V30 15 2 12 16
M  V30 16 2 13 17
M  V30 17 1 13 18
M  V30 18 2 14 19
M  V30 19 2 14 20
M  V30 20 1 14 21
M  V30 21 2 15 22
M  V30 22 1 17 23
M  V30 23 1 17 24
M  V30 24 2 18 25
M  V30 25 1 21 26
M  V30 26 1 21 27
M  V30 27 1 23 28
M  V30 28 2 24 29
M  V30 29 1 29 30
M  V30 30 1 30 31
M  V30 31 1 30 32
M  V30 32 1 31 33
M  V30 33 1 32 34
M  V30 34 1 33 35
M  V30 35 1 35 36
M  V30 36 1 36 37
M  V30 37 1 36 38
M  V30 38 1 37 39
M  V30 39 1 38 40
M  V30 40 1 39 41
M  V30 41 1 41 42
M  V30 42 1 7 8
M  V30 43 1 16 22
M  V30 44 1 25 29
M  V30 45 1 34 35
M  V30 46 1 40 41
M  V30 END BOND
M  V30 END CTAB
M  END
>  <Molecule Name>
Compound 174

>  <Molecule Name 2>
Compound 174

>  <Compound ID>
67

>  <Name>
TAE684

>  <Uniprot>
P11362

>  <Target>
FGFR1

>  <Smiles>
COC1=CC(N2CCC(N3CCN(C)CC3)CC2)=CC=C1NC1=NC=C(Cl)C(NC2=CC=CC=C2S(=O)(=O)C(C)C)=N1

>  <Kd (nM)>
47

>  <Assay (Kd)>
Kd was assessed by competition binding assays

>  <Ki (nM)>


>  <Assay (Ki)>


>  <IC50 (nM)>


>  <Assay (IC50)>


>  <EC50 (nM)>


>  <Assay (EC50)>


>  <Article DOI>
10.1038/nbt.1990

>  <Molecular Weight>
614.216

>  <Exact Mass>
613.2601868

>  <XLogP3>
5.67

>  <Heavy Atom Count>
42

>  <Ring Count>
5

>  <Hydrogen Bond Acceptor Count>
10

>  <Hydrogen Bond Donor Count>
2

>  <Rotatable Bond Count>
9

>  <Topological Polar Surface Area>
102.93

>  <Molecular Formula>
C30H40ClN7O3S

>  <InChI>
InChI=1S/C30H40ClN7O3S/c1-21(2)42(39,40)28-8-6-5-7-26(28)33-29-24(31)20-32-30(35-29)34-25-10-9-23(19-27(25)41-4)37-13-11-22(12-14-37)38-17-15-36(3)16-18-38/h5-10,19-22H,11-18H2,1-4H3,(H2,32,33,34,35)

>  <InChI Key>
QQWUGDVOUVUTOY-UHFFFAOYSA-N

>  <BindingDB>
50242742

>  <PubChem>
16038120

>  <ChEMBL>
CHEMBL509032

$$$$
67
Actelion Java MolfileCreator 2.0

  0  0  0  0  0  0              0 V3000
M  V30 BEGIN CTAB
M  V30 COUNTS 42 46 0 0 0
M  V30 BEGIN ATOM
M  V30 1 Cl 0.0 3.75 0.0 0
M  V30 2 C 1.299 4.5 0.0 0
M  V30 3 C 2.598 3.75 0.0 0
M  V30 4 C 1.299 6.0 0.0 0
M  V30 5 N 3.8971 4.5 0.0 0
M  V30 6 N 2.598 2.25 0.0 0
M  V30 7 N 2.598 6.75 0.0 0
M  V30 8 C 3.8971 6.0 0.0 0
M  V30 9 C 3.8971 1.5 0.0 0
M  V30 10 N 5.1961 6.75 0.0 0
M  V30 11 C 3.8971 0.0 0.0 0
M  V30 12 C 5.1961 2.25 0.0 0
M  V30 13 C 5.1961 8.25 0.0 0
M  V30 14 S 2.598 -0.75 0.0 0
M  V30 15 C 5.1961 -0.75 0.0 0
M  V30 16 C 6.4951 1.5 0.0 0
M  V30 17 C 6.4951 9.0 0.0 0
M  V30 18 C 3.8971 9.0 0.0 0
M  V30 19 O 1.848 -2.049 0.0 0
M  V30 20 O 3.348 -2.049 0.0 0
M  V30 21 C 1.299 0.0 0.0 0
M  V30 22 C 6.4951 0.0 0.0 0
M  V30 23 O 7.7942 8.25 0.0 0
M  V30 24 C 6.4951 10.5 0.0 0
M  V30 25 C 3.8971 10.5 0.0 0
M  V30 26 C 1.299 1.5 0.0 0
M  V30 27 C 0.0 -0.75 0.0 0
M  V30 28 C 9.0932 9.0 0.0 0
M  V30 29 C 5.1961 11.25 0.0 0
M  V30 30 N 5.1961 12.75 0.0 0
M  V30 31 C 6.4951 13.5 0.0 0
M  V30 32 C 3.8971 13.5 0.0 0
M  V30 33 C 6.4951 15.0 0.0 0
M  V30 34 C 3.8971 15.0 0.0 0
M  V30 35 C 5.1961 15.75 0.0 0
M  V30 36 N 5.1961 17.25 0.0 0
M  V30 37 C 6.4951 18.0 0.0 0
M  V30 38 C 3.8971 18.0 0.0 0
M  V30 39 C 6.4951 19.5 0.0 0
M  V30 40 C 3.8971 19.5 0.0 0
M  V30 41 N 5.1961 20.25 0.0 0
M  V30 42 C 5.1961 21.75 0.0 0
M  V30 END ATOM
M  V30 BEGIN BOND
M  V30 1 1 1 2
M  V30 2 2 2 3
M  V30 3 1 2 4
M  V30 4 1 3 5
M  V30 5 1 3 6
M  V30 6 2 4 7
M  V30 7 2 5 8
M  V30 8 1 6 9
M  V30 9 1 8 10
M  V30 10 2 9 11
M  V30 11 1 9 12
M  V30 12 1 10 13
M  V30 13 1 11 14
M  V30 14 1 11 15
M  V30 15 2 12 16
M  V30 16 2 13 17
M  V30 17 1 13 18
M  V30 18 2 14 19
M  V30 19 2 14 20
M  V30 20 1 14 21
M  V30 21 2 15 22
M  V30 22 1 17 23
M  V30 23 1 17 24
M  V30 24 2 18 25
M  V30 25 1 21 26
M  V30 26 1 21 27
M  V30 27 1 23 28
M  V30 28 2 24 29
M  V30 29 1 29 30
M  V30 30 1 30 31
M  V30 31 1 30 32
M  V30 32 1 31 33
M  V30 33 1 32 34
M  V30 34 1 33 35
M  V30 35 1 35 36
M  V30 36 1 36 37
M  V30 37 1 36 38
M  V30 38 1 37 39
M  V30 39 1 38 40
M  V30 40 1 39 41
M  V30 41 1 41 42
M  V30 42 1 7 8
M  V30 43 1 16 22
M  V30 44 1 25 29
M  V30 45 1 34 35
M  V30 46 1 40 41
M  V30 END BOND
M  V30 END CTAB
M  END
>  <Molecule Name>
Compound 175

>  <Molecule Name 2>
Compound 175

>  <Compound ID>
67

>  <Name>
TAE684

>  <Uniprot>
P17948

>  <Target>
FLT1

>  <Smiles>
COC1=CC(N2CCC(N3CCN(C)CC3)CC2)=CC=C1NC1=NC=C(Cl)C(NC2=CC=CC=C2S(=O)(=O)C(C)C)=N1

>  <Kd (nM)>
550

>  <Assay (Kd)>
Kd was assessed by competition binding assays

>  <Ki (nM)>


>  <Assay (Ki)>


>  <IC50 (nM)>


>  <Assay (IC50)>


>  <EC50 (nM)>


>  <Assay (EC50)>


>  <Article DOI>
10.1038/nbt.1990

>  <Molecular Weight>
614.216

>  <Exact Mass>
613.2601868

>  <XLogP3>
5.67

>  <Heavy Atom Count>
42

>  <Ring Count>
5

>  <Hydrogen Bond Acceptor Count>
10

>  <Hydrogen Bond Donor Count>
2

>  <Rotatable Bond Count>
9

>  <Topological Polar Surface Area>
102.93

>  <Molecular Formula>
C30H40ClN7O3S

>  <InChI>
InChI=1S/C30H40ClN7O3S/c1-21(2)42(39,40)28-8-6-5-7-26(28)33-29-24(31)20-32-30(35-29)34-25-10-9-23(19-27(25)41-4)37-13-11-22(12-14-37)38-17-15-36(3)16-18-38/h5-10,19-22H,11-18H2,1-4H3,(H2,32,33,34,35)

>  <InChI Key>
QQWUGDVOUVUTOY-UHFFFAOYSA-N

>  <BindingDB>
50242742

>  <PubChem>
16038120

>  <ChEMBL>
CHEMBL509032

$$$$
67
Actelion Java MolfileCreator 2.0

  0  0  0  0  0  0              0 V3000
M  V30 BEGIN CTAB
M  V30 COUNTS 42 46 0 0 0
M  V30 BEGIN ATOM
M  V30 1 Cl 0.0 3.75 0.0 0
M  V30 2 C 1.299 4.5 0.0 0
M  V30 3 C 2.598 3.75 0.0 0
M  V30 4 C 1.299 6.0 0.0 0
M  V30 5 N 3.8971 4.5 0.0 0
M  V30 6 N 2.598 2.25 0.0 0
M  V30 7 N 2.598 6.75 0.0 0
M  V30 8 C 3.8971 6.0 0.0 0
M  V30 9 C 3.8971 1.5 0.0 0
M  V30 10 N 5.1961 6.75 0.0 0
M  V30 11 C 3.8971 0.0 0.0 0
M  V30 12 C 5.1961 2.25 0.0 0
M  V30 13 C 5.1961 8.25 0.0 0
M  V30 14 S 2.598 -0.75 0.0 0
M  V30 15 C 5.1961 -0.75 0.0 0
M  V30 16 C 6.4951 1.5 0.0 0
M  V30 17 C 6.4951 9.0 0.0 0
M  V30 18 C 3.8971 9.0 0.0 0
M  V30 19 O 1.848 -2.049 0.0 0
M  V30 20 O 3.348 -2.049 0.0 0
M  V30 21 C 1.299 0.0 0.0 0
M  V30 22 C 6.4951 0.0 0.0 0
M  V30 23 O 7.7942 8.25 0.0 0
M  V30 24 C 6.4951 10.5 0.0 0
M  V30 25 C 3.8971 10.5 0.0 0
M  V30 26 C 1.299 1.5 0.0 0
M  V30 27 C 0.0 -0.75 0.0 0
M  V30 28 C 9.0932 9.0 0.0 0
M  V30 29 C 5.1961 11.25 0.0 0
M  V30 30 N 5.1961 12.75 0.0 0
M  V30 31 C 6.4951 13.5 0.0 0
M  V30 32 C 3.8971 13.5 0.0 0
M  V30 33 C 6.4951 15.0 0.0 0
M  V30 34 C 3.8971 15.0 0.0 0
M  V30 35 C 5.1961 15.75 0.0 0
M  V30 36 N 5.1961 17.25 0.0 0
M  V30 37 C 6.4951 18.0 0.0 0
M  V30 38 C 3.8971 18.0 0.0 0
M  V30 39 C 6.4951 19.5 0.0 0
M  V30 40 C 3.8971 19.5 0.0 0
M  V30 41 N 5.1961 20.25 0.0 0
M  V30 42 C 5.1961 21.75 0.0 0
M  V30 END ATOM
M  V30 BEGIN BOND
M  V30 1 1 1 2
M  V30 2 2 2 3
M  V30 3 1 2 4
M  V30 4 1 3 5
M  V30 5 1 3 6
M  V30 6 2 4 7
M  V30 7 2 5 8
M  V30 8 1 6 9
M  V30 9 1 8 10
M  V30 10 2 9 11
M  V30 11 1 9 12
M  V30 12 1 10 13
M  V30 13 1 11 14
M  V30 14 1 11 15
M  V30 15 2 12 16
M  V30 16 2 13 17
M  V30 17 1 13 18
M  V30 18 2 14 19
M  V30 19 2 14 20
M  V30 20 1 14 21
M  V30 21 2 15 22
M  V30 22 1 17 23
M  V30 23 1 17 24
M  V30 24 2 18 25
M  V30 25 1 21 26
M  V30 26 1 21 27
M  V30 27 1 23 28
M  V30 28 2 24 29
M  V30 29 1 29 30
M  V30 30 1 30 31
M  V30 31 1 30 32
M  V30 32 1 31 33
M  V30 33 1 32 34
M  V30 34 1 33 35
M  V30 35 1 35 36
M  V30 36 1 36 37
M  V30 37 1 36 38
M  V30 38 1 37 39
M  V30 39 1 38 40
M  V30 40 1 39 41
M  V30 41 1 41 42
M  V30 42 1 7 8
M  V30 43 1 16 22
M  V30 44 1 25 29
M  V30 45 1 34 35
M  V30 46 1 40 41
M  V30 END BOND
M  V30 END CTAB
M  END
>  <Molecule Name>
Compound 176

>  <Molecule Name 2>
Compound 176

>  <Compound ID>
67

>  <Name>
TAE684

>  <Uniprot>
P06241

>  <Target>
FYN

>  <Smiles>
COC1=CC(N2CCC(N3CCN(C)CC3)CC2)=CC=C1NC1=NC=C(Cl)C(NC2=CC=CC=C2S(=O)(=O)C(C)C)=N1

>  <Kd (nM)>
1400

>  <Assay (Kd)>
Kd was assessed by competition binding assays

>  <Ki (nM)>


>  <Assay (Ki)>


>  <IC50 (nM)>


>  <Assay (IC50)>


>  <EC50 (nM)>


>  <Assay (EC50)>


>  <Article DOI>
10.1038/nbt.1990

>  <Molecular Weight>
614.216

>  <Exact Mass>
613.2601868

>  <XLogP3>
5.67

>  <Heavy Atom Count>
42

>  <Ring Count>
5

>  <Hydrogen Bond Acceptor Count>
10

>  <Hydrogen Bond Donor Count>
2

>  <Rotatable Bond Count>
9

>  <Topological Polar Surface Area>
102.93

>  <Molecular Formula>
C30H40ClN7O3S

>  <InChI>
InChI=1S/C30H40ClN7O3S/c1-21(2)42(39,40)28-8-6-5-7-26(28)33-29-24(31)20-32-30(35-29)34-25-10-9-23(19-27(25)41-4)37-13-11-22(12-14-37)38-17-15-36(3)16-18-38/h5-10,19-22H,11-18H2,1-4H3,(H2,32,33,34,35)

>  <InChI Key>
QQWUGDVOUVUTOY-UHFFFAOYSA-N

>  <BindingDB>
50242742

>  <PubChem>
16038120

>  <ChEMBL>
CHEMBL509032

$$$$
67
Actelion Java MolfileCreator 2.0

  0  0  0  0  0  0              0 V3000
M  V30 BEGIN CTAB
M  V30 COUNTS 42 46 0 0 0
M  V30 BEGIN ATOM
M  V30 1 Cl 0.0 3.75 0.0 0
M  V30 2 C 1.299 4.5 0.0 0
M  V30 3 C 2.598 3.75 0.0 0
M  V30 4 C 1.299 6.0 0.0 0
M  V30 5 N 3.8971 4.5 0.0 0
M  V30 6 N 2.598 2.25 0.0 0
M  V30 7 N 2.598 6.75 0.0 0
M  V30 8 C 3.8971 6.0 0.0 0
M  V30 9 C 3.8971 1.5 0.0 0
M  V30 10 N 5.1961 6.75 0.0 0
M  V30 11 C 3.8971 0.0 0.0 0
M  V30 12 C 5.1961 2.25 0.0 0
M  V30 13 C 5.1961 8.25 0.0 0
M  V30 14 S 2.598 -0.75 0.0 0
M  V30 15 C 5.1961 -0.75 0.0 0
M  V30 16 C 6.4951 1.5 0.0 0
M  V30 17 C 6.4951 9.0 0.0 0
M  V30 18 C 3.8971 9.0 0.0 0
M  V30 19 O 1.848 -2.049 0.0 0
M  V30 20 O 3.348 -2.049 0.0 0
M  V30 21 C 1.299 0.0 0.0 0
M  V30 22 C 6.4951 0.0 0.0 0
M  V30 23 O 7.7942 8.25 0.0 0
M  V30 24 C 6.4951 10.5 0.0 0
M  V30 25 C 3.8971 10.5 0.0 0
M  V30 26 C 1.299 1.5 0.0 0
M  V30 27 C 0.0 -0.75 0.0 0
M  V30 28 C 9.0932 9.0 0.0 0
M  V30 29 C 5.1961 11.25 0.0 0
M  V30 30 N 5.1961 12.75 0.0 0
M  V30 31 C 6.4951 13.5 0.0 0
M  V30 32 C 3.8971 13.5 0.0 0
M  V30 33 C 6.4951 15.0 0.0 0
M  V30 34 C 3.8971 15.0 0.0 0
M  V30 35 C 5.1961 15.75 0.0 0
M  V30 36 N 5.1961 17.25 0.0 0
M  V30 37 C 6.4951 18.0 0.0 0
M  V30 38 C 3.8971 18.0 0.0 0
M  V30 39 C 6.4951 19.5 0.0 0
M  V30 40 C 3.8971 19.5 0.0 0
M  V30 41 N 5.1961 20.25 0.0 0
M  V30 42 C 5.1961 21.75 0.0 0
M  V30 END ATOM
M  V30 BEGIN BOND
M  V30 1 1 1 2
M  V30 2 2 2 3
M  V30 3 1 2 4
M  V30 4 1 3 5
M  V30 5 1 3 6
M  V30 6 2 4 7
M  V30 7 2 5 8
M  V30 8 1 6 9
M  V30 9 1 8 10
M  V30 10 2 9 11
M  V30 11 1 9 12
M  V30 12 1 10 13
M  V30 13 1 11 14
M  V30 14 1 11 15
M  V30 15 2 12 16
M  V30 16 2 13 17
M  V30 17 1 13 18
M  V30 18 2 14 19
M  V30 19 2 14 20
M  V30 20 1 14 21
M  V30 21 2 15 22
M  V30 22 1 17 23
M  V30 23 1 17 24
M  V30 24 2 18 25
M  V30 25 1 21 26
M  V30 26 1 21 27
M  V30 27 1 23 28
M  V30 28 2 24 29
M  V30 29 1 29 30
M  V30 30 1 30 31
M  V30 31 1 30 32
M  V30 32 1 31 33
M  V30 33 1 32 34
M  V30 34 1 33 35
M  V30 35 1 35 36
M  V30 36 1 36 37
M  V30 37 1 36 38
M  V30 38 1 37 39
M  V30 39 1 38 40
M  V30 40 1 39 41
M  V30 41 1 41 42
M  V30 42 1 7 8
M  V30 43 1 16 22
M  V30 44 1 25 29
M  V30 45 1 34 35
M  V30 46 1 40 41
M  V30 END BOND
M  V30 END CTAB
M  END
>  <Molecule Name>
Compound 177

>  <Molecule Name 2>
Compound 177

>  <Compound ID>
67

>  <Name>
TAE684

>  <Uniprot>
O14976

>  <Target>
GAK

>  <Smiles>
COC1=CC(N2CCC(N3CCN(C)CC3)CC2)=CC=C1NC1=NC=C(Cl)C(NC2=CC=CC=C2S(=O)(=O)C(C)C)=N1

>  <Kd (nM)>
5.3

>  <Assay (Kd)>
Kd was assessed by competition binding assays

>  <Ki (nM)>


>  <Assay (Ki)>


>  <IC50 (nM)>


>  <Assay (IC50)>


>  <EC50 (nM)>


>  <Assay (EC50)>


>  <Article DOI>
10.1038/nbt.1990

>  <Molecular Weight>
614.216

>  <Exact Mass>
613.2601868

>  <XLogP3>
5.67

>  <Heavy Atom Count>
42

>  <Ring Count>
5

>  <Hydrogen Bond Acceptor Count>
10

>  <Hydrogen Bond Donor Count>
2

>  <Rotatable Bond Count>
9

>  <Topological Polar Surface Area>
102.93

>  <Molecular Formula>
C30H40ClN7O3S

>  <InChI>
InChI=1S/C30H40ClN7O3S/c1-21(2)42(39,40)28-8-6-5-7-26(28)33-29-24(31)20-32-30(35-29)34-25-10-9-23(19-27(25)41-4)37-13-11-22(12-14-37)38-17-15-36(3)16-18-38/h5-10,19-22H,11-18H2,1-4H3,(H2,32,33,34,35)

>  <InChI Key>
QQWUGDVOUVUTOY-UHFFFAOYSA-N

>  <BindingDB>
50242742

>  <PubChem>
16038120

>  <ChEMBL>
CHEMBL509032

$$$$
67
Actelion Java MolfileCreator 2.0

  0  0  0  0  0  0              0 V3000
M  V30 BEGIN CTAB
M  V30 COUNTS 42 46 0 0 0
M  V30 BEGIN ATOM
M  V30 1 Cl 0.0 3.75 0.0 0
M  V30 2 C 1.299 4.5 0.0 0
M  V30 3 C 2.598 3.75 0.0 0
M  V30 4 C 1.299 6.0 0.0 0
M  V30 5 N 3.8971 4.5 0.0 0
M  V30 6 N 2.598 2.25 0.0 0
M  V30 7 N 2.598 6.75 0.0 0
M  V30 8 C 3.8971 6.0 0.0 0
M  V30 9 C 3.8971 1.5 0.0 0
M  V30 10 N 5.1961 6.75 0.0 0
M  V30 11 C 3.8971 0.0 0.0 0
M  V30 12 C 5.1961 2.25 0.0 0
M  V30 13 C 5.1961 8.25 0.0 0
M  V30 14 S 2.598 -0.75 0.0 0
M  V30 15 C 5.1961 -0.75 0.0 0
M  V30 16 C 6.4951 1.5 0.0 0
M  V30 17 C 6.4951 9.0 0.0 0
M  V30 18 C 3.8971 9.0 0.0 0
M  V30 19 O 1.848 -2.049 0.0 0
M  V30 20 O 3.348 -2.049 0.0 0
M  V30 21 C 1.299 0.0 0.0 0
M  V30 22 C 6.4951 0.0 0.0 0
M  V30 23 O 7.7942 8.25 0.0 0
M  V30 24 C 6.4951 10.5 0.0 0
M  V30 25 C 3.8971 10.5 0.0 0
M  V30 26 C 1.299 1.5 0.0 0
M  V30 27 C 0.0 -0.75 0.0 0
M  V30 28 C 9.0932 9.0 0.0 0
M  V30 29 C 5.1961 11.25 0.0 0
M  V30 30 N 5.1961 12.75 0.0 0
M  V30 31 C 6.4951 13.5 0.0 0
M  V30 32 C 3.8971 13.5 0.0 0
M  V30 33 C 6.4951 15.0 0.0 0
M  V30 34 C 3.8971 15.0 0.0 0
M  V30 35 C 5.1961 15.75 0.0 0
M  V30 36 N 5.1961 17.25 0.0 0
M  V30 37 C 6.4951 18.0 0.0 0
M  V30 38 C 3.8971 18.0 0.0 0
M  V30 39 C 6.4951 19.5 0.0 0
M  V30 40 C 3.8971 19.5 0.0 0
M  V30 41 N 5.1961 20.25 0.0 0
M  V30 42 C 5.1961 21.75 0.0 0
M  V30 END ATOM
M  V30 BEGIN BOND
M  V30 1 1 1 2
M  V30 2 2 2 3
M  V30 3 1 2 4
M  V30 4 1 3 5
M  V30 5 1 3 6
M  V30 6 2 4 7
M  V30 7 2 5 8
M  V30 8 1 6 9
M  V30 9 1 8 10
M  V30 10 2 9 11
M  V30 11 1 9 12
M  V30 12 1 10 13
M  V30 13 1 11 14
M  V30 14 1 11 15
M  V30 15 2 12 16
M  V30 16 2 13 17
M  V30 17 1 13 18
M  V30 18 2 14 19
M  V30 19 2 14 20
M  V30 20 1 14 21
M  V30 21 2 15 22
M  V30 22 1 17 23
M  V30 23 1 17 24
M  V30 24 2 18 25
M  V30 25 1 21 26
M  V30 26 1 21 27
M  V30 27 1 23 28
M  V30 28 2 24 29
M  V30 29 1 29 30
M  V30 30 1 30 31
M  V30 31 1 30 32
M  V30 32 1 31 33
M  V30 33 1 32 34
M  V30 34 1 33 35
M  V30 35 1 35 36
M  V30 36 1 36 37
M  V30 37 1 36 38
M  V30 38 1 37 39
M  V30 39 1 38 40
M  V30 40 1 39 41
M  V30 41 1 41 42
M  V30 42 1 7 8
M  V30 43 1 16 22
M  V30 44 1 25 29
M  V30 45 1 34 35
M  V30 46 1 40 41
M  V30 END BOND
M  V30 END CTAB
M  END
>  <Molecule Name>
Compound 178

>  <Molecule Name 2>
Compound 178

>  <Compound ID>
67

>  <Name>
TAE684

>  <Uniprot>
Q8TF76

>  <Target>
HASPIN

>  <Smiles>
COC1=CC(N2CCC(N3CCN(C)CC3)CC2)=CC=C1NC1=NC=C(Cl)C(NC2=CC=CC=C2S(=O)(=O)C(C)C)=N1

>  <Kd (nM)>


>  <Assay (Kd)>


>  <Ki (nM)>


>  <Assay (Ki)>


>  <IC50 (nM)>


>  <Assay (IC50)>


>  <EC50 (nM)>


>  <Assay (EC50)>


>  <Article DOI>
10.1016/j.cell.2020.10.038

>  <Molecular Weight>
614.216

>  <Exact Mass>
613.2601868

>  <XLogP3>
5.67

>  <Heavy Atom Count>
42

>  <Ring Count>
5

>  <Hydrogen Bond Acceptor Count>
10

>  <Hydrogen Bond Donor Count>
2

>  <Rotatable Bond Count>
9

>  <Topological Polar Surface Area>
102.93

>  <Molecular Formula>
C30H40ClN7O3S

>  <InChI>
InChI=1S/C30H40ClN7O3S/c1-21(2)42(39,40)28-8-6-5-7-26(28)33-29-24(31)20-32-30(35-29)34-25-10-9-23(19-27(25)41-4)37-13-11-22(12-14-37)38-17-15-36(3)16-18-38/h5-10,19-22H,11-18H2,1-4H3,(H2,32,33,34,35)

>  <InChI Key>
QQWUGDVOUVUTOY-UHFFFAOYSA-N

>  <BindingDB>
50242742

>  <PubChem>
16038120

>  <ChEMBL>
CHEMBL509032

$$$$
67
Actelion Java MolfileCreator 2.0

  0  0  0  0  0  0              0 V3000
M  V30 BEGIN CTAB
M  V30 COUNTS 42 46 0 0 0
M  V30 BEGIN ATOM
M  V30 1 Cl 0.0 3.75 0.0 0
M  V30 2 C 1.299 4.5 0.0 0
M  V30 3 C 2.598 3.75 0.0 0
M  V30 4 C 1.299 6.0 0.0 0
M  V30 5 N 3.8971 4.5 0.0 0
M  V30 6 N 2.598 2.25 0.0 0
M  V30 7 N 2.598 6.75 0.0 0
M  V30 8 C 3.8971 6.0 0.0 0
M  V30 9 C 3.8971 1.5 0.0 0
M  V30 10 N 5.1961 6.75 0.0 0
M  V30 11 C 3.8971 0.0 0.0 0
M  V30 12 C 5.1961 2.25 0.0 0
M  V30 13 C 5.1961 8.25 0.0 0
M  V30 14 S 2.598 -0.75 0.0 0
M  V30 15 C 5.1961 -0.75 0.0 0
M  V30 16 C 6.4951 1.5 0.0 0
M  V30 17 C 6.4951 9.0 0.0 0
M  V30 18 C 3.8971 9.0 0.0 0
M  V30 19 O 1.848 -2.049 0.0 0
M  V30 20 O 3.348 -2.049 0.0 0
M  V30 21 C 1.299 0.0 0.0 0
M  V30 22 C 6.4951 0.0 0.0 0
M  V30 23 O 7.7942 8.25 0.0 0
M  V30 24 C 6.4951 10.5 0.0 0
M  V30 25 C 3.8971 10.5 0.0 0
M  V30 26 C 1.299 1.5 0.0 0
M  V30 27 C 0.0 -0.75 0.0 0
M  V30 28 C 9.0932 9.0 0.0 0
M  V30 29 C 5.1961 11.25 0.0 0
M  V30 30 N 5.1961 12.75 0.0 0
M  V30 31 C 6.4951 13.5 0.0 0
M  V30 32 C 3.8971 13.5 0.0 0
M  V30 33 C 6.4951 15.0 0.0 0
M  V30 34 C 3.8971 15.0 0.0 0
M  V30 35 C 5.1961 15.75 0.0 0
M  V30 36 N 5.1961 17.25 0.0 0
M  V30 37 C 6.4951 18.0 0.0 0
M  V30 38 C 3.8971 18.0 0.0 0
M  V30 39 C 6.4951 19.5 0.0 0
M  V30 40 C 3.8971 19.5 0.0 0
M  V30 41 N 5.1961 20.25 0.0 0
M  V30 42 C 5.1961 21.75 0.0 0
M  V30 END ATOM
M  V30 BEGIN BOND
M  V30 1 1 1 2
M  V30 2 2 2 3
M  V30 3 1 2 4
M  V30 4 1 3 5
M  V30 5 1 3 6
M  V30 6 2 4 7
M  V30 7 2 5 8
M  V30 8 1 6 9
M  V30 9 1 8 10
M  V30 10 2 9 11
M  V30 11 1 9 12
M  V30 12 1 10 13
M  V30 13 1 11 14
M  V30 14 1 11 15
M  V30 15 2 12 16
M  V30 16 2 13 17
M  V30 17 1 13 18
M  V30 18 2 14 19
M  V30 19 2 14 20
M  V30 20 1 14 21
M  V30 21 2 15 22
M  V30 22 1 17 23
M  V30 23 1 17 24
M  V30 24 2 18 25
M  V30 25 1 21 26
M  V30 26 1 21 27
M  V30 27 1 23 28
M  V30 28 2 24 29
M  V30 29 1 29 30
M  V30 30 1 30 31
M  V30 31 1 30 32
M  V30 32 1 31 33
M  V30 33 1 32 34
M  V30 34 1 33 35
M  V30 35 1 35 36
M  V30 36 1 36 37
M  V30 37 1 36 38
M  V30 38 1 37 39
M  V30 39 1 38 40
M  V30 40 1 39 41
M  V30 41 1 41 42
M  V30 42 1 7 8
M  V30 43 1 16 22
M  V30 44 1 25 29
M  V30 45 1 34 35
M  V30 46 1 40 41
M  V30 END BOND
M  V30 END CTAB
M  END
>  <Molecule Name>
Compound 179

>  <Molecule Name 2>
Compound 179

>  <Compound ID>
67

>  <Name>
TAE684

>  <Uniprot>
Q86Z02

>  <Target>
HIPK1

>  <Smiles>
COC1=CC(N2CCC(N3CCN(C)CC3)CC2)=CC=C1NC1=NC=C(Cl)C(NC2=CC=CC=C2S(=O)(=O)C(C)C)=N1

>  <Kd (nM)>
4400

>  <Assay (Kd)>
Kd was assessed by competition binding assays

>  <Ki (nM)>


>  <Assay (Ki)>


>  <IC50 (nM)>


>  <Assay (IC50)>


>  <EC50 (nM)>


>  <Assay (EC50)>


>  <Article DOI>
10.1038/nbt.1990

>  <Molecular Weight>
614.216

>  <Exact Mass>
613.2601868

>  <XLogP3>
5.67

>  <Heavy Atom Count>
42

>  <Ring Count>
5

>  <Hydrogen Bond Acceptor Count>
10

>  <Hydrogen Bond Donor Count>
2

>  <Rotatable Bond Count>
9

>  <Topological Polar Surface Area>
102.93

>  <Molecular Formula>
C30H40ClN7O3S

>  <InChI>
InChI=1S/C30H40ClN7O3S/c1-21(2)42(39,40)28-8-6-5-7-26(28)33-29-24(31)20-32-30(35-29)34-25-10-9-23(19-27(25)41-4)37-13-11-22(12-14-37)38-17-15-36(3)16-18-38/h5-10,19-22H,11-18H2,1-4H3,(H2,32,33,34,35)

>  <InChI Key>
QQWUGDVOUVUTOY-UHFFFAOYSA-N

>  <BindingDB>
50242742

>  <PubChem>
16038120

>  <ChEMBL>
CHEMBL509032

$$$$
67
Actelion Java MolfileCreator 2.0

  0  0  0  0  0  0              0 V3000
M  V30 BEGIN CTAB
M  V30 COUNTS 42 46 0 0 0
M  V30 BEGIN ATOM
M  V30 1 Cl 0.0 3.75 0.0 0
M  V30 2 C 1.299 4.5 0.0 0
M  V30 3 C 2.598 3.75 0.0 0
M  V30 4 C 1.299 6.0 0.0 0
M  V30 5 N 3.8971 4.5 0.0 0
M  V30 6 N 2.598 2.25 0.0 0
M  V30 7 N 2.598 6.75 0.0 0
M  V30 8 C 3.8971 6.0 0.0 0
M  V30 9 C 3.8971 1.5 0.0 0
M  V30 10 N 5.1961 6.75 0.0 0
M  V30 11 C 3.8971 0.0 0.0 0
M  V30 12 C 5.1961 2.25 0.0 0
M  V30 13 C 5.1961 8.25 0.0 0
M  V30 14 S 2.598 -0.75 0.0 0
M  V30 15 C 5.1961 -0.75 0.0 0
M  V30 16 C 6.4951 1.5 0.0 0
M  V30 17 C 6.4951 9.0 0.0 0
M  V30 18 C 3.8971 9.0 0.0 0
M  V30 19 O 1.848 -2.049 0.0 0
M  V30 20 O 3.348 -2.049 0.0 0
M  V30 21 C 1.299 0.0 0.0 0
M  V30 22 C 6.4951 0.0 0.0 0
M  V30 23 O 7.7942 8.25 0.0 0
M  V30 24 C 6.4951 10.5 0.0 0
M  V30 25 C 3.8971 10.5 0.0 0
M  V30 26 C 1.299 1.5 0.0 0
M  V30 27 C 0.0 -0.75 0.0 0
M  V30 28 C 9.0932 9.0 0.0 0
M  V30 29 C 5.1961 11.25 0.0 0
M  V30 30 N 5.1961 12.75 0.0 0
M  V30 31 C 6.4951 13.5 0.0 0
M  V30 32 C 3.8971 13.5 0.0 0
M  V30 33 C 6.4951 15.0 0.0 0
M  V30 34 C 3.8971 15.0 0.0 0
M  V30 35 C 5.1961 15.75 0.0 0
M  V30 36 N 5.1961 17.25 0.0 0
M  V30 37 C 6.4951 18.0 0.0 0
M  V30 38 C 3.8971 18.0 0.0 0
M  V30 39 C 6.4951 19.5 0.0 0
M  V30 40 C 3.8971 19.5 0.0 0
M  V30 41 N 5.1961 20.25 0.0 0
M  V30 42 C 5.1961 21.75 0.0 0
M  V30 END ATOM
M  V30 BEGIN BOND
M  V30 1 1 1 2
M  V30 2 2 2 3
M  V30 3 1 2 4
M  V30 4 1 3 5
M  V30 5 1 3 6
M  V30 6 2 4 7
M  V30 7 2 5 8
M  V30 8 1 6 9
M  V30 9 1 8 10
M  V30 10 2 9 11
M  V30 11 1 9 12
M  V30 12 1 10 13
M  V30 13 1 11 14
M  V30 14 1 11 15
M  V30 15 2 12 16
M  V30 16 2 13 17
M  V30 17 1 13 18
M  V30 18 2 14 19
M  V30 19 2 14 20
M  V30 20 1 14 21
M  V30 21 2 15 22
M  V30 22 1 17 23
M  V30 23 1 17 24
M  V30 24 2 18 25
M  V30 25 1 21 26
M  V30 26 1 21 27
M  V30 27 1 23 28
M  V30 28 2 24 29
M  V30 29 1 29 30
M  V30 30 1 30 31
M  V30 31 1 30 32
M  V30 32 1 31 33
M  V30 33 1 32 34
M  V30 34 1 33 35
M  V30 35 1 35 36
M  V30 36 1 36 37
M  V30 37 1 36 38
M  V30 38 1 37 39
M  V30 39 1 38 40
M  V30 40 1 39 41
M  V30 41 1 41 42
M  V30 42 1 7 8
M  V30 43 1 16 22
M  V30 44 1 25 29
M  V30 45 1 34 35
M  V30 46 1 40 41
M  V30 END BOND
M  V30 END CTAB
M  END
>  <Molecule Name>
Compound 180

>  <Molecule Name 2>
Compound 180

>  <Compound ID>
67

>  <Name>
TAE684

>  <Uniprot>
Q9NWZ3

>  <Target>
IRAK4

>  <Smiles>
COC1=CC(N2CCC(N3CCN(C)CC3)CC2)=CC=C1NC1=NC=C(Cl)C(NC2=CC=CC=C2S(=O)(=O)C(C)C)=N1

>  <Kd (nM)>
77

>  <Assay (Kd)>
Kd was assessed by competition binding assays

>  <Ki (nM)>


>  <Assay (Ki)>


>  <IC50 (nM)>


>  <Assay (IC50)>


>  <EC50 (nM)>


>  <Assay (EC50)>


>  <Article DOI>
10.1038/nbt.1990

>  <Molecular Weight>
614.216

>  <Exact Mass>
613.2601868

>  <XLogP3>
5.67

>  <Heavy Atom Count>
42

>  <Ring Count>
5

>  <Hydrogen Bond Acceptor Count>
10

>  <Hydrogen Bond Donor Count>
2

>  <Rotatable Bond Count>
9

>  <Topological Polar Surface Area>
102.93

>  <Molecular Formula>
C30H40ClN7O3S

>  <InChI>
InChI=1S/C30H40ClN7O3S/c1-21(2)42(39,40)28-8-6-5-7-26(28)33-29-24(31)20-32-30(35-29)34-25-10-9-23(19-27(25)41-4)37-13-11-22(12-14-37)38-17-15-36(3)16-18-38/h5-10,19-22H,11-18H2,1-4H3,(H2,32,33,34,35)

>  <InChI Key>
QQWUGDVOUVUTOY-UHFFFAOYSA-N

>  <BindingDB>
50242742

>  <PubChem>
16038120

>  <ChEMBL>
CHEMBL509032

$$$$
67
Actelion Java MolfileCreator 2.0

  0  0  0  0  0  0              0 V3000
M  V30 BEGIN CTAB
M  V30 COUNTS 42 46 0 0 0
M  V30 BEGIN ATOM
M  V30 1 Cl 0.0 3.75 0.0 0
M  V30 2 C 1.299 4.5 0.0 0
M  V30 3 C 2.598 3.75 0.0 0
M  V30 4 C 1.299 6.0 0.0 0
M  V30 5 N 3.8971 4.5 0.0 0
M  V30 6 N 2.598 2.25 0.0 0
M  V30 7 N 2.598 6.75 0.0 0
M  V30 8 C 3.8971 6.0 0.0 0
M  V30 9 C 3.8971 1.5 0.0 0
M  V30 10 N 5.1961 6.75 0.0 0
M  V30 11 C 3.8971 0.0 0.0 0
M  V30 12 C 5.1961 2.25 0.0 0
M  V30 13 C 5.1961 8.25 0.0 0
M  V30 14 S 2.598 -0.75 0.0 0
M  V30 15 C 5.1961 -0.75 0.0 0
M  V30 16 C 6.4951 1.5 0.0 0
M  V30 17 C 6.4951 9.0 0.0 0
M  V30 18 C 3.8971 9.0 0.0 0
M  V30 19 O 1.848 -2.049 0.0 0
M  V30 20 O 3.348 -2.049 0.0 0
M  V30 21 C 1.299 0.0 0.0 0
M  V30 22 C 6.4951 0.0 0.0 0
M  V30 23 O 7.7942 8.25 0.0 0
M  V30 24 C 6.4951 10.5 0.0 0
M  V30 25 C 3.8971 10.5 0.0 0
M  V30 26 C 1.299 1.5 0.0 0
M  V30 27 C 0.0 -0.75 0.0 0
M  V30 28 C 9.0932 9.0 0.0 0
M  V30 29 C 5.1961 11.25 0.0 0
M  V30 30 N 5.1961 12.75 0.0 0
M  V30 31 C 6.4951 13.5 0.0 0
M  V30 32 C 3.8971 13.5 0.0 0
M  V30 33 C 6.4951 15.0 0.0 0
M  V30 34 C 3.8971 15.0 0.0 0
M  V30 35 C 5.1961 15.75 0.0 0
M  V30 36 N 5.1961 17.25 0.0 0
M  V30 37 C 6.4951 18.0 0.0 0
M  V30 38 C 3.8971 18.0 0.0 0
M  V30 39 C 6.4951 19.5 0.0 0
M  V30 40 C 3.8971 19.5 0.0 0
M  V30 41 N 5.1961 20.25 0.0 0
M  V30 42 C 5.1961 21.75 0.0 0
M  V30 END ATOM
M  V30 BEGIN BOND
M  V30 1 1 1 2
M  V30 2 2 2 3
M  V30 3 1 2 4
M  V30 4 1 3 5
M  V30 5 1 3 6
M  V30 6 2 4 7
M  V30 7 2 5 8
M  V30 8 1 6 9
M  V30 9 1 8 10
M  V30 10 2 9 11
M  V30 11 1 9 12
M  V30 12 1 10 13
M  V30 13 1 11 14
M  V30 14 1 11 15
M  V30 15 2 12 16
M  V30 16 2 13 17
M  V30 17 1 13 18
M  V30 18 2 14 19
M  V30 19 2 14 20
M  V30 20 1 14 21
M  V30 21 2 15 22
M  V30 22 1 17 23
M  V30 23 1 17 24
M  V30 24 2 18 25
M  V30 25 1 21 26
M  V30 26 1 21 27
M  V30 27 1 23 28
M  V30 28 2 24 29
M  V30 29 1 29 30
M  V30 30 1 30 31
M  V30 31 1 30 32
M  V30 32 1 31 33
M  V30 33 1 32 34
M  V30 34 1 33 35
M  V30 35 1 35 36
M  V30 36 1 36 37
M  V30 37 1 36 38
M  V30 38 1 37 39
M  V30 39 1 38 40
M  V30 40 1 39 41
M  V30 41 1 41 42
M  V30 42 1 7 8
M  V30 43 1 16 22
M  V30 44 1 25 29
M  V30 45 1 34 35
M  V30 46 1 40 41
M  V30 END BOND
M  V30 END CTAB
M  END
>  <Molecule Name>
Compound 181

>  <Molecule Name 2>
Compound 181

>  <Compound ID>
67

>  <Name>
TAE684

>  <Uniprot>
Q08881

>  <Target>
ITK

>  <Smiles>
COC1=CC(N2CCC(N3CCN(C)CC3)CC2)=CC=C1NC1=NC=C(Cl)C(NC2=CC=CC=C2S(=O)(=O)C(C)C)=N1

>  <Kd (nM)>
34

>  <Assay (Kd)>
Kd was assessed by competition binding assays

>  <Ki (nM)>


>  <Assay (Ki)>


>  <IC50 (nM)>


>  <Assay (IC50)>


>  <EC50 (nM)>


>  <Assay (EC50)>


>  <Article DOI>
10.1038/nbt.1990

>  <Molecular Weight>
614.216

>  <Exact Mass>
613.2601868

>  <XLogP3>
5.67

>  <Heavy Atom Count>
42

>  <Ring Count>
5

>  <Hydrogen Bond Acceptor Count>
10

>  <Hydrogen Bond Donor Count>
2

>  <Rotatable Bond Count>
9

>  <Topological Polar Surface Area>
102.93

>  <Molecular Formula>
C30H40ClN7O3S

>  <InChI>
InChI=1S/C30H40ClN7O3S/c1-21(2)42(39,40)28-8-6-5-7-26(28)33-29-24(31)20-32-30(35-29)34-25-10-9-23(19-27(25)41-4)37-13-11-22(12-14-37)38-17-15-36(3)16-18-38/h5-10,19-22H,11-18H2,1-4H3,(H2,32,33,34,35)

>  <InChI Key>
QQWUGDVOUVUTOY-UHFFFAOYSA-N

>  <BindingDB>
50242742

>  <PubChem>
16038120

>  <ChEMBL>
CHEMBL509032

$$$$
67
Actelion Java MolfileCreator 2.0

  0  0  0  0  0  0              0 V3000
M  V30 BEGIN CTAB
M  V30 COUNTS 42 46 0 0 0
M  V30 BEGIN ATOM
M  V30 1 Cl 0.0 3.75 0.0 0
M  V30 2 C 1.299 4.5 0.0 0
M  V30 3 C 2.598 3.75 0.0 0
M  V30 4 C 1.299 6.0 0.0 0
M  V30 5 N 3.8971 4.5 0.0 0
M  V30 6 N 2.598 2.25 0.0 0
M  V30 7 N 2.598 6.75 0.0 0
M  V30 8 C 3.8971 6.0 0.0 0
M  V30 9 C 3.8971 1.5 0.0 0
M  V30 10 N 5.1961 6.75 0.0 0
M  V30 11 C 3.8971 0.0 0.0 0
M  V30 12 C 5.1961 2.25 0.0 0
M  V30 13 C 5.1961 8.25 0.0 0
M  V30 14 S 2.598 -0.75 0.0 0
M  V30 15 C 5.1961 -0.75 0.0 0
M  V30 16 C 6.4951 1.5 0.0 0
M  V30 17 C 6.4951 9.0 0.0 0
M  V30 18 C 3.8971 9.0 0.0 0
M  V30 19 O 1.848 -2.049 0.0 0
M  V30 20 O 3.348 -2.049 0.0 0
M  V30 21 C 1.299 0.0 0.0 0
M  V30 22 C 6.4951 0.0 0.0 0
M  V30 23 O 7.7942 8.25 0.0 0
M  V30 24 C 6.4951 10.5 0.0 0
M  V30 25 C 3.8971 10.5 0.0 0
M  V30 26 C 1.299 1.5 0.0 0
M  V30 27 C 0.0 -0.75 0.0 0
M  V30 28 C 9.0932 9.0 0.0 0
M  V30 29 C 5.1961 11.25 0.0 0
M  V30 30 N 5.1961 12.75 0.0 0
M  V30 31 C 6.4951 13.5 0.0 0
M  V30 32 C 3.8971 13.5 0.0 0
M  V30 33 C 6.4951 15.0 0.0 0
M  V30 34 C 3.8971 15.0 0.0 0
M  V30 35 C 5.1961 15.75 0.0 0
M  V30 36 N 5.1961 17.25 0.0 0
M  V30 37 C 6.4951 18.0 0.0 0
M  V30 38 C 3.8971 18.0 0.0 0
M  V30 39 C 6.4951 19.5 0.0 0
M  V30 40 C 3.8971 19.5 0.0 0
M  V30 41 N 5.1961 20.25 0.0 0
M  V30 42 C 5.1961 21.75 0.0 0
M  V30 END ATOM
M  V30 BEGIN BOND
M  V30 1 1 1 2
M  V30 2 2 2 3
M  V30 3 1 2 4
M  V30 4 1 3 5
M  V30 5 1 3 6
M  V30 6 2 4 7
M  V30 7 2 5 8
M  V30 8 1 6 9
M  V30 9 1 8 10
M  V30 10 2 9 11
M  V30 11 1 9 12
M  V30 12 1 10 13
M  V30 13 1 11 14
M  V30 14 1 11 15
M  V30 15 2 12 16
M  V30 16 2 13 17
M  V30 17 1 13 18
M  V30 18 2 14 19
M  V30 19 2 14 20
M  V30 20 1 14 21
M  V30 21 2 15 22
M  V30 22 1 17 23
M  V30 23 1 17 24
M  V30 24 2 18 25
M  V30 25 1 21 26
M  V30 26 1 21 27
M  V30 27 1 23 28
M  V30 28 2 24 29
M  V30 29 1 29 30
M  V30 30 1 30 31
M  V30 31 1 30 32
M  V30 32 1 31 33
M  V30 33 1 32 34
M  V30 34 1 33 35
M  V30 35 1 35 36
M  V30 36 1 36 37
M  V30 37 1 36 38
M  V30 38 1 37 39
M  V30 39 1 38 40
M  V30 40 1 39 41
M  V30 41 1 41 42
M  V30 42 1 7 8
M  V30 43 1 16 22
M  V30 44 1 25 29
M  V30 45 1 34 35
M  V30 46 1 40 41
M  V30 END BOND
M  V30 END CTAB
M  END
>  <Molecule Name>
Compound 182

>  <Molecule Name 2>
Compound 182

>  <Compound ID>
67

>  <Name>
TAE684

>  <Uniprot>
O95835

>  <Target>
LATS1

>  <Smiles>
COC1=CC(N2CCC(N3CCN(C)CC3)CC2)=CC=C1NC1=NC=C(Cl)C(NC2=CC=CC=C2S(=O)(=O)C(C)C)=N1

>  <Kd (nM)>
1600

>  <Assay (Kd)>
Kd was assessed by competition binding assays

>  <Ki (nM)>


>  <Assay (Ki)>


>  <IC50 (nM)>


>  <Assay (IC50)>


>  <EC50 (nM)>


>  <Assay (EC50)>


>  <Article DOI>
10.1038/nbt.1990

>  <Molecular Weight>
614.216

>  <Exact Mass>
613.2601868

>  <XLogP3>
5.67

>  <Heavy Atom Count>
42

>  <Ring Count>
5

>  <Hydrogen Bond Acceptor Count>
10

>  <Hydrogen Bond Donor Count>
2

>  <Rotatable Bond Count>
9

>  <Topological Polar Surface Area>
102.93

>  <Molecular Formula>
C30H40ClN7O3S

>  <InChI>
InChI=1S/C30H40ClN7O3S/c1-21(2)42(39,40)28-8-6-5-7-26(28)33-29-24(31)20-32-30(35-29)34-25-10-9-23(19-27(25)41-4)37-13-11-22(12-14-37)38-17-15-36(3)16-18-38/h5-10,19-22H,11-18H2,1-4H3,(H2,32,33,34,35)

>  <InChI Key>
QQWUGDVOUVUTOY-UHFFFAOYSA-N

>  <BindingDB>
50242742

>  <PubChem>
16038120

>  <ChEMBL>
CHEMBL509032

$$$$
67
Actelion Java MolfileCreator 2.0

  0  0  0  0  0  0              0 V3000
M  V30 BEGIN CTAB
M  V30 COUNTS 42 46 0 0 0
M  V30 BEGIN ATOM
M  V30 1 Cl 0.0 3.75 0.0 0
M  V30 2 C 1.299 4.5 0.0 0
M  V30 3 C 2.598 3.75 0.0 0
M  V30 4 C 1.299 6.0 0.0 0
M  V30 5 N 3.8971 4.5 0.0 0
M  V30 6 N 2.598 2.25 0.0 0
M  V30 7 N 2.598 6.75 0.0 0
M  V30 8 C 3.8971 6.0 0.0 0
M  V30 9 C 3.8971 1.5 0.0 0
M  V30 10 N 5.1961 6.75 0.0 0
M  V30 11 C 3.8971 0.0 0.0 0
M  V30 12 C 5.1961 2.25 0.0 0
M  V30 13 C 5.1961 8.25 0.0 0
M  V30 14 S 2.598 -0.75 0.0 0
M  V30 15 C 5.1961 -0.75 0.0 0
M  V30 16 C 6.4951 1.5 0.0 0
M  V30 17 C 6.4951 9.0 0.0 0
M  V30 18 C 3.8971 9.0 0.0 0
M  V30 19 O 1.848 -2.049 0.0 0
M  V30 20 O 3.348 -2.049 0.0 0
M  V30 21 C 1.299 0.0 0.0 0
M  V30 22 C 6.4951 0.0 0.0 0
M  V30 23 O 7.7942 8.25 0.0 0
M  V30 24 C 6.4951 10.5 0.0 0
M  V30 25 C 3.8971 10.5 0.0 0
M  V30 26 C 1.299 1.5 0.0 0
M  V30 27 C 0.0 -0.75 0.0 0
M  V30 28 C 9.0932 9.0 0.0 0
M  V30 29 C 5.1961 11.25 0.0 0
M  V30 30 N 5.1961 12.75 0.0 0
M  V30 31 C 6.4951 13.5 0.0 0
M  V30 32 C 3.8971 13.5 0.0 0
M  V30 33 C 6.4951 15.0 0.0 0
M  V30 34 C 3.8971 15.0 0.0 0
M  V30 35 C 5.1961 15.75 0.0 0
M  V30 36 N 5.1961 17.25 0.0 0
M  V30 37 C 6.4951 18.0 0.0 0
M  V30 38 C 3.8971 18.0 0.0 0
M  V30 39 C 6.4951 19.5 0.0 0
M  V30 40 C 3.8971 19.5 0.0 0
M  V30 41 N 5.1961 20.25 0.0 0
M  V30 42 C 5.1961 21.75 0.0 0
M  V30 END ATOM
M  V30 BEGIN BOND
M  V30 1 1 1 2
M  V30 2 2 2 3
M  V30 3 1 2 4
M  V30 4 1 3 5
M  V30 5 1 3 6
M  V30 6 2 4 7
M  V30 7 2 5 8
M  V30 8 1 6 9
M  V30 9 1 8 10
M  V30 10 2 9 11
M  V30 11 1 9 12
M  V30 12 1 10 13
M  V30 13 1 11 14
M  V30 14 1 11 15
M  V30 15 2 12 16
M  V30 16 2 13 17
M  V30 17 1 13 18
M  V30 18 2 14 19
M  V30 19 2 14 20
M  V30 20 1 14 21
M  V30 21 2 15 22
M  V30 22 1 17 23
M  V30 23 1 17 24
M  V30 24 2 18 25
M  V30 25 1 21 26
M  V30 26 1 21 27
M  V30 27 1 23 28
M  V30 28 2 24 29
M  V30 29 1 29 30
M  V30 30 1 30 31
M  V30 31 1 30 32
M  V30 32 1 31 33
M  V30 33 1 32 34
M  V30 34 1 33 35
M  V30 35 1 35 36
M  V30 36 1 36 37
M  V30 37 1 36 38
M  V30 38 1 37 39
M  V30 39 1 38 40
M  V30 40 1 39 41
M  V30 41 1 41 42
M  V30 42 1 7 8
M  V30 43 1 16 22
M  V30 44 1 25 29
M  V30 45 1 34 35
M  V30 46 1 40 41
M  V30 END BOND
M  V30 END CTAB
M  END
>  <Molecule Name>
Compound 183

>  <Molecule Name 2>
Compound 183

>  <Compound ID>
67

>  <Name>
TAE684

>  <Uniprot>
P06239

>  <Target>
LCK

>  <Smiles>
COC1=CC(N2CCC(N3CCN(C)CC3)CC2)=CC=C1NC1=NC=C(Cl)C(NC2=CC=CC=C2S(=O)(=O)C(C)C)=N1

>  <Kd (nM)>
49

>  <Assay (Kd)>
Kd was assessed by competition binding assays

>  <Ki (nM)>


>  <Assay (Ki)>


>  <IC50 (nM)>


>  <Assay (IC50)>


>  <EC50 (nM)>


>  <Assay (EC50)>


>  <Article DOI>
10.1038/nbt.1990

>  <Molecular Weight>
614.216

>  <Exact Mass>
613.2601868

>  <XLogP3>
5.67

>  <Heavy Atom Count>
42

>  <Ring Count>
5

>  <Hydrogen Bond Acceptor Count>
10

>  <Hydrogen Bond Donor Count>
2

>  <Rotatable Bond Count>
9

>  <Topological Polar Surface Area>
102.93

>  <Molecular Formula>
C30H40ClN7O3S

>  <InChI>
InChI=1S/C30H40ClN7O3S/c1-21(2)42(39,40)28-8-6-5-7-26(28)33-29-24(31)20-32-30(35-29)34-25-10-9-23(19-27(25)41-4)37-13-11-22(12-14-37)38-17-15-36(3)16-18-38/h5-10,19-22H,11-18H2,1-4H3,(H2,32,33,34,35)

>  <InChI Key>
QQWUGDVOUVUTOY-UHFFFAOYSA-N

>  <BindingDB>
50242742

>  <PubChem>
16038120

>  <ChEMBL>
CHEMBL509032

$$$$
67
Actelion Java MolfileCreator 2.0

  0  0  0  0  0  0              0 V3000
M  V30 BEGIN CTAB
M  V30 COUNTS 42 46 0 0 0
M  V30 BEGIN ATOM
M  V30 1 Cl 0.0 3.75 0.0 0
M  V30 2 C 1.299 4.5 0.0 0
M  V30 3 C 2.598 3.75 0.0 0
M  V30 4 C 1.299 6.0 0.0 0
M  V30 5 N 3.8971 4.5 0.0 0
M  V30 6 N 2.598 2.25 0.0 0
M  V30 7 N 2.598 6.75 0.0 0
M  V30 8 C 3.8971 6.0 0.0 0
M  V30 9 C 3.8971 1.5 0.0 0
M  V30 10 N 5.1961 6.75 0.0 0
M  V30 11 C 3.8971 0.0 0.0 0
M  V30 12 C 5.1961 2.25 0.0 0
M  V30 13 C 5.1961 8.25 0.0 0
M  V30 14 S 2.598 -0.75 0.0 0
M  V30 15 C 5.1961 -0.75 0.0 0
M  V30 16 C 6.4951 1.5 0.0 0
M  V30 17 C 6.4951 9.0 0.0 0
M  V30 18 C 3.8971 9.0 0.0 0
M  V30 19 O 1.848 -2.049 0.0 0
M  V30 20 O 3.348 -2.049 0.0 0
M  V30 21 C 1.299 0.0 0.0 0
M  V30 22 C 6.4951 0.0 0.0 0
M  V30 23 O 7.7942 8.25 0.0 0
M  V30 24 C 6.4951 10.5 0.0 0
M  V30 25 C 3.8971 10.5 0.0 0
M  V30 26 C 1.299 1.5 0.0 0
M  V30 27 C 0.0 -0.75 0.0 0
M  V30 28 C 9.0932 9.0 0.0 0
M  V30 29 C 5.1961 11.25 0.0 0
M  V30 30 N 5.1961 12.75 0.0 0
M  V30 31 C 6.4951 13.5 0.0 0
M  V30 32 C 3.8971 13.5 0.0 0
M  V30 33 C 6.4951 15.0 0.0 0
M  V30 34 C 3.8971 15.0 0.0 0
M  V30 35 C 5.1961 15.75 0.0 0
M  V30 36 N 5.1961 17.25 0.0 0
M  V30 37 C 6.4951 18.0 0.0 0
M  V30 38 C 3.8971 18.0 0.0 0
M  V30 39 C 6.4951 19.5 0.0 0
M  V30 40 C 3.8971 19.5 0.0 0
M  V30 41 N 5.1961 20.25 0.0 0
M  V30 42 C 5.1961 21.75 0.0 0
M  V30 END ATOM
M  V30 BEGIN BOND
M  V30 1 1 1 2
M  V30 2 2 2 3
M  V30 3 1 2 4
M  V30 4 1 3 5
M  V30 5 1 3 6
M  V30 6 2 4 7
M  V30 7 2 5 8
M  V30 8 1 6 9
M  V30 9 1 8 10
M  V30 10 2 9 11
M  V30 11 1 9 12
M  V30 12 1 10 13
M  V30 13 1 11 14
M  V30 14 1 11 15
M  V30 15 2 12 16
M  V30 16 2 13 17
M  V30 17 1 13 18
M  V30 18 2 14 19
M  V30 19 2 14 20
M  V30 20 1 14 21
M  V30 21 2 15 22
M  V30 22 1 17 23
M  V30 23 1 17 24
M  V30 24 2 18 25
M  V30 25 1 21 26
M  V30 26 1 21 27
M  V30 27 1 23 28
M  V30 28 2 24 29
M  V30 29 1 29 30
M  V30 30 1 30 31
M  V30 31 1 30 32
M  V30 32 1 31 33
M  V30 33 1 32 34
M  V30 34 1 33 35
M  V30 35 1 35 36
M  V30 36 1 36 37
M  V30 37 1 36 38
M  V30 38 1 37 39
M  V30 39 1 38 40
M  V30 40 1 39 41
M  V30 41 1 41 42
M  V30 42 1 7 8
M  V30 43 1 16 22
M  V30 44 1 25 29
M  V30 45 1 34 35
M  V30 46 1 40 41
M  V30 END BOND
M  V30 END CTAB
M  END
>  <Molecule Name>
Compound 184

>  <Molecule Name 2>
Compound 184

>  <Compound ID>
67

>  <Name>
TAE684

>  <Uniprot>
P53667

>  <Target>
LIMK1

>  <Smiles>
COC1=CC(N2CCC(N3CCN(C)CC3)CC2)=CC=C1NC1=NC=C(Cl)C(NC2=CC=CC=C2S(=O)(=O)C(C)C)=N1

>  <Kd (nM)>
1100

>  <Assay (Kd)>
Kd was assessed by competition binding assays

>  <Ki (nM)>


>  <Assay (Ki)>


>  <IC50 (nM)>


>  <Assay (IC50)>


>  <EC50 (nM)>


>  <Assay (EC50)>


>  <Article DOI>
10.1038/nbt.1990

>  <Molecular Weight>
614.216

>  <Exact Mass>
613.2601868

>  <XLogP3>
5.67

>  <Heavy Atom Count>
42

>  <Ring Count>
5

>  <Hydrogen Bond Acceptor Count>
10

>  <Hydrogen Bond Donor Count>
2

>  <Rotatable Bond Count>
9

>  <Topological Polar Surface Area>
102.93

>  <Molecular Formula>
C30H40ClN7O3S

>  <InChI>
InChI=1S/C30H40ClN7O3S/c1-21(2)42(39,40)28-8-6-5-7-26(28)33-29-24(31)20-32-30(35-29)34-25-10-9-23(19-27(25)41-4)37-13-11-22(12-14-37)38-17-15-36(3)16-18-38/h5-10,19-22H,11-18H2,1-4H3,(H2,32,33,34,35)

>  <InChI Key>
QQWUGDVOUVUTOY-UHFFFAOYSA-N

>  <BindingDB>
50242742

>  <PubChem>
16038120

>  <ChEMBL>
CHEMBL509032

$$$$
67
Actelion Java MolfileCreator 2.0

  0  0  0  0  0  0              0 V3000
M  V30 BEGIN CTAB
M  V30 COUNTS 42 46 0 0 0
M  V30 BEGIN ATOM
M  V30 1 Cl 0.0 3.75 0.0 0
M  V30 2 C 1.299 4.5 0.0 0
M  V30 3 C 2.598 3.75 0.0 0
M  V30 4 C 1.299 6.0 0.0 0
M  V30 5 N 3.8971 4.5 0.0 0
M  V30 6 N 2.598 2.25 0.0 0
M  V30 7 N 2.598 6.75 0.0 0
M  V30 8 C 3.8971 6.0 0.0 0
M  V30 9 C 3.8971 1.5 0.0 0
M  V30 10 N 5.1961 6.75 0.0 0
M  V30 11 C 3.8971 0.0 0.0 0
M  V30 12 C 5.1961 2.25 0.0 0
M  V30 13 C 5.1961 8.25 0.0 0
M  V30 14 S 2.598 -0.75 0.0 0
M  V30 15 C 5.1961 -0.75 0.0 0
M  V30 16 C 6.4951 1.5 0.0 0
M  V30 17 C 6.4951 9.0 0.0 0
M  V30 18 C 3.8971 9.0 0.0 0
M  V30 19 O 1.848 -2.049 0.0 0
M  V30 20 O 3.348 -2.049 0.0 0
M  V30 21 C 1.299 0.0 0.0 0
M  V30 22 C 6.4951 0.0 0.0 0
M  V30 23 O 7.7942 8.25 0.0 0
M  V30 24 C 6.4951 10.5 0.0 0
M  V30 25 C 3.8971 10.5 0.0 0
M  V30 26 C 1.299 1.5 0.0 0
M  V30 27 C 0.0 -0.75 0.0 0
M  V30 28 C 9.0932 9.0 0.0 0
M  V30 29 C 5.1961 11.25 0.0 0
M  V30 30 N 5.1961 12.75 0.0 0
M  V30 31 C 6.4951 13.5 0.0 0
M  V30 32 C 3.8971 13.5 0.0 0
M  V30 33 C 6.4951 15.0 0.0 0
M  V30 34 C 3.8971 15.0 0.0 0
M  V30 35 C 5.1961 15.75 0.0 0
M  V30 36 N 5.1961 17.25 0.0 0
M  V30 37 C 6.4951 18.0 0.0 0
M  V30 38 C 3.8971 18.0 0.0 0
M  V30 39 C 6.4951 19.5 0.0 0
M  V30 40 C 3.8971 19.5 0.0 0
M  V30 41 N 5.1961 20.25 0.0 0
M  V30 42 C 5.1961 21.75 0.0 0
M  V30 END ATOM
M  V30 BEGIN BOND
M  V30 1 1 1 2
M  V30 2 2 2 3
M  V30 3 1 2 4
M  V30 4 1 3 5
M  V30 5 1 3 6
M  V30 6 2 4 7
M  V30 7 2 5 8
M  V30 8 1 6 9
M  V30 9 1 8 10
M  V30 10 2 9 11
M  V30 11 1 9 12
M  V30 12 1 10 13
M  V30 13 1 11 14
M  V30 14 1 11 15
M  V30 15 2 12 16
M  V30 16 2 13 17
M  V30 17 1 13 18
M  V30 18 2 14 19
M  V30 19 2 14 20
M  V30 20 1 14 21
M  V30 21 2 15 22
M  V30 22 1 17 23
M  V30 23 1 17 24
M  V30 24 2 18 25
M  V30 25 1 21 26
M  V30 26 1 21 27
M  V30 27 1 23 28
M  V30 28 2 24 29
M  V30 29 1 29 30
M  V30 30 1 30 31
M  V30 31 1 30 32
M  V30 32 1 31 33
M  V30 33 1 32 34
M  V30 34 1 33 35
M  V30 35 1 35 36
M  V30 36 1 36 37
M  V30 37 1 36 38
M  V30 38 1 37 39
M  V30 39 1 38 40
M  V30 40 1 39 41
M  V30 41 1 41 42
M  V30 42 1 7 8
M  V30 43 1 16 22
M  V30 44 1 25 29
M  V30 45 1 34 35
M  V30 46 1 40 41
M  V30 END BOND
M  V30 END CTAB
M  END
>  <Molecule Name>
Compound 185

>  <Molecule Name 2>
Compound 185

>  <Compound ID>
67

>  <Name>
TAE684

>  <Uniprot>
P53671

>  <Target>
LIMK2

>  <Smiles>
COC1=CC(N2CCC(N3CCN(C)CC3)CC2)=CC=C1NC1=NC=C(Cl)C(NC2=CC=CC=C2S(=O)(=O)C(C)C)=N1

>  <Kd (nM)>
1100

>  <Assay (Kd)>
Kd was assessed by competition binding assays

>  <Ki (nM)>


>  <Assay (Ki)>


>  <IC50 (nM)>


>  <Assay (IC50)>


>  <EC50 (nM)>


>  <Assay (EC50)>


>  <Article DOI>
10.1038/nbt.1990

>  <Molecular Weight>
614.216

>  <Exact Mass>
613.2601868

>  <XLogP3>
5.67

>  <Heavy Atom Count>
42

>  <Ring Count>
5

>  <Hydrogen Bond Acceptor Count>
10

>  <Hydrogen Bond Donor Count>
2

>  <Rotatable Bond Count>
9

>  <Topological Polar Surface Area>
102.93

>  <Molecular Formula>
C30H40ClN7O3S

>  <InChI>
InChI=1S/C30H40ClN7O3S/c1-21(2)42(39,40)28-8-6-5-7-26(28)33-29-24(31)20-32-30(35-29)34-25-10-9-23(19-27(25)41-4)37-13-11-22(12-14-37)38-17-15-36(3)16-18-38/h5-10,19-22H,11-18H2,1-4H3,(H2,32,33,34,35)

>  <InChI Key>
QQWUGDVOUVUTOY-UHFFFAOYSA-N

>  <BindingDB>
50242742

>  <PubChem>
16038120

>  <ChEMBL>
CHEMBL509032

$$$$
67
Actelion Java MolfileCreator 2.0

  0  0  0  0  0  0              0 V3000
M  V30 BEGIN CTAB
M  V30 COUNTS 42 46 0 0 0
M  V30 BEGIN ATOM
M  V30 1 Cl 0.0 3.75 0.0 0
M  V30 2 C 1.299 4.5 0.0 0
M  V30 3 C 2.598 3.75 0.0 0
M  V30 4 C 1.299 6.0 0.0 0
M  V30 5 N 3.8971 4.5 0.0 0
M  V30 6 N 2.598 2.25 0.0 0
M  V30 7 N 2.598 6.75 0.0 0
M  V30 8 C 3.8971 6.0 0.0 0
M  V30 9 C 3.8971 1.5 0.0 0
M  V30 10 N 5.1961 6.75 0.0 0
M  V30 11 C 3.8971 0.0 0.0 0
M  V30 12 C 5.1961 2.25 0.0 0
M  V30 13 C 5.1961 8.25 0.0 0
M  V30 14 S 2.598 -0.75 0.0 0
M  V30 15 C 5.1961 -0.75 0.0 0
M  V30 16 C 6.4951 1.5 0.0 0
M  V30 17 C 6.4951 9.0 0.0 0
M  V30 18 C 3.8971 9.0 0.0 0
M  V30 19 O 1.848 -2.049 0.0 0
M  V30 20 O 3.348 -2.049 0.0 0
M  V30 21 C 1.299 0.0 0.0 0
M  V30 22 C 6.4951 0.0 0.0 0
M  V30 23 O 7.7942 8.25 0.0 0
M  V30 24 C 6.4951 10.5 0.0 0
M  V30 25 C 3.8971 10.5 0.0 0
M  V30 26 C 1.299 1.5 0.0 0
M  V30 27 C 0.0 -0.75 0.0 0
M  V30 28 C 9.0932 9.0 0.0 0
M  V30 29 C 5.1961 11.25 0.0 0
M  V30 30 N 5.1961 12.75 0.0 0
M  V30 31 C 6.4951 13.5 0.0 0
M  V30 32 C 3.8971 13.5 0.0 0
M  V30 33 C 6.4951 15.0 0.0 0
M  V30 34 C 3.8971 15.0 0.0 0
M  V30 35 C 5.1961 15.75 0.0 0
M  V30 36 N 5.1961 17.25 0.0 0
M  V30 37 C 6.4951 18.0 0.0 0
M  V30 38 C 3.8971 18.0 0.0 0
M  V30 39 C 6.4951 19.5 0.0 0
M  V30 40 C 3.8971 19.5 0.0 0
M  V30 41 N 5.1961 20.25 0.0 0
M  V30 42 C 5.1961 21.75 0.0 0
M  V30 END ATOM
M  V30 BEGIN BOND
M  V30 1 1 1 2
M  V30 2 2 2 3
M  V30 3 1 2 4
M  V30 4 1 3 5
M  V30 5 1 3 6
M  V30 6 2 4 7
M  V30 7 2 5 8
M  V30 8 1 6 9
M  V30 9 1 8 10
M  V30 10 2 9 11
M  V30 11 1 9 12
M  V30 12 1 10 13
M  V30 13 1 11 14
M  V30 14 1 11 15
M  V30 15 2 12 16
M  V30 16 2 13 17
M  V30 17 1 13 18
M  V30 18 2 14 19
M  V30 19 2 14 20
M  V30 20 1 14 21
M  V30 21 2 15 22
M  V30 22 1 17 23
M  V30 23 1 17 24
M  V30 24 2 18 25
M  V30 25 1 21 26
M  V30 26 1 21 27
M  V30 27 1 23 28
M  V30 28 2 24 29
M  V30 29 1 29 30
M  V30 30 1 30 31
M  V30 31 1 30 32
M  V30 32 1 31 33
M  V30 33 1 32 34
M  V30 34 1 33 35
M  V30 35 1 35 36
M  V30 36 1 36 37
M  V30 37 1 36 38
M  V30 38 1 37 39
M  V30 39 1 38 40
M  V30 40 1 39 41
M  V30 41 1 41 42
M  V30 42 1 7 8
M  V30 43 1 16 22
M  V30 44 1 25 29
M  V30 45 1 34 35
M  V30 46 1 40 41
M  V30 END BOND
M  V30 END CTAB
M  END
>  <Molecule Name>
Compound 186

>  <Molecule Name 2>
Compound 186

>  <Compound ID>
67

>  <Name>
TAE684

>  <Uniprot>
Q5S007

>  <Target>
LRRK2

>  <Smiles>
COC1=CC(N2CCC(N3CCN(C)CC3)CC2)=CC=C1NC1=NC=C(Cl)C(NC2=CC=CC=C2S(=O)(=O)C(C)C)=N1

>  <Kd (nM)>
1.4

>  <Assay (Kd)>
Kd was assessed by competition binding assays

>  <Ki (nM)>


>  <Assay (Ki)>


>  <IC50 (nM)>


>  <Assay (IC50)>


>  <EC50 (nM)>


>  <Assay (EC50)>


>  <Article DOI>
10.1038/nbt.1990

>  <Molecular Weight>
614.216

>  <Exact Mass>
613.2601868

>  <XLogP3>
5.67

>  <Heavy Atom Count>
42

>  <Ring Count>
5

>  <Hydrogen Bond Acceptor Count>
10

>  <Hydrogen Bond Donor Count>
2

>  <Rotatable Bond Count>
9

>  <Topological Polar Surface Area>
102.93

>  <Molecular Formula>
C30H40ClN7O3S

>  <InChI>
InChI=1S/C30H40ClN7O3S/c1-21(2)42(39,40)28-8-6-5-7-26(28)33-29-24(31)20-32-30(35-29)34-25-10-9-23(19-27(25)41-4)37-13-11-22(12-14-37)38-17-15-36(3)16-18-38/h5-10,19-22H,11-18H2,1-4H3,(H2,32,33,34,35)

>  <InChI Key>
QQWUGDVOUVUTOY-UHFFFAOYSA-N

>  <BindingDB>
50242742

>  <PubChem>
16038120

>  <ChEMBL>
CHEMBL509032

$$$$
67
Actelion Java MolfileCreator 2.0

  0  0  0  0  0  0              0 V3000
M  V30 BEGIN CTAB
M  V30 COUNTS 42 46 0 0 0
M  V30 BEGIN ATOM
M  V30 1 Cl 0.0 3.75 0.0 0
M  V30 2 C 1.299 4.5 0.0 0
M  V30 3 C 2.598 3.75 0.0 0
M  V30 4 C 1.299 6.0 0.0 0
M  V30 5 N 3.8971 4.5 0.0 0
M  V30 6 N 2.598 2.25 0.0 0
M  V30 7 N 2.598 6.75 0.0 0
M  V30 8 C 3.8971 6.0 0.0 0
M  V30 9 C 3.8971 1.5 0.0 0
M  V30 10 N 5.1961 6.75 0.0 0
M  V30 11 C 3.8971 0.0 0.0 0
M  V30 12 C 5.1961 2.25 0.0 0
M  V30 13 C 5.1961 8.25 0.0 0
M  V30 14 S 2.598 -0.75 0.0 0
M  V30 15 C 5.1961 -0.75 0.0 0
M  V30 16 C 6.4951 1.5 0.0 0
M  V30 17 C 6.4951 9.0 0.0 0
M  V30 18 C 3.8971 9.0 0.0 0
M  V30 19 O 1.848 -2.049 0.0 0
M  V30 20 O 3.348 -2.049 0.0 0
M  V30 21 C 1.299 0.0 0.0 0
M  V30 22 C 6.4951 0.0 0.0 0
M  V30 23 O 7.7942 8.25 0.0 0
M  V30 24 C 6.4951 10.5 0.0 0
M  V30 25 C 3.8971 10.5 0.0 0
M  V30 26 C 1.299 1.5 0.0 0
M  V30 27 C 0.0 -0.75 0.0 0
M  V30 28 C 9.0932 9.0 0.0 0
M  V30 29 C 5.1961 11.25 0.0 0
M  V30 30 N 5.1961 12.75 0.0 0
M  V30 31 C 6.4951 13.5 0.0 0
M  V30 32 C 3.8971 13.5 0.0 0
M  V30 33 C 6.4951 15.0 0.0 0
M  V30 34 C 3.8971 15.0 0.0 0
M  V30 35 C 5.1961 15.75 0.0 0
M  V30 36 N 5.1961 17.25 0.0 0
M  V30 37 C 6.4951 18.0 0.0 0
M  V30 38 C 3.8971 18.0 0.0 0
M  V30 39 C 6.4951 19.5 0.0 0
M  V30 40 C 3.8971 19.5 0.0 0
M  V30 41 N 5.1961 20.25 0.0 0
M  V30 42 C 5.1961 21.75 0.0 0
M  V30 END ATOM
M  V30 BEGIN BOND
M  V30 1 1 1 2
M  V30 2 2 2 3
M  V30 3 1 2 4
M  V30 4 1 3 5
M  V30 5 1 3 6
M  V30 6 2 4 7
M  V30 7 2 5 8
M  V30 8 1 6 9
M  V30 9 1 8 10
M  V30 10 2 9 11
M  V30 11 1 9 12
M  V30 12 1 10 13
M  V30 13 1 11 14
M  V30 14 1 11 15
M  V30 15 2 12 16
M  V30 16 2 13 17
M  V30 17 1 13 18
M  V30 18 2 14 19
M  V30 19 2 14 20
M  V30 20 1 14 21
M  V30 21 2 15 22
M  V30 22 1 17 23
M  V30 23 1 17 24
M  V30 24 2 18 25
M  V30 25 1 21 26
M  V30 26 1 21 27
M  V30 27 1 23 28
M  V30 28 2 24 29
M  V30 29 1 29 30
M  V30 30 1 30 31
M  V30 31 1 30 32
M  V30 32 1 31 33
M  V30 33 1 32 34
M  V30 34 1 33 35
M  V30 35 1 35 36
M  V30 36 1 36 37
M  V30 37 1 36 38
M  V30 38 1 37 39
M  V30 39 1 38 40
M  V30 40 1 39 41
M  V30 41 1 41 42
M  V30 42 1 7 8
M  V30 43 1 16 22
M  V30 44 1 25 29
M  V30 45 1 34 35
M  V30 46 1 40 41
M  V30 END BOND
M  V30 END CTAB
M  END
>  <Molecule Name>
Compound 187

>  <Molecule Name 2>
Compound 187

>  <Compound ID>
67

>  <Name>
TAE684

>  <Uniprot>
Q16584

>  <Target>
MAP3K11

>  <Smiles>
COC1=CC(N2CCC(N3CCN(C)CC3)CC2)=CC=C1NC1=NC=C(Cl)C(NC2=CC=CC=C2S(=O)(=O)C(C)C)=N1

>  <Kd (nM)>
420

>  <Assay (Kd)>
Kd was assessed by competition binding assays

>  <Ki (nM)>


>  <Assay (Ki)>


>  <IC50 (nM)>


>  <Assay (IC50)>


>  <EC50 (nM)>


>  <Assay (EC50)>


>  <Article DOI>
10.1038/nbt.1990

>  <Molecular Weight>
614.216

>  <Exact Mass>
613.2601868

>  <XLogP3>
5.67

>  <Heavy Atom Count>
42

>  <Ring Count>
5

>  <Hydrogen Bond Acceptor Count>
10

>  <Hydrogen Bond Donor Count>
2

>  <Rotatable Bond Count>
9

>  <Topological Polar Surface Area>
102.93

>  <Molecular Formula>
C30H40ClN7O3S

>  <InChI>
InChI=1S/C30H40ClN7O3S/c1-21(2)42(39,40)28-8-6-5-7-26(28)33-29-24(31)20-32-30(35-29)34-25-10-9-23(19-27(25)41-4)37-13-11-22(12-14-37)38-17-15-36(3)16-18-38/h5-10,19-22H,11-18H2,1-4H3,(H2,32,33,34,35)

>  <InChI Key>
QQWUGDVOUVUTOY-UHFFFAOYSA-N

>  <BindingDB>
50242742

>  <PubChem>
16038120

>  <ChEMBL>
CHEMBL509032

$$$$
67
Actelion Java MolfileCreator 2.0

  0  0  0  0  0  0              0 V3000
M  V30 BEGIN CTAB
M  V30 COUNTS 42 46 0 0 0
M  V30 BEGIN ATOM
M  V30 1 Cl 0.0 3.75 0.0 0
M  V30 2 C 1.299 4.5 0.0 0
M  V30 3 C 2.598 3.75 0.0 0
M  V30 4 C 1.299 6.0 0.0 0
M  V30 5 N 3.8971 4.5 0.0 0
M  V30 6 N 2.598 2.25 0.0 0
M  V30 7 N 2.598 6.75 0.0 0
M  V30 8 C 3.8971 6.0 0.0 0
M  V30 9 C 3.8971 1.5 0.0 0
M  V30 10 N 5.1961 6.75 0.0 0
M  V30 11 C 3.8971 0.0 0.0 0
M  V30 12 C 5.1961 2.25 0.0 0
M  V30 13 C 5.1961 8.25 0.0 0
M  V30 14 S 2.598 -0.75 0.0 0
M  V30 15 C 5.1961 -0.75 0.0 0
M  V30 16 C 6.4951 1.5 0.0 0
M  V30 17 C 6.4951 9.0 0.0 0
M  V30 18 C 3.8971 9.0 0.0 0
M  V30 19 O 1.848 -2.049 0.0 0
M  V30 20 O 3.348 -2.049 0.0 0
M  V30 21 C 1.299 0.0 0.0 0
M  V30 22 C 6.4951 0.0 0.0 0
M  V30 23 O 7.7942 8.25 0.0 0
M  V30 24 C 6.4951 10.5 0.0 0
M  V30 25 C 3.8971 10.5 0.0 0
M  V30 26 C 1.299 1.5 0.0 0
M  V30 27 C 0.0 -0.75 0.0 0
M  V30 28 C 9.0932 9.0 0.0 0
M  V30 29 C 5.1961 11.25 0.0 0
M  V30 30 N 5.1961 12.75 0.0 0
M  V30 31 C 6.4951 13.5 0.0 0
M  V30 32 C 3.8971 13.5 0.0 0
M  V30 33 C 6.4951 15.0 0.0 0
M  V30 34 C 3.8971 15.0 0.0 0
M  V30 35 C 5.1961 15.75 0.0 0
M  V30 36 N 5.1961 17.25 0.0 0
M  V30 37 C 6.4951 18.0 0.0 0
M  V30 38 C 3.8971 18.0 0.0 0
M  V30 39 C 6.4951 19.5 0.0 0
M  V30 40 C 3.8971 19.5 0.0 0
M  V30 41 N 5.1961 20.25 0.0 0
M  V30 42 C 5.1961 21.75 0.0 0
M  V30 END ATOM
M  V30 BEGIN BOND
M  V30 1 1 1 2
M  V30 2 2 2 3
M  V30 3 1 2 4
M  V30 4 1 3 5
M  V30 5 1 3 6
M  V30 6 2 4 7
M  V30 7 2 5 8
M  V30 8 1 6 9
M  V30 9 1 8 10
M  V30 10 2 9 11
M  V30 11 1 9 12
M  V30 12 1 10 13
M  V30 13 1 11 14
M  V30 14 1 11 15
M  V30 15 2 12 16
M  V30 16 2 13 17
M  V30 17 1 13 18
M  V30 18 2 14 19
M  V30 19 2 14 20
M  V30 20 1 14 21
M  V30 21 2 15 22
M  V30 22 1 17 23
M  V30 23 1 17 24
M  V30 24 2 18 25
M  V30 25 1 21 26
M  V30 26 1 21 27
M  V30 27 1 23 28
M  V30 28 2 24 29
M  V30 29 1 29 30
M  V30 30 1 30 31
M  V30 31 1 30 32
M  V30 32 1 31 33
M  V30 33 1 32 34
M  V30 34 1 33 35
M  V30 35 1 35 36
M  V30 36 1 36 37
M  V30 37 1 36 38
M  V30 38 1 37 39
M  V30 39 1 38 40
M  V30 40 1 39 41
M  V30 41 1 41 42
M  V30 42 1 7 8
M  V30 43 1 16 22
M  V30 44 1 25 29
M  V30 45 1 34 35
M  V30 46 1 40 41
M  V30 END BOND
M  V30 END CTAB
M  END
>  <Molecule Name>
Compound 188

>  <Molecule Name 2>
Compound 188

>  <Compound ID>
67

>  <Name>
TAE684

>  <Uniprot>
Q12852

>  <Target>
MAP3K12

>  <Smiles>
COC1=CC(N2CCC(N3CCN(C)CC3)CC2)=CC=C1NC1=NC=C(Cl)C(NC2=CC=CC=C2S(=O)(=O)C(C)C)=N1

>  <Kd (nM)>


>  <Assay (Kd)>


>  <Ki (nM)>


>  <Assay (Ki)>


>  <IC50 (nM)>


>  <Assay (IC50)>


>  <EC50 (nM)>


>  <Assay (EC50)>


>  <Article DOI>
10.1016/j.cell.2020.10.038

>  <Molecular Weight>
614.216

>  <Exact Mass>
613.2601868

>  <XLogP3>
5.67

>  <Heavy Atom Count>
42

>  <Ring Count>
5

>  <Hydrogen Bond Acceptor Count>
10

>  <Hydrogen Bond Donor Count>
2

>  <Rotatable Bond Count>
9

>  <Topological Polar Surface Area>
102.93

>  <Molecular Formula>
C30H40ClN7O3S

>  <InChI>
InChI=1S/C30H40ClN7O3S/c1-21(2)42(39,40)28-8-6-5-7-26(28)33-29-24(31)20-32-30(35-29)34-25-10-9-23(19-27(25)41-4)37-13-11-22(12-14-37)38-17-15-36(3)16-18-38/h5-10,19-22H,11-18H2,1-4H3,(H2,32,33,34,35)

>  <InChI Key>
QQWUGDVOUVUTOY-UHFFFAOYSA-N

>  <BindingDB>
50242742

>  <PubChem>
16038120

>  <ChEMBL>
CHEMBL509032

$$$$
67
Actelion Java MolfileCreator 2.0

  0  0  0  0  0  0              0 V3000
M  V30 BEGIN CTAB
M  V30 COUNTS 42 46 0 0 0
M  V30 BEGIN ATOM
M  V30 1 Cl 0.0 3.75 0.0 0
M  V30 2 C 1.299 4.5 0.0 0
M  V30 3 C 2.598 3.75 0.0 0
M  V30 4 C 1.299 6.0 0.0 0
M  V30 5 N 3.8971 4.5 0.0 0
M  V30 6 N 2.598 2.25 0.0 0
M  V30 7 N 2.598 6.75 0.0 0
M  V30 8 C 3.8971 6.0 0.0 0
M  V30 9 C 3.8971 1.5 0.0 0
M  V30 10 N 5.1961 6.75 0.0 0
M  V30 11 C 3.8971 0.0 0.0 0
M  V30 12 C 5.1961 2.25 0.0 0
M  V30 13 C 5.1961 8.25 0.0 0
M  V30 14 S 2.598 -0.75 0.0 0
M  V30 15 C 5.1961 -0.75 0.0 0
M  V30 16 C 6.4951 1.5 0.0 0
M  V30 17 C 6.4951 9.0 0.0 0
M  V30 18 C 3.8971 9.0 0.0 0
M  V30 19 O 1.848 -2.049 0.0 0
M  V30 20 O 3.348 -2.049 0.0 0
M  V30 21 C 1.299 0.0 0.0 0
M  V30 22 C 6.4951 0.0 0.0 0
M  V30 23 O 7.7942 8.25 0.0 0
M  V30 24 C 6.4951 10.5 0.0 0
M  V30 25 C 3.8971 10.5 0.0 0
M  V30 26 C 1.299 1.5 0.0 0
M  V30 27 C 0.0 -0.75 0.0 0
M  V30 28 C 9.0932 9.0 0.0 0
M  V30 29 C 5.1961 11.25 0.0 0
M  V30 30 N 5.1961 12.75 0.0 0
M  V30 31 C 6.4951 13.5 0.0 0
M  V30 32 C 3.8971 13.5 0.0 0
M  V30 33 C 6.4951 15.0 0.0 0
M  V30 34 C 3.8971 15.0 0.0 0
M  V30 35 C 5.1961 15.75 0.0 0
M  V30 36 N 5.1961 17.25 0.0 0
M  V30 37 C 6.4951 18.0 0.0 0
M  V30 38 C 3.8971 18.0 0.0 0
M  V30 39 C 6.4951 19.5 0.0 0
M  V30 40 C 3.8971 19.5 0.0 0
M  V30 41 N 5.1961 20.25 0.0 0
M  V30 42 C 5.1961 21.75 0.0 0
M  V30 END ATOM
M  V30 BEGIN BOND
M  V30 1 1 1 2
M  V30 2 2 2 3
M  V30 3 1 2 4
M  V30 4 1 3 5
M  V30 5 1 3 6
M  V30 6 2 4 7
M  V30 7 2 5 8
M  V30 8 1 6 9
M  V30 9 1 8 10
M  V30 10 2 9 11
M  V30 11 1 9 12
M  V30 12 1 10 13
M  V30 13 1 11 14
M  V30 14 1 11 15
M  V30 15 2 12 16
M  V30 16 2 13 17
M  V30 17 1 13 18
M  V30 18 2 14 19
M  V30 19 2 14 20
M  V30 20 1 14 21
M  V30 21 2 15 22
M  V30 22 1 17 23
M  V30 23 1 17 24
M  V30 24 2 18 25
M  V30 25 1 21 26
M  V30 26 1 21 27
M  V30 27 1 23 28
M  V30 28 2 24 29
M  V30 29 1 29 30
M  V30 30 1 30 31
M  V30 31 1 30 32
M  V30 32 1 31 33
M  V30 33 1 32 34
M  V30 34 1 33 35
M  V30 35 1 35 36
M  V30 36 1 36 37
M  V30 37 1 36 38
M  V30 38 1 37 39
M  V30 39 1 38 40
M  V30 40 1 39 41
M  V30 41 1 41 42
M  V30 42 1 7 8
M  V30 43 1 16 22
M  V30 44 1 25 29
M  V30 45 1 34 35
M  V30 46 1 40 41
M  V30 END BOND
M  V30 END CTAB
M  END
>  <Molecule Name>
Compound 189

>  <Molecule Name 2>
Compound 189

>  <Compound ID>
67

>  <Name>
TAE684

>  <Uniprot>
Q13233

>  <Target>
MAP3K1

>  <Smiles>
COC1=CC(N2CCC(N3CCN(C)CC3)CC2)=CC=C1NC1=NC=C(Cl)C(NC2=CC=CC=C2S(=O)(=O)C(C)C)=N1

>  <Kd (nM)>
4300

>  <Assay (Kd)>
Kd was assessed by competition binding assays

>  <Ki (nM)>


>  <Assay (Ki)>


>  <IC50 (nM)>


>  <Assay (IC50)>


>  <EC50 (nM)>


>  <Assay (EC50)>


>  <Article DOI>
10.1038/nbt.1990

>  <Molecular Weight>
614.216

>  <Exact Mass>
613.2601868

>  <XLogP3>
5.67

>  <Heavy Atom Count>
42

>  <Ring Count>
5

>  <Hydrogen Bond Acceptor Count>
10

>  <Hydrogen Bond Donor Count>
2

>  <Rotatable Bond Count>
9

>  <Topological Polar Surface Area>
102.93

>  <Molecular Formula>
C30H40ClN7O3S

>  <InChI>
InChI=1S/C30H40ClN7O3S/c1-21(2)42(39,40)28-8-6-5-7-26(28)33-29-24(31)20-32-30(35-29)34-25-10-9-23(19-27(25)41-4)37-13-11-22(12-14-37)38-17-15-36(3)16-18-38/h5-10,19-22H,11-18H2,1-4H3,(H2,32,33,34,35)

>  <InChI Key>
QQWUGDVOUVUTOY-UHFFFAOYSA-N

>  <BindingDB>
50242742

>  <PubChem>
16038120

>  <ChEMBL>
CHEMBL509032

$$$$
67
Actelion Java MolfileCreator 2.0

  0  0  0  0  0  0              0 V3000
M  V30 BEGIN CTAB
M  V30 COUNTS 42 46 0 0 0
M  V30 BEGIN ATOM
M  V30 1 Cl 0.0 3.75 0.0 0
M  V30 2 C 1.299 4.5 0.0 0
M  V30 3 C 2.598 3.75 0.0 0
M  V30 4 C 1.299 6.0 0.0 0
M  V30 5 N 3.8971 4.5 0.0 0
M  V30 6 N 2.598 2.25 0.0 0
M  V30 7 N 2.598 6.75 0.0 0
M  V30 8 C 3.8971 6.0 0.0 0
M  V30 9 C 3.8971 1.5 0.0 0
M  V30 10 N 5.1961 6.75 0.0 0
M  V30 11 C 3.8971 0.0 0.0 0
M  V30 12 C 5.1961 2.25 0.0 0
M  V30 13 C 5.1961 8.25 0.0 0
M  V30 14 S 2.598 -0.75 0.0 0
M  V30 15 C 5.1961 -0.75 0.0 0
M  V30 16 C 6.4951 1.5 0.0 0
M  V30 17 C 6.4951 9.0 0.0 0
M  V30 18 C 3.8971 9.0 0.0 0
M  V30 19 O 1.848 -2.049 0.0 0
M  V30 20 O 3.348 -2.049 0.0 0
M  V30 21 C 1.299 0.0 0.0 0
M  V30 22 C 6.4951 0.0 0.0 0
M  V30 23 O 7.7942 8.25 0.0 0
M  V30 24 C 6.4951 10.5 0.0 0
M  V30 25 C 3.8971 10.5 0.0 0
M  V30 26 C 1.299 1.5 0.0 0
M  V30 27 C 0.0 -0.75 0.0 0
M  V30 28 C 9.0932 9.0 0.0 0
M  V30 29 C 5.1961 11.25 0.0 0
M  V30 30 N 5.1961 12.75 0.0 0
M  V30 31 C 6.4951 13.5 0.0 0
M  V30 32 C 3.8971 13.5 0.0 0
M  V30 33 C 6.4951 15.0 0.0 0
M  V30 34 C 3.8971 15.0 0.0 0
M  V30 35 C 5.1961 15.75 0.0 0
M  V30 36 N 5.1961 17.25 0.0 0
M  V30 37 C 6.4951 18.0 0.0 0
M  V30 38 C 3.8971 18.0 0.0 0
M  V30 39 C 6.4951 19.5 0.0 0
M  V30 40 C 3.8971 19.5 0.0 0
M  V30 41 N 5.1961 20.25 0.0 0
M  V30 42 C 5.1961 21.75 0.0 0
M  V30 END ATOM
M  V30 BEGIN BOND
M  V30 1 1 1 2
M  V30 2 2 2 3
M  V30 3 1 2 4
M  V30 4 1 3 5
M  V30 5 1 3 6
M  V30 6 2 4 7
M  V30 7 2 5 8
M  V30 8 1 6 9
M  V30 9 1 8 10
M  V30 10 2 9 11
M  V30 11 1 9 12
M  V30 12 1 10 13
M  V30 13 1 11 14
M  V30 14 1 11 15
M  V30 15 2 12 16
M  V30 16 2 13 17
M  V30 17 1 13 18
M  V30 18 2 14 19
M  V30 19 2 14 20
M  V30 20 1 14 21
M  V30 21 2 15 22
M  V30 22 1 17 23
M  V30 23 1 17 24
M  V30 24 2 18 25
M  V30 25 1 21 26
M  V30 26 1 21 27
M  V30 27 1 23 28
M  V30 28 2 24 29
M  V30 29 1 29 30
M  V30 30 1 30 31
M  V30 31 1 30 32
M  V30 32 1 31 33
M  V30 33 1 32 34
M  V30 34 1 33 35
M  V30 35 1 35 36
M  V30 36 1 36 37
M  V30 37 1 36 38
M  V30 38 1 37 39
M  V30 39 1 38 40
M  V30 40 1 39 41
M  V30 41 1 41 42
M  V30 42 1 7 8
M  V30 43 1 16 22
M  V30 44 1 25 29
M  V30 45 1 34 35
M  V30 46 1 40 41
M  V30 END BOND
M  V30 END CTAB
M  END
>  <Molecule Name>
Compound 190

>  <Molecule Name 2>
Compound 190

>  <Compound ID>
67

>  <Name>
TAE684

>  <Uniprot>
Q5TCX8

>  <Target>
MAP3K21

>  <Smiles>
COC1=CC(N2CCC(N3CCN(C)CC3)CC2)=CC=C1NC1=NC=C(Cl)C(NC2=CC=CC=C2S(=O)(=O)C(C)C)=N1

>  <Kd (nM)>


>  <Assay (Kd)>


>  <Ki (nM)>


>  <Assay (Ki)>


>  <IC50 (nM)>


>  <Assay (IC50)>


>  <EC50 (nM)>


>  <Assay (EC50)>


>  <Article DOI>
10.1016/j.cell.2020.10.038

>  <Molecular Weight>
614.216

>  <Exact Mass>
613.2601868

>  <XLogP3>
5.67

>  <Heavy Atom Count>
42

>  <Ring Count>
5

>  <Hydrogen Bond Acceptor Count>
10

>  <Hydrogen Bond Donor Count>
2

>  <Rotatable Bond Count>
9

>  <Topological Polar Surface Area>
102.93

>  <Molecular Formula>
C30H40ClN7O3S

>  <InChI>
InChI=1S/C30H40ClN7O3S/c1-21(2)42(39,40)28-8-6-5-7-26(28)33-29-24(31)20-32-30(35-29)34-25-10-9-23(19-27(25)41-4)37-13-11-22(12-14-37)38-17-15-36(3)16-18-38/h5-10,19-22H,11-18H2,1-4H3,(H2,32,33,34,35)

>  <InChI Key>
QQWUGDVOUVUTOY-UHFFFAOYSA-N

>  <BindingDB>
50242742

>  <PubChem>
16038120

>  <ChEMBL>
CHEMBL509032

$$$$
67
Actelion Java MolfileCreator 2.0

  0  0  0  0  0  0              0 V3000
M  V30 BEGIN CTAB
M  V30 COUNTS 42 46 0 0 0
M  V30 BEGIN ATOM
M  V30 1 Cl 0.0 3.75 0.0 0
M  V30 2 C 1.299 4.5 0.0 0
M  V30 3 C 2.598 3.75 0.0 0
M  V30 4 C 1.299 6.0 0.0 0
M  V30 5 N 3.8971 4.5 0.0 0
M  V30 6 N 2.598 2.25 0.0 0
M  V30 7 N 2.598 6.75 0.0 0
M  V30 8 C 3.8971 6.0 0.0 0
M  V30 9 C 3.8971 1.5 0.0 0
M  V30 10 N 5.1961 6.75 0.0 0
M  V30 11 C 3.8971 0.0 0.0 0
M  V30 12 C 5.1961 2.25 0.0 0
M  V30 13 C 5.1961 8.25 0.0 0
M  V30 14 S 2.598 -0.75 0.0 0
M  V30 15 C 5.1961 -0.75 0.0 0
M  V30 16 C 6.4951 1.5 0.0 0
M  V30 17 C 6.4951 9.0 0.0 0
M  V30 18 C 3.8971 9.0 0.0 0
M  V30 19 O 1.848 -2.049 0.0 0
M  V30 20 O 3.348 -2.049 0.0 0
M  V30 21 C 1.299 0.0 0.0 0
M  V30 22 C 6.4951 0.0 0.0 0
M  V30 23 O 7.7942 8.25 0.0 0
M  V30 24 C 6.4951 10.5 0.0 0
M  V30 25 C 3.8971 10.5 0.0 0
M  V30 26 C 1.299 1.5 0.0 0
M  V30 27 C 0.0 -0.75 0.0 0
M  V30 28 C 9.0932 9.0 0.0 0
M  V30 29 C 5.1961 11.25 0.0 0
M  V30 30 N 5.1961 12.75 0.0 0
M  V30 31 C 6.4951 13.5 0.0 0
M  V30 32 C 3.8971 13.5 0.0 0
M  V30 33 C 6.4951 15.0 0.0 0
M  V30 34 C 3.8971 15.0 0.0 0
M  V30 35 C 5.1961 15.75 0.0 0
M  V30 36 N 5.1961 17.25 0.0 0
M  V30 37 C 6.4951 18.0 0.0 0
M  V30 38 C 3.8971 18.0 0.0 0
M  V30 39 C 6.4951 19.5 0.0 0
M  V30 40 C 3.8971 19.5 0.0 0
M  V30 41 N 5.1961 20.25 0.0 0
M  V30 42 C 5.1961 21.75 0.0 0
M  V30 END ATOM
M  V30 BEGIN BOND
M  V30 1 1 1 2
M  V30 2 2 2 3
M  V30 3 1 2 4
M  V30 4 1 3 5
M  V30 5 1 3 6
M  V30 6 2 4 7
M  V30 7 2 5 8
M  V30 8 1 6 9
M  V30 9 1 8 10
M  V30 10 2 9 11
M  V30 11 1 9 12
M  V30 12 1 10 13
M  V30 13 1 11 14
M  V30 14 1 11 15
M  V30 15 2 12 16
M  V30 16 2 13 17
M  V30 17 1 13 18
M  V30 18 2 14 19
M  V30 19 2 14 20
M  V30 20 1 14 21
M  V30 21 2 15 22
M  V30 22 1 17 23
M  V30 23 1 17 24
M  V30 24 2 18 25
M  V30 25 1 21 26
M  V30 26 1 21 27
M  V30 27 1 23 28
M  V30 28 2 24 29
M  V30 29 1 29 30
M  V30 30 1 30 31
M  V30 31 1 30 32
M  V30 32 1 31 33
M  V30 33 1 32 34
M  V30 34 1 33 35
M  V30 35 1 35 36
M  V30 36 1 36 37
M  V30 37 1 36 38
M  V30 38 1 37 39
M  V30 39 1 38 40
M  V30 40 1 39 41
M  V30 41 1 41 42
M  V30 42 1 7 8
M  V30 43 1 16 22
M  V30 44 1 25 29
M  V30 45 1 34 35
M  V30 46 1 40 41
M  V30 END BOND
M  V30 END CTAB
M  END
>  <Molecule Name>
Compound 191

>  <Molecule Name 2>
Compound 191

>  <Compound ID>
67

>  <Name>
TAE684

>  <Uniprot>
Q92918

>  <Target>
MAP4K1

>  <Smiles>
COC1=CC(N2CCC(N3CCN(C)CC3)CC2)=CC=C1NC1=NC=C(Cl)C(NC2=CC=CC=C2S(=O)(=O)C(C)C)=N1

>  <Kd (nM)>
140

>  <Assay (Kd)>
Kd was assessed by competition binding assays

>  <Ki (nM)>


>  <Assay (Ki)>


>  <IC50 (nM)>


>  <Assay (IC50)>


>  <EC50 (nM)>


>  <Assay (EC50)>


>  <Article DOI>
10.1038/nbt.1990

>  <Molecular Weight>
614.216

>  <Exact Mass>
613.2601868

>  <XLogP3>
5.67

>  <Heavy Atom Count>
42

>  <Ring Count>
5

>  <Hydrogen Bond Acceptor Count>
10

>  <Hydrogen Bond Donor Count>
2

>  <Rotatable Bond Count>
9

>  <Topological Polar Surface Area>
102.93

>  <Molecular Formula>
C30H40ClN7O3S

>  <InChI>
InChI=1S/C30H40ClN7O3S/c1-21(2)42(39,40)28-8-6-5-7-26(28)33-29-24(31)20-32-30(35-29)34-25-10-9-23(19-27(25)41-4)37-13-11-22(12-14-37)38-17-15-36(3)16-18-38/h5-10,19-22H,11-18H2,1-4H3,(H2,32,33,34,35)

>  <InChI Key>
QQWUGDVOUVUTOY-UHFFFAOYSA-N

>  <BindingDB>
50242742

>  <PubChem>
16038120

>  <ChEMBL>
CHEMBL509032

$$$$
67
Actelion Java MolfileCreator 2.0

  0  0  0  0  0  0              0 V3000
M  V30 BEGIN CTAB
M  V30 COUNTS 42 46 0 0 0
M  V30 BEGIN ATOM
M  V30 1 Cl 0.0 3.75 0.0 0
M  V30 2 C 1.299 4.5 0.0 0
M  V30 3 C 2.598 3.75 0.0 0
M  V30 4 C 1.299 6.0 0.0 0
M  V30 5 N 3.8971 4.5 0.0 0
M  V30 6 N 2.598 2.25 0.0 0
M  V30 7 N 2.598 6.75 0.0 0
M  V30 8 C 3.8971 6.0 0.0 0
M  V30 9 C 3.8971 1.5 0.0 0
M  V30 10 N 5.1961 6.75 0.0 0
M  V30 11 C 3.8971 0.0 0.0 0
M  V30 12 C 5.1961 2.25 0.0 0
M  V30 13 C 5.1961 8.25 0.0 0
M  V30 14 S 2.598 -0.75 0.0 0
M  V30 15 C 5.1961 -0.75 0.0 0
M  V30 16 C 6.4951 1.5 0.0 0
M  V30 17 C 6.4951 9.0 0.0 0
M  V30 18 C 3.8971 9.0 0.0 0
M  V30 19 O 1.848 -2.049 0.0 0
M  V30 20 O 3.348 -2.049 0.0 0
M  V30 21 C 1.299 0.0 0.0 0
M  V30 22 C 6.4951 0.0 0.0 0
M  V30 23 O 7.7942 8.25 0.0 0
M  V30 24 C 6.4951 10.5 0.0 0
M  V30 25 C 3.8971 10.5 0.0 0
M  V30 26 C 1.299 1.5 0.0 0
M  V30 27 C 0.0 -0.75 0.0 0
M  V30 28 C 9.0932 9.0 0.0 0
M  V30 29 C 5.1961 11.25 0.0 0
M  V30 30 N 5.1961 12.75 0.0 0
M  V30 31 C 6.4951 13.5 0.0 0
M  V30 32 C 3.8971 13.5 0.0 0
M  V30 33 C 6.4951 15.0 0.0 0
M  V30 34 C 3.8971 15.0 0.0 0
M  V30 35 C 5.1961 15.75 0.0 0
M  V30 36 N 5.1961 17.25 0.0 0
M  V30 37 C 6.4951 18.0 0.0 0
M  V30 38 C 3.8971 18.0 0.0 0
M  V30 39 C 6.4951 19.5 0.0 0
M  V30 40 C 3.8971 19.5 0.0 0
M  V30 41 N 5.1961 20.25 0.0 0
M  V30 42 C 5.1961 21.75 0.0 0
M  V30 END ATOM
M  V30 BEGIN BOND
M  V30 1 1 1 2
M  V30 2 2 2 3
M  V30 3 1 2 4
M  V30 4 1 3 5
M  V30 5 1 3 6
M  V30 6 2 4 7
M  V30 7 2 5 8
M  V30 8 1 6 9
M  V30 9 1 8 10
M  V30 10 2 9 11
M  V30 11 1 9 12
M  V30 12 1 10 13
M  V30 13 1 11 14
M  V30 14 1 11 15
M  V30 15 2 12 16
M  V30 16 2 13 17
M  V30 17 1 13 18
M  V30 18 2 14 19
M  V30 19 2 14 20
M  V30 20 1 14 21
M  V30 21 2 15 22
M  V30 22 1 17 23
M  V30 23 1 17 24
M  V30 24 2 18 25
M  V30 25 1 21 26
M  V30 26 1 21 27
M  V30 27 1 23 28
M  V30 28 2 24 29
M  V30 29 1 29 30
M  V30 30 1 30 31
M  V30 31 1 30 32
M  V30 32 1 31 33
M  V30 33 1 32 34
M  V30 34 1 33 35
M  V30 35 1 35 36
M  V30 36 1 36 37
M  V30 37 1 36 38
M  V30 38 1 37 39
M  V30 39 1 38 40
M  V30 40 1 39 41
M  V30 41 1 41 42
M  V30 42 1 7 8
M  V30 43 1 16 22
M  V30 44 1 25 29
M  V30 45 1 34 35
M  V30 46 1 40 41
M  V30 END BOND
M  V30 END CTAB
M  END
>  <Molecule Name>
Compound 192

>  <Molecule Name 2>
Compound 192

>  <Compound ID>
67

>  <Name>
TAE684

>  <Uniprot>
Q12851

>  <Target>
MAP4K2

>  <Smiles>
COC1=CC(N2CCC(N3CCN(C)CC3)CC2)=CC=C1NC1=NC=C(Cl)C(NC2=CC=CC=C2S(=O)(=O)C(C)C)=N1

>  <Kd (nM)>
190

>  <Assay (Kd)>
Kd was assessed by competition binding assays

>  <Ki (nM)>


>  <Assay (Ki)>


>  <IC50 (nM)>


>  <Assay (IC50)>


>  <EC50 (nM)>


>  <Assay (EC50)>


>  <Article DOI>
10.1038/nbt.1990

>  <Molecular Weight>
614.216

>  <Exact Mass>
613.2601868

>  <XLogP3>
5.67

>  <Heavy Atom Count>
42

>  <Ring Count>
5

>  <Hydrogen Bond Acceptor Count>
10

>  <Hydrogen Bond Donor Count>
2

>  <Rotatable Bond Count>
9

>  <Topological Polar Surface Area>
102.93

>  <Molecular Formula>
C30H40ClN7O3S

>  <InChI>
InChI=1S/C30H40ClN7O3S/c1-21(2)42(39,40)28-8-6-5-7-26(28)33-29-24(31)20-32-30(35-29)34-25-10-9-23(19-27(25)41-4)37-13-11-22(12-14-37)38-17-15-36(3)16-18-38/h5-10,19-22H,11-18H2,1-4H3,(H2,32,33,34,35)

>  <InChI Key>
QQWUGDVOUVUTOY-UHFFFAOYSA-N

>  <BindingDB>
50242742

>  <PubChem>
16038120

>  <ChEMBL>
CHEMBL509032

$$$$
67
Actelion Java MolfileCreator 2.0

  0  0  0  0  0  0              0 V3000
M  V30 BEGIN CTAB
M  V30 COUNTS 42 46 0 0 0
M  V30 BEGIN ATOM
M  V30 1 Cl 0.0 3.75 0.0 0
M  V30 2 C 1.299 4.5 0.0 0
M  V30 3 C 2.598 3.75 0.0 0
M  V30 4 C 1.299 6.0 0.0 0
M  V30 5 N 3.8971 4.5 0.0 0
M  V30 6 N 2.598 2.25 0.0 0
M  V30 7 N 2.598 6.75 0.0 0
M  V30 8 C 3.8971 6.0 0.0 0
M  V30 9 C 3.8971 1.5 0.0 0
M  V30 10 N 5.1961 6.75 0.0 0
M  V30 11 C 3.8971 0.0 0.0 0
M  V30 12 C 5.1961 2.25 0.0 0
M  V30 13 C 5.1961 8.25 0.0 0
M  V30 14 S 2.598 -0.75 0.0 0
M  V30 15 C 5.1961 -0.75 0.0 0
M  V30 16 C 6.4951 1.5 0.0 0
M  V30 17 C 6.4951 9.0 0.0 0
M  V30 18 C 3.8971 9.0 0.0 0
M  V30 19 O 1.848 -2.049 0.0 0
M  V30 20 O 3.348 -2.049 0.0 0
M  V30 21 C 1.299 0.0 0.0 0
M  V30 22 C 6.4951 0.0 0.0 0
M  V30 23 O 7.7942 8.25 0.0 0
M  V30 24 C 6.4951 10.5 0.0 0
M  V30 25 C 3.8971 10.5 0.0 0
M  V30 26 C 1.299 1.5 0.0 0
M  V30 27 C 0.0 -0.75 0.0 0
M  V30 28 C 9.0932 9.0 0.0 0
M  V30 29 C 5.1961 11.25 0.0 0
M  V30 30 N 5.1961 12.75 0.0 0
M  V30 31 C 6.4951 13.5 0.0 0
M  V30 32 C 3.8971 13.5 0.0 0
M  V30 33 C 6.4951 15.0 0.0 0
M  V30 34 C 3.8971 15.0 0.0 0
M  V30 35 C 5.1961 15.75 0.0 0
M  V30 36 N 5.1961 17.25 0.0 0
M  V30 37 C 6.4951 18.0 0.0 0
M  V30 38 C 3.8971 18.0 0.0 0
M  V30 39 C 6.4951 19.5 0.0 0
M  V30 40 C 3.8971 19.5 0.0 0
M  V30 41 N 5.1961 20.25 0.0 0
M  V30 42 C 5.1961 21.75 0.0 0
M  V30 END ATOM
M  V30 BEGIN BOND
M  V30 1 1 1 2
M  V30 2 2 2 3
M  V30 3 1 2 4
M  V30 4 1 3 5
M  V30 5 1 3 6
M  V30 6 2 4 7
M  V30 7 2 5 8
M  V30 8 1 6 9
M  V30 9 1 8 10
M  V30 10 2 9 11
M  V30 11 1 9 12
M  V30 12 1 10 13
M  V30 13 1 11 14
M  V30 14 1 11 15
M  V30 15 2 12 16
M  V30 16 2 13 17
M  V30 17 1 13 18
M  V30 18 2 14 19
M  V30 19 2 14 20
M  V30 20 1 14 21
M  V30 21 2 15 22
M  V30 22 1 17 23
M  V30 23 1 17 24
M  V30 24 2 18 25
M  V30 25 1 21 26
M  V30 26 1 21 27
M  V30 27 1 23 28
M  V30 28 2 24 29
M  V30 29 1 29 30
M  V30 30 1 30 31
M  V30 31 1 30 32
M  V30 32 1 31 33
M  V30 33 1 32 34
M  V30 34 1 33 35
M  V30 35 1 35 36
M  V30 36 1 36 37
M  V30 37 1 36 38
M  V30 38 1 37 39
M  V30 39 1 38 40
M  V30 40 1 39 41
M  V30 41 1 41 42
M  V30 42 1 7 8
M  V30 43 1 16 22
M  V30 44 1 25 29
M  V30 45 1 34 35
M  V30 46 1 40 41
M  V30 END BOND
M  V30 END CTAB
M  END
>  <Molecule Name>
Compound 193

>  <Molecule Name 2>
Compound 193

>  <Compound ID>
67

>  <Name>
TAE684

>  <Uniprot>
Q8IVH8

>  <Target>
MAP4K3

>  <Smiles>
COC1=CC(N2CCC(N3CCN(C)CC3)CC2)=CC=C1NC1=NC=C(Cl)C(NC2=CC=CC=C2S(=O)(=O)C(C)C)=N1

>  <Kd (nM)>
65

>  <Assay (Kd)>
Kd was assessed by competition binding assays

>  <Ki (nM)>


>  <Assay (Ki)>


>  <IC50 (nM)>


>  <Assay (IC50)>


>  <EC50 (nM)>


>  <Assay (EC50)>


>  <Article DOI>
10.1038/nbt.1990

>  <Molecular Weight>
614.216

>  <Exact Mass>
613.2601868

>  <XLogP3>
5.67

>  <Heavy Atom Count>
42

>  <Ring Count>
5

>  <Hydrogen Bond Acceptor Count>
10

>  <Hydrogen Bond Donor Count>
2

>  <Rotatable Bond Count>
9

>  <Topological Polar Surface Area>
102.93

>  <Molecular Formula>
C30H40ClN7O3S

>  <InChI>
InChI=1S/C30H40ClN7O3S/c1-21(2)42(39,40)28-8-6-5-7-26(28)33-29-24(31)20-32-30(35-29)34-25-10-9-23(19-27(25)41-4)37-13-11-22(12-14-37)38-17-15-36(3)16-18-38/h5-10,19-22H,11-18H2,1-4H3,(H2,32,33,34,35)

>  <InChI Key>
QQWUGDVOUVUTOY-UHFFFAOYSA-N

>  <BindingDB>
50242742

>  <PubChem>
16038120

>  <ChEMBL>
CHEMBL509032

$$$$
67
Actelion Java MolfileCreator 2.0

  0  0  0  0  0  0              0 V3000
M  V30 BEGIN CTAB
M  V30 COUNTS 42 46 0 0 0
M  V30 BEGIN ATOM
M  V30 1 Cl 0.0 3.75 0.0 0
M  V30 2 C 1.299 4.5 0.0 0
M  V30 3 C 2.598 3.75 0.0 0
M  V30 4 C 1.299 6.0 0.0 0
M  V30 5 N 3.8971 4.5 0.0 0
M  V30 6 N 2.598 2.25 0.0 0
M  V30 7 N 2.598 6.75 0.0 0
M  V30 8 C 3.8971 6.0 0.0 0
M  V30 9 C 3.8971 1.5 0.0 0
M  V30 10 N 5.1961 6.75 0.0 0
M  V30 11 C 3.8971 0.0 0.0 0
M  V30 12 C 5.1961 2.25 0.0 0
M  V30 13 C 5.1961 8.25 0.0 0
M  V30 14 S 2.598 -0.75 0.0 0
M  V30 15 C 5.1961 -0.75 0.0 0
M  V30 16 C 6.4951 1.5 0.0 0
M  V30 17 C 6.4951 9.0 0.0 0
M  V30 18 C 3.8971 9.0 0.0 0
M  V30 19 O 1.848 -2.049 0.0 0
M  V30 20 O 3.348 -2.049 0.0 0
M  V30 21 C 1.299 0.0 0.0 0
M  V30 22 C 6.4951 0.0 0.0 0
M  V30 23 O 7.7942 8.25 0.0 0
M  V30 24 C 6.4951 10.5 0.0 0
M  V30 25 C 3.8971 10.5 0.0 0
M  V30 26 C 1.299 1.5 0.0 0
M  V30 27 C 0.0 -0.75 0.0 0
M  V30 28 C 9.0932 9.0 0.0 0
M  V30 29 C 5.1961 11.25 0.0 0
M  V30 30 N 5.1961 12.75 0.0 0
M  V30 31 C 6.4951 13.5 0.0 0
M  V30 32 C 3.8971 13.5 0.0 0
M  V30 33 C 6.4951 15.0 0.0 0
M  V30 34 C 3.8971 15.0 0.0 0
M  V30 35 C 5.1961 15.75 0.0 0
M  V30 36 N 5.1961 17.25 0.0 0
M  V30 37 C 6.4951 18.0 0.0 0
M  V30 38 C 3.8971 18.0 0.0 0
M  V30 39 C 6.4951 19.5 0.0 0
M  V30 40 C 3.8971 19.5 0.0 0
M  V30 41 N 5.1961 20.25 0.0 0
M  V30 42 C 5.1961 21.75 0.0 0
M  V30 END ATOM
M  V30 BEGIN BOND
M  V30 1 1 1 2
M  V30 2 2 2 3
M  V30 3 1 2 4
M  V30 4 1 3 5
M  V30 5 1 3 6
M  V30 6 2 4 7
M  V30 7 2 5 8
M  V30 8 1 6 9
M  V30 9 1 8 10
M  V30 10 2 9 11
M  V30 11 1 9 12
M  V30 12 1 10 13
M  V30 13 1 11 14
M  V30 14 1 11 15
M  V30 15 2 12 16
M  V30 16 2 13 17
M  V30 17 1 13 18
M  V30 18 2 14 19
M  V30 19 2 14 20
M  V30 20 1 14 21
M  V30 21 2 15 22
M  V30 22 1 17 23
M  V30 23 1 17 24
M  V30 24 2 18 25
M  V30 25 1 21 26
M  V30 26 1 21 27
M  V30 27 1 23 28
M  V30 28 2 24 29
M  V30 29 1 29 30
M  V30 30 1 30 31
M  V30 31 1 30 32
M  V30 32 1 31 33
M  V30 33 1 32 34
M  V30 34 1 33 35
M  V30 35 1 35 36
M  V30 36 1 36 37
M  V30 37 1 36 38
M  V30 38 1 37 39
M  V30 39 1 38 40
M  V30 40 1 39 41
M  V30 41 1 41 42
M  V30 42 1 7 8
M  V30 43 1 16 22
M  V30 44 1 25 29
M  V30 45 1 34 35
M  V30 46 1 40 41
M  V30 END BOND
M  V30 END CTAB
M  END
>  <Molecule Name>
Compound 194

>  <Molecule Name 2>
Compound 194

>  <Compound ID>
67

>  <Name>
TAE684

>  <Uniprot>
Q16659

>  <Target>
MAPK6

>  <Smiles>
COC1=CC(N2CCC(N3CCN(C)CC3)CC2)=CC=C1NC1=NC=C(Cl)C(NC2=CC=CC=C2S(=O)(=O)C(C)C)=N1

>  <Kd (nM)>
>10000

>  <Assay (Kd)>
Kd was assessed by competition binding assays

>  <Ki (nM)>


>  <Assay (Ki)>


>  <IC50 (nM)>


>  <Assay (IC50)>


>  <EC50 (nM)>


>  <Assay (EC50)>


>  <Article DOI>
10.1038/nbt.1990

>  <Molecular Weight>
614.216

>  <Exact Mass>
613.2601868

>  <XLogP3>
5.67

>  <Heavy Atom Count>
42

>  <Ring Count>
5

>  <Hydrogen Bond Acceptor Count>
10

>  <Hydrogen Bond Donor Count>
2

>  <Rotatable Bond Count>
9

>  <Topological Polar Surface Area>
102.93

>  <Molecular Formula>
C30H40ClN7O3S

>  <InChI>
InChI=1S/C30H40ClN7O3S/c1-21(2)42(39,40)28-8-6-5-7-26(28)33-29-24(31)20-32-30(35-29)34-25-10-9-23(19-27(25)41-4)37-13-11-22(12-14-37)38-17-15-36(3)16-18-38/h5-10,19-22H,11-18H2,1-4H3,(H2,32,33,34,35)

>  <InChI Key>
QQWUGDVOUVUTOY-UHFFFAOYSA-N

>  <BindingDB>
50242742

>  <PubChem>
16038120

>  <ChEMBL>
CHEMBL509032

$$$$
67
Actelion Java MolfileCreator 2.0

  0  0  0  0  0  0              0 V3000
M  V30 BEGIN CTAB
M  V30 COUNTS 42 46 0 0 0
M  V30 BEGIN ATOM
M  V30 1 Cl 0.0 3.75 0.0 0
M  V30 2 C 1.299 4.5 0.0 0
M  V30 3 C 2.598 3.75 0.0 0
M  V30 4 C 1.299 6.0 0.0 0
M  V30 5 N 3.8971 4.5 0.0 0
M  V30 6 N 2.598 2.25 0.0 0
M  V30 7 N 2.598 6.75 0.0 0
M  V30 8 C 3.8971 6.0 0.0 0
M  V30 9 C 3.8971 1.5 0.0 0
M  V30 10 N 5.1961 6.75 0.0 0
M  V30 11 C 3.8971 0.0 0.0 0
M  V30 12 C 5.1961 2.25 0.0 0
M  V30 13 C 5.1961 8.25 0.0 0
M  V30 14 S 2.598 -0.75 0.0 0
M  V30 15 C 5.1961 -0.75 0.0 0
M  V30 16 C 6.4951 1.5 0.0 0
M  V30 17 C 6.4951 9.0 0.0 0
M  V30 18 C 3.8971 9.0 0.0 0
M  V30 19 O 1.848 -2.049 0.0 0
M  V30 20 O 3.348 -2.049 0.0 0
M  V30 21 C 1.299 0.0 0.0 0
M  V30 22 C 6.4951 0.0 0.0 0
M  V30 23 O 7.7942 8.25 0.0 0
M  V30 24 C 6.4951 10.5 0.0 0
M  V30 25 C 3.8971 10.5 0.0 0
M  V30 26 C 1.299 1.5 0.0 0
M  V30 27 C 0.0 -0.75 0.0 0
M  V30 28 C 9.0932 9.0 0.0 0
M  V30 29 C 5.1961 11.25 0.0 0
M  V30 30 N 5.1961 12.75 0.0 0
M  V30 31 C 6.4951 13.5 0.0 0
M  V30 32 C 3.8971 13.5 0.0 0
M  V30 33 C 6.4951 15.0 0.0 0
M  V30 34 C 3.8971 15.0 0.0 0
M  V30 35 C 5.1961 15.75 0.0 0
M  V30 36 N 5.1961 17.25 0.0 0
M  V30 37 C 6.4951 18.0 0.0 0
M  V30 38 C 3.8971 18.0 0.0 0
M  V30 39 C 6.4951 19.5 0.0 0
M  V30 40 C 3.8971 19.5 0.0 0
M  V30 41 N 5.1961 20.25 0.0 0
M  V30 42 C 5.1961 21.75 0.0 0
M  V30 END ATOM
M  V30 BEGIN BOND
M  V30 1 1 1 2
M  V30 2 2 2 3
M  V30 3 1 2 4
M  V30 4 1 3 5
M  V30 5 1 3 6
M  V30 6 2 4 7
M  V30 7 2 5 8
M  V30 8 1 6 9
M  V30 9 1 8 10
M  V30 10 2 9 11
M  V30 11 1 9 12
M  V30 12 1 10 13
M  V30 13 1 11 14
M  V30 14 1 11 15
M  V30 15 2 12 16
M  V30 16 2 13 17
M  V30 17 1 13 18
M  V30 18 2 14 19
M  V30 19 2 14 20
M  V30 20 1 14 21
M  V30 21 2 15 22
M  V30 22 1 17 23
M  V30 23 1 17 24
M  V30 24 2 18 25
M  V30 25 1 21 26
M  V30 26 1 21 27
M  V30 27 1 23 28
M  V30 28 2 24 29
M  V30 29 1 29 30
M  V30 30 1 30 31
M  V30 31 1 30 32
M  V30 32 1 31 33
M  V30 33 1 32 34
M  V30 34 1 33 35
M  V30 35 1 35 36
M  V30 36 1 36 37
M  V30 37 1 36 38
M  V30 38 1 37 39
M  V30 39 1 38 40
M  V30 40 1 39 41
M  V30 41 1 41 42
M  V30 42 1 7 8
M  V30 43 1 16 22
M  V30 44 1 25 29
M  V30 45 1 34 35
M  V30 46 1 40 41
M  V30 END BOND
M  V30 END CTAB
M  END
>  <Molecule Name>
Compound 195

>  <Molecule Name 2>
Compound 195

>  <Compound ID>
67

>  <Name>
TAE684

>  <Uniprot>
Q13164

>  <Target>
MAPK7

>  <Smiles>
COC1=CC(N2CCC(N3CCN(C)CC3)CC2)=CC=C1NC1=NC=C(Cl)C(NC2=CC=CC=C2S(=O)(=O)C(C)C)=N1

>  <Kd (nM)>
48

>  <Assay (Kd)>
Kd was assessed by competition binding assays

>  <Ki (nM)>


>  <Assay (Ki)>


>  <IC50 (nM)>


>  <Assay (IC50)>


>  <EC50 (nM)>


>  <Assay (EC50)>


>  <Article DOI>
10.1038/nbt.1990

>  <Molecular Weight>
614.216

>  <Exact Mass>
613.2601868

>  <XLogP3>
5.67

>  <Heavy Atom Count>
42

>  <Ring Count>
5

>  <Hydrogen Bond Acceptor Count>
10

>  <Hydrogen Bond Donor Count>
2

>  <Rotatable Bond Count>
9

>  <Topological Polar Surface Area>
102.93

>  <Molecular Formula>
C30H40ClN7O3S

>  <InChI>
InChI=1S/C30H40ClN7O3S/c1-21(2)42(39,40)28-8-6-5-7-26(28)33-29-24(31)20-32-30(35-29)34-25-10-9-23(19-27(25)41-4)37-13-11-22(12-14-37)38-17-15-36(3)16-18-38/h5-10,19-22H,11-18H2,1-4H3,(H2,32,33,34,35)

>  <InChI Key>
QQWUGDVOUVUTOY-UHFFFAOYSA-N

>  <BindingDB>
50242742

>  <PubChem>
16038120

>  <ChEMBL>
CHEMBL509032

$$$$
67
Actelion Java MolfileCreator 2.0

  0  0  0  0  0  0              0 V3000
M  V30 BEGIN CTAB
M  V30 COUNTS 42 46 0 0 0
M  V30 BEGIN ATOM
M  V30 1 Cl 0.0 3.75 0.0 0
M  V30 2 C 1.299 4.5 0.0 0
M  V30 3 C 2.598 3.75 0.0 0
M  V30 4 C 1.299 6.0 0.0 0
M  V30 5 N 3.8971 4.5 0.0 0
M  V30 6 N 2.598 2.25 0.0 0
M  V30 7 N 2.598 6.75 0.0 0
M  V30 8 C 3.8971 6.0 0.0 0
M  V30 9 C 3.8971 1.5 0.0 0
M  V30 10 N 5.1961 6.75 0.0 0
M  V30 11 C 3.8971 0.0 0.0 0
M  V30 12 C 5.1961 2.25 0.0 0
M  V30 13 C 5.1961 8.25 0.0 0
M  V30 14 S 2.598 -0.75 0.0 0
M  V30 15 C 5.1961 -0.75 0.0 0
M  V30 16 C 6.4951 1.5 0.0 0
M  V30 17 C 6.4951 9.0 0.0 0
M  V30 18 C 3.8971 9.0 0.0 0
M  V30 19 O 1.848 -2.049 0.0 0
M  V30 20 O 3.348 -2.049 0.0 0
M  V30 21 C 1.299 0.0 0.0 0
M  V30 22 C 6.4951 0.0 0.0 0
M  V30 23 O 7.7942 8.25 0.0 0
M  V30 24 C 6.4951 10.5 0.0 0
M  V30 25 C 3.8971 10.5 0.0 0
M  V30 26 C 1.299 1.5 0.0 0
M  V30 27 C 0.0 -0.75 0.0 0
M  V30 28 C 9.0932 9.0 0.0 0
M  V30 29 C 5.1961 11.25 0.0 0
M  V30 30 N 5.1961 12.75 0.0 0
M  V30 31 C 6.4951 13.5 0.0 0
M  V30 32 C 3.8971 13.5 0.0 0
M  V30 33 C 6.4951 15.0 0.0 0
M  V30 34 C 3.8971 15.0 0.0 0
M  V30 35 C 5.1961 15.75 0.0 0
M  V30 36 N 5.1961 17.25 0.0 0
M  V30 37 C 6.4951 18.0 0.0 0
M  V30 38 C 3.8971 18.0 0.0 0
M  V30 39 C 6.4951 19.5 0.0 0
M  V30 40 C 3.8971 19.5 0.0 0
M  V30 41 N 5.1961 20.25 0.0 0
M  V30 42 C 5.1961 21.75 0.0 0
M  V30 END ATOM
M  V30 BEGIN BOND
M  V30 1 1 1 2
M  V30 2 2 2 3
M  V30 3 1 2 4
M  V30 4 1 3 5
M  V30 5 1 3 6
M  V30 6 2 4 7
M  V30 7 2 5 8
M  V30 8 1 6 9
M  V30 9 1 8 10
M  V30 10 2 9 11
M  V30 11 1 9 12
M  V30 12 1 10 13
M  V30 13 1 11 14
M  V30 14 1 11 15
M  V30 15 2 12 16
M  V30 16 2 13 17
M  V30 17 1 13 18
M  V30 18 2 14 19
M  V30 19 2 14 20
M  V30 20 1 14 21
M  V30 21 2 15 22
M  V30 22 1 17 23
M  V30 23 1 17 24
M  V30 24 2 18 25
M  V30 25 1 21 26
M  V30 26 1 21 27
M  V30 27 1 23 28
M  V30 28 2 24 29
M  V30 29 1 29 30
M  V30 30 1 30 31
M  V30 31 1 30 32
M  V30 32 1 31 33
M  V30 33 1 32 34
M  V30 34 1 33 35
M  V30 35 1 35 36
M  V30 36 1 36 37
M  V30 37 1 36 38
M  V30 38 1 37 39
M  V30 39 1 38 40
M  V30 40 1 39 41
M  V30 41 1 41 42
M  V30 42 1 7 8
M  V30 43 1 16 22
M  V30 44 1 25 29
M  V30 45 1 34 35
M  V30 46 1 40 41
M  V30 END BOND
M  V30 END CTAB
M  END
>  <Molecule Name>
Compound 196

>  <Molecule Name 2>
Compound 196

>  <Compound ID>
67

>  <Name>
TAE684

>  <Uniprot>
Q7KZI7

>  <Target>
MARK2

>  <Smiles>
COC1=CC(N2CCC(N3CCN(C)CC3)CC2)=CC=C1NC1=NC=C(Cl)C(NC2=CC=CC=C2S(=O)(=O)C(C)C)=N1

>  <Kd (nM)>
44

>  <Assay (Kd)>
Kd was assessed by competition binding assays

>  <Ki (nM)>


>  <Assay (Ki)>


>  <IC50 (nM)>


>  <Assay (IC50)>


>  <EC50 (nM)>


>  <Assay (EC50)>


>  <Article DOI>
10.1038/nbt.1990

>  <Molecular Weight>
614.216

>  <Exact Mass>
613.2601868

>  <XLogP3>
5.67

>  <Heavy Atom Count>
42

>  <Ring Count>
5

>  <Hydrogen Bond Acceptor Count>
10

>  <Hydrogen Bond Donor Count>
2

>  <Rotatable Bond Count>
9

>  <Topological Polar Surface Area>
102.93

>  <Molecular Formula>
C30H40ClN7O3S

>  <InChI>
InChI=1S/C30H40ClN7O3S/c1-21(2)42(39,40)28-8-6-5-7-26(28)33-29-24(31)20-32-30(35-29)34-25-10-9-23(19-27(25)41-4)37-13-11-22(12-14-37)38-17-15-36(3)16-18-38/h5-10,19-22H,11-18H2,1-4H3,(H2,32,33,34,35)

>  <InChI Key>
QQWUGDVOUVUTOY-UHFFFAOYSA-N

>  <BindingDB>
50242742

>  <PubChem>
16038120

>  <ChEMBL>
CHEMBL509032

$$$$
67
Actelion Java MolfileCreator 2.0

  0  0  0  0  0  0              0 V3000
M  V30 BEGIN CTAB
M  V30 COUNTS 42 46 0 0 0
M  V30 BEGIN ATOM
M  V30 1 Cl 0.0 3.75 0.0 0
M  V30 2 C 1.299 4.5 0.0 0
M  V30 3 C 2.598 3.75 0.0 0
M  V30 4 C 1.299 6.0 0.0 0
M  V30 5 N 3.8971 4.5 0.0 0
M  V30 6 N 2.598 2.25 0.0 0
M  V30 7 N 2.598 6.75 0.0 0
M  V30 8 C 3.8971 6.0 0.0 0
M  V30 9 C 3.8971 1.5 0.0 0
M  V30 10 N 5.1961 6.75 0.0 0
M  V30 11 C 3.8971 0.0 0.0 0
M  V30 12 C 5.1961 2.25 0.0 0
M  V30 13 C 5.1961 8.25 0.0 0
M  V30 14 S 2.598 -0.75 0.0 0
M  V30 15 C 5.1961 -0.75 0.0 0
M  V30 16 C 6.4951 1.5 0.0 0
M  V30 17 C 6.4951 9.0 0.0 0
M  V30 18 C 3.8971 9.0 0.0 0
M  V30 19 O 1.848 -2.049 0.0 0
M  V30 20 O 3.348 -2.049 0.0 0
M  V30 21 C 1.299 0.0 0.0 0
M  V30 22 C 6.4951 0.0 0.0 0
M  V30 23 O 7.7942 8.25 0.0 0
M  V30 24 C 6.4951 10.5 0.0 0
M  V30 25 C 3.8971 10.5 0.0 0
M  V30 26 C 1.299 1.5 0.0 0
M  V30 27 C 0.0 -0.75 0.0 0
M  V30 28 C 9.0932 9.0 0.0 0
M  V30 29 C 5.1961 11.25 0.0 0
M  V30 30 N 5.1961 12.75 0.0 0
M  V30 31 C 6.4951 13.5 0.0 0
M  V30 32 C 3.8971 13.5 0.0 0
M  V30 33 C 6.4951 15.0 0.0 0
M  V30 34 C 3.8971 15.0 0.0 0
M  V30 35 C 5.1961 15.75 0.0 0
M  V30 36 N 5.1961 17.25 0.0 0
M  V30 37 C 6.4951 18.0 0.0 0
M  V30 38 C 3.8971 18.0 0.0 0
M  V30 39 C 6.4951 19.5 0.0 0
M  V30 40 C 3.8971 19.5 0.0 0
M  V30 41 N 5.1961 20.25 0.0 0
M  V30 42 C 5.1961 21.75 0.0 0
M  V30 END ATOM
M  V30 BEGIN BOND
M  V30 1 1 1 2
M  V30 2 2 2 3
M  V30 3 1 2 4
M  V30 4 1 3 5
M  V30 5 1 3 6
M  V30 6 2 4 7
M  V30 7 2 5 8
M  V30 8 1 6 9
M  V30 9 1 8 10
M  V30 10 2 9 11
M  V30 11 1 9 12
M  V30 12 1 10 13
M  V30 13 1 11 14
M  V30 14 1 11 15
M  V30 15 2 12 16
M  V30 16 2 13 17
M  V30 17 1 13 18
M  V30 18 2 14 19
M  V30 19 2 14 20
M  V30 20 1 14 21
M  V30 21 2 15 22
M  V30 22 1 17 23
M  V30 23 1 17 24
M  V30 24 2 18 25
M  V30 25 1 21 26
M  V30 26 1 21 27
M  V30 27 1 23 28
M  V30 28 2 24 29
M  V30 29 1 29 30
M  V30 30 1 30 31
M  V30 31 1 30 32
M  V30 32 1 31 33
M  V30 33 1 32 34
M  V30 34 1 33 35
M  V30 35 1 35 36
M  V30 36 1 36 37
M  V30 37 1 36 38
M  V30 38 1 37 39
M  V30 39 1 38 40
M  V30 40 1 39 41
M  V30 41 1 41 42
M  V30 42 1 7 8
M  V30 43 1 16 22
M  V30 44 1 25 29
M  V30 45 1 34 35
M  V30 46 1 40 41
M  V30 END BOND
M  V30 END CTAB
M  END
>  <Molecule Name>
Compound 197

>  <Molecule Name 2>
Compound 197

>  <Compound ID>
67

>  <Name>
TAE684

>  <Uniprot>
Q96L34

>  <Target>
MARK4

>  <Smiles>
COC1=CC(N2CCC(N3CCN(C)CC3)CC2)=CC=C1NC1=NC=C(Cl)C(NC2=CC=CC=C2S(=O)(=O)C(C)C)=N1

>  <Kd (nM)>
12

>  <Assay (Kd)>
Kd was assessed by competition binding assays

>  <Ki (nM)>


>  <Assay (Ki)>


>  <IC50 (nM)>


>  <Assay (IC50)>


>  <EC50 (nM)>


>  <Assay (EC50)>


>  <Article DOI>
10.1038/nbt.1990

>  <Molecular Weight>
614.216

>  <Exact Mass>
613.2601868

>  <XLogP3>
5.67

>  <Heavy Atom Count>
42

>  <Ring Count>
5

>  <Hydrogen Bond Acceptor Count>
10

>  <Hydrogen Bond Donor Count>
2

>  <Rotatable Bond Count>
9

>  <Topological Polar Surface Area>
102.93

>  <Molecular Formula>
C30H40ClN7O3S

>  <InChI>
InChI=1S/C30H40ClN7O3S/c1-21(2)42(39,40)28-8-6-5-7-26(28)33-29-24(31)20-32-30(35-29)34-25-10-9-23(19-27(25)41-4)37-13-11-22(12-14-37)38-17-15-36(3)16-18-38/h5-10,19-22H,11-18H2,1-4H3,(H2,32,33,34,35)

>  <InChI Key>
QQWUGDVOUVUTOY-UHFFFAOYSA-N

>  <BindingDB>
50242742

>  <PubChem>
16038120

>  <ChEMBL>
CHEMBL509032

$$$$
67
Actelion Java MolfileCreator 2.0

  0  0  0  0  0  0              0 V3000
M  V30 BEGIN CTAB
M  V30 COUNTS 42 46 0 0 0
M  V30 BEGIN ATOM
M  V30 1 Cl 0.0 3.75 0.0 0
M  V30 2 C 1.299 4.5 0.0 0
M  V30 3 C 2.598 3.75 0.0 0
M  V30 4 C 1.299 6.0 0.0 0
M  V30 5 N 3.8971 4.5 0.0 0
M  V30 6 N 2.598 2.25 0.0 0
M  V30 7 N 2.598 6.75 0.0 0
M  V30 8 C 3.8971 6.0 0.0 0
M  V30 9 C 3.8971 1.5 0.0 0
M  V30 10 N 5.1961 6.75 0.0 0
M  V30 11 C 3.8971 0.0 0.0 0
M  V30 12 C 5.1961 2.25 0.0 0
M  V30 13 C 5.1961 8.25 0.0 0
M  V30 14 S 2.598 -0.75 0.0 0
M  V30 15 C 5.1961 -0.75 0.0 0
M  V30 16 C 6.4951 1.5 0.0 0
M  V30 17 C 6.4951 9.0 0.0 0
M  V30 18 C 3.8971 9.0 0.0 0
M  V30 19 O 1.848 -2.049 0.0 0
M  V30 20 O 3.348 -2.049 0.0 0
M  V30 21 C 1.299 0.0 0.0 0
M  V30 22 C 6.4951 0.0 0.0 0
M  V30 23 O 7.7942 8.25 0.0 0
M  V30 24 C 6.4951 10.5 0.0 0
M  V30 25 C 3.8971 10.5 0.0 0
M  V30 26 C 1.299 1.5 0.0 0
M  V30 27 C 0.0 -0.75 0.0 0
M  V30 28 C 9.0932 9.0 0.0 0
M  V30 29 C 5.1961 11.25 0.0 0
M  V30 30 N 5.1961 12.75 0.0 0
M  V30 31 C 6.4951 13.5 0.0 0
M  V30 32 C 3.8971 13.5 0.0 0
M  V30 33 C 6.4951 15.0 0.0 0
M  V30 34 C 3.8971 15.0 0.0 0
M  V30 35 C 5.1961 15.75 0.0 0
M  V30 36 N 5.1961 17.25 0.0 0
M  V30 37 C 6.4951 18.0 0.0 0
M  V30 38 C 3.8971 18.0 0.0 0
M  V30 39 C 6.4951 19.5 0.0 0
M  V30 40 C 3.8971 19.5 0.0 0
M  V30 41 N 5.1961 20.25 0.0 0
M  V30 42 C 5.1961 21.75 0.0 0
M  V30 END ATOM
M  V30 BEGIN BOND
M  V30 1 1 1 2
M  V30 2 2 2 3
M  V30 3 1 2 4
M  V30 4 1 3 5
M  V30 5 1 3 6
M  V30 6 2 4 7
M  V30 7 2 5 8
M  V30 8 1 6 9
M  V30 9 1 8 10
M  V30 10 2 9 11
M  V30 11 1 9 12
M  V30 12 1 10 13
M  V30 13 1 11 14
M  V30 14 1 11 15
M  V30 15 2 12 16
M  V30 16 2 13 17
M  V30 17 1 13 18
M  V30 18 2 14 19
M  V30 19 2 14 20
M  V30 20 1 14 21
M  V30 21 2 15 22
M  V30 22 1 17 23
M  V30 23 1 17 24
M  V30 24 2 18 25
M  V30 25 1 21 26
M  V30 26 1 21 27
M  V30 27 1 23 28
M  V30 28 2 24 29
M  V30 29 1 29 30
M  V30 30 1 30 31
M  V30 31 1 30 32
M  V30 32 1 31 33
M  V30 33 1 32 34
M  V30 34 1 33 35
M  V30 35 1 35 36
M  V30 36 1 36 37
M  V30 37 1 36 38
M  V30 38 1 37 39
M  V30 39 1 38 40
M  V30 40 1 39 41
M  V30 41 1 41 42
M  V30 42 1 7 8
M  V30 43 1 16 22
M  V30 44 1 25 29
M  V30 45 1 34 35
M  V30 46 1 40 41
M  V30 END BOND
M  V30 END CTAB
M  END
>  <Molecule Name>
Compound 198

>  <Molecule Name 2>
Compound 198

>  <Compound ID>
67

>  <Name>
TAE684

>  <Uniprot>
O60307

>  <Target>
MAST3

>  <Smiles>
COC1=CC(N2CCC(N3CCN(C)CC3)CC2)=CC=C1NC1=NC=C(Cl)C(NC2=CC=CC=C2S(=O)(=O)C(C)C)=N1

>  <Kd (nM)>


>  <Assay (Kd)>


>  <Ki (nM)>


>  <Assay (Ki)>


>  <IC50 (nM)>


>  <Assay (IC50)>


>  <EC50 (nM)>


>  <Assay (EC50)>


>  <Article DOI>
10.1016/j.cell.2020.10.038

>  <Molecular Weight>
614.216

>  <Exact Mass>
613.2601868

>  <XLogP3>
5.67

>  <Heavy Atom Count>
42

>  <Ring Count>
5

>  <Hydrogen Bond Acceptor Count>
10

>  <Hydrogen Bond Donor Count>
2

>  <Rotatable Bond Count>
9

>  <Topological Polar Surface Area>
102.93

>  <Molecular Formula>
C30H40ClN7O3S

>  <InChI>
InChI=1S/C30H40ClN7O3S/c1-21(2)42(39,40)28-8-6-5-7-26(28)33-29-24(31)20-32-30(35-29)34-25-10-9-23(19-27(25)41-4)37-13-11-22(12-14-37)38-17-15-36(3)16-18-38/h5-10,19-22H,11-18H2,1-4H3,(H2,32,33,34,35)

>  <InChI Key>
QQWUGDVOUVUTOY-UHFFFAOYSA-N

>  <BindingDB>
50242742

>  <PubChem>
16038120

>  <ChEMBL>
CHEMBL509032

$$$$
67
Actelion Java MolfileCreator 2.0

  0  0  0  0  0  0              0 V3000
M  V30 BEGIN CTAB
M  V30 COUNTS 42 46 0 0 0
M  V30 BEGIN ATOM
M  V30 1 Cl 0.0 3.75 0.0 0
M  V30 2 C 1.299 4.5 0.0 0
M  V30 3 C 2.598 3.75 0.0 0
M  V30 4 C 1.299 6.0 0.0 0
M  V30 5 N 3.8971 4.5 0.0 0
M  V30 6 N 2.598 2.25 0.0 0
M  V30 7 N 2.598 6.75 0.0 0
M  V30 8 C 3.8971 6.0 0.0 0
M  V30 9 C 3.8971 1.5 0.0 0
M  V30 10 N 5.1961 6.75 0.0 0
M  V30 11 C 3.8971 0.0 0.0 0
M  V30 12 C 5.1961 2.25 0.0 0
M  V30 13 C 5.1961 8.25 0.0 0
M  V30 14 S 2.598 -0.75 0.0 0
M  V30 15 C 5.1961 -0.75 0.0 0
M  V30 16 C 6.4951 1.5 0.0 0
M  V30 17 C 6.4951 9.0 0.0 0
M  V30 18 C 3.8971 9.0 0.0 0
M  V30 19 O 1.848 -2.049 0.0 0
M  V30 20 O 3.348 -2.049 0.0 0
M  V30 21 C 1.299 0.0 0.0 0
M  V30 22 C 6.4951 0.0 0.0 0
M  V30 23 O 7.7942 8.25 0.0 0
M  V30 24 C 6.4951 10.5 0.0 0
M  V30 25 C 3.8971 10.5 0.0 0
M  V30 26 C 1.299 1.5 0.0 0
M  V30 27 C 0.0 -0.75 0.0 0
M  V30 28 C 9.0932 9.0 0.0 0
M  V30 29 C 5.1961 11.25 0.0 0
M  V30 30 N 5.1961 12.75 0.0 0
M  V30 31 C 6.4951 13.5 0.0 0
M  V30 32 C 3.8971 13.5 0.0 0
M  V30 33 C 6.4951 15.0 0.0 0
M  V30 34 C 3.8971 15.0 0.0 0
M  V30 35 C 5.1961 15.75 0.0 0
M  V30 36 N 5.1961 17.25 0.0 0
M  V30 37 C 6.4951 18.0 0.0 0
M  V30 38 C 3.8971 18.0 0.0 0
M  V30 39 C 6.4951 19.5 0.0 0
M  V30 40 C 3.8971 19.5 0.0 0
M  V30 41 N 5.1961 20.25 0.0 0
M  V30 42 C 5.1961 21.75 0.0 0
M  V30 END ATOM
M  V30 BEGIN BOND
M  V30 1 1 1 2
M  V30 2 2 2 3
M  V30 3 1 2 4
M  V30 4 1 3 5
M  V30 5 1 3 6
M  V30 6 2 4 7
M  V30 7 2 5 8
M  V30 8 1 6 9
M  V30 9 1 8 10
M  V30 10 2 9 11
M  V30 11 1 9 12
M  V30 12 1 10 13
M  V30 13 1 11 14
M  V30 14 1 11 15
M  V30 15 2 12 16
M  V30 16 2 13 17
M  V30 17 1 13 18
M  V30 18 2 14 19
M  V30 19 2 14 20
M  V30 20 1 14 21
M  V30 21 2 15 22
M  V30 22 1 17 23
M  V30 23 1 17 24
M  V30 24 2 18 25
M  V30 25 1 21 26
M  V30 26 1 21 27
M  V30 27 1 23 28
M  V30 28 2 24 29
M  V30 29 1 29 30
M  V30 30 1 30 31
M  V30 31 1 30 32
M  V30 32 1 31 33
M  V30 33 1 32 34
M  V30 34 1 33 35
M  V30 35 1 35 36
M  V30 36 1 36 37
M  V30 37 1 36 38
M  V30 38 1 37 39
M  V30 39 1 38 40
M  V30 40 1 39 41
M  V30 41 1 41 42
M  V30 42 1 7 8
M  V30 43 1 16 22
M  V30 44 1 25 29
M  V30 45 1 34 35
M  V30 46 1 40 41
M  V30 END BOND
M  V30 END CTAB
M  END
>  <Molecule Name>
Compound 199

>  <Molecule Name 2>
Compound 199

>  <Compound ID>
67

>  <Name>
TAE684

>  <Uniprot>
Q14680

>  <Target>
MELK

>  <Smiles>
COC1=CC(N2CCC(N3CCN(C)CC3)CC2)=CC=C1NC1=NC=C(Cl)C(NC2=CC=CC=C2S(=O)(=O)C(C)C)=N1

>  <Kd (nM)>
99

>  <Assay (Kd)>
Kd was assessed by competition binding assays

>  <Ki (nM)>


>  <Assay (Ki)>


>  <IC50 (nM)>


>  <Assay (IC50)>


>  <EC50 (nM)>


>  <Assay (EC50)>


>  <Article DOI>
10.1038/nbt.1990

>  <Molecular Weight>
614.216

>  <Exact Mass>
613.2601868

>  <XLogP3>
5.67

>  <Heavy Atom Count>
42

>  <Ring Count>
5

>  <Hydrogen Bond Acceptor Count>
10

>  <Hydrogen Bond Donor Count>
2

>  <Rotatable Bond Count>
9

>  <Topological Polar Surface Area>
102.93

>  <Molecular Formula>
C30H40ClN7O3S

>  <InChI>
InChI=1S/C30H40ClN7O3S/c1-21(2)42(39,40)28-8-6-5-7-26(28)33-29-24(31)20-32-30(35-29)34-25-10-9-23(19-27(25)41-4)37-13-11-22(12-14-37)38-17-15-36(3)16-18-38/h5-10,19-22H,11-18H2,1-4H3,(H2,32,33,34,35)

>  <InChI Key>
QQWUGDVOUVUTOY-UHFFFAOYSA-N

>  <BindingDB>
50242742

>  <PubChem>
16038120

>  <ChEMBL>
CHEMBL509032

$$$$
67
Actelion Java MolfileCreator 2.0

  0  0  0  0  0  0              0 V3000
M  V30 BEGIN CTAB
M  V30 COUNTS 42 46 0 0 0
M  V30 BEGIN ATOM
M  V30 1 Cl 0.0 3.75 0.0 0
M  V30 2 C 1.299 4.5 0.0 0
M  V30 3 C 2.598 3.75 0.0 0
M  V30 4 C 1.299 6.0 0.0 0
M  V30 5 N 3.8971 4.5 0.0 0
M  V30 6 N 2.598 2.25 0.0 0
M  V30 7 N 2.598 6.75 0.0 0
M  V30 8 C 3.8971 6.0 0.0 0
M  V30 9 C 3.8971 1.5 0.0 0
M  V30 10 N 5.1961 6.75 0.0 0
M  V30 11 C 3.8971 0.0 0.0 0
M  V30 12 C 5.1961 2.25 0.0 0
M  V30 13 C 5.1961 8.25 0.0 0
M  V30 14 S 2.598 -0.75 0.0 0
M  V30 15 C 5.1961 -0.75 0.0 0
M  V30 16 C 6.4951 1.5 0.0 0
M  V30 17 C 6.4951 9.0 0.0 0
M  V30 18 C 3.8971 9.0 0.0 0
M  V30 19 O 1.848 -2.049 0.0 0
M  V30 20 O 3.348 -2.049 0.0 0
M  V30 21 C 1.299 0.0 0.0 0
M  V30 22 C 6.4951 0.0 0.0 0
M  V30 23 O 7.7942 8.25 0.0 0
M  V30 24 C 6.4951 10.5 0.0 0
M  V30 25 C 3.8971 10.5 0.0 0
M  V30 26 C 1.299 1.5 0.0 0
M  V30 27 C 0.0 -0.75 0.0 0
M  V30 28 C 9.0932 9.0 0.0 0
M  V30 29 C 5.1961 11.25 0.0 0
M  V30 30 N 5.1961 12.75 0.0 0
M  V30 31 C 6.4951 13.5 0.0 0
M  V30 32 C 3.8971 13.5 0.0 0
M  V30 33 C 6.4951 15.0 0.0 0
M  V30 34 C 3.8971 15.0 0.0 0
M  V30 35 C 5.1961 15.75 0.0 0
M  V30 36 N 5.1961 17.25 0.0 0
M  V30 37 C 6.4951 18.0 0.0 0
M  V30 38 C 3.8971 18.0 0.0 0
M  V30 39 C 6.4951 19.5 0.0 0
M  V30 40 C 3.8971 19.5 0.0 0
M  V30 41 N 5.1961 20.25 0.0 0
M  V30 42 C 5.1961 21.75 0.0 0
M  V30 END ATOM
M  V30 BEGIN BOND
M  V30 1 1 1 2
M  V30 2 2 2 3
M  V30 3 1 2 4
M  V30 4 1 3 5
M  V30 5 1 3 6
M  V30 6 2 4 7
M  V30 7 2 5 8
M  V30 8 1 6 9
M  V30 9 1 8 10
M  V30 10 2 9 11
M  V30 11 1 9 12
M  V30 12 1 10 13
M  V30 13 1 11 14
M  V30 14 1 11 15
M  V30 15 2 12 16
M  V30 16 2 13 17
M  V30 17 1 13 18
M  V30 18 2 14 19
M  V30 19 2 14 20
M  V30 20 1 14 21
M  V30 21 2 15 22
M  V30 22 1 17 23
M  V30 23 1 17 24
M  V30 24 2 18 25
M  V30 25 1 21 26
M  V30 26 1 21 27
M  V30 27 1 23 28
M  V30 28 2 24 29
M  V30 29 1 29 30
M  V30 30 1 30 31
M  V30 31 1 30 32
M  V30 32 1 31 33
M  V30 33 1 32 34
M  V30 34 1 33 35
M  V30 35 1 35 36
M  V30 36 1 36 37
M  V30 37 1 36 38
M  V30 38 1 37 39
M  V30 39 1 38 40
M  V30 40 1 39 41
M  V30 41 1 41 42
M  V30 42 1 7 8
M  V30 43 1 16 22
M  V30 44 1 25 29
M  V30 45 1 34 35
M  V30 46 1 40 41
M  V30 END BOND
M  V30 END CTAB
M  END
>  <Molecule Name>
Compound 200

>  <Molecule Name 2>
Compound 200

>  <Compound ID>
67

>  <Name>
TAE684

>  <Uniprot>
Q9HBH9

>  <Target>
MKNK2

>  <Smiles>
COC1=CC(N2CCC(N3CCN(C)CC3)CC2)=CC=C1NC1=NC=C(Cl)C(NC2=CC=CC=C2S(=O)(=O)C(C)C)=N1

>  <Kd (nM)>
44

>  <Assay (Kd)>
Kd was assessed by competition binding assays

>  <Ki (nM)>


>  <Assay (Ki)>


>  <IC50 (nM)>


>  <Assay (IC50)>


>  <EC50 (nM)>


>  <Assay (EC50)>


>  <Article DOI>
10.1038/nbt.1990

>  <Molecular Weight>
614.216

>  <Exact Mass>
613.2601868

>  <XLogP3>
5.67

>  <Heavy Atom Count>
42

>  <Ring Count>
5

>  <Hydrogen Bond Acceptor Count>
10

>  <Hydrogen Bond Donor Count>
2

>  <Rotatable Bond Count>
9

>  <Topological Polar Surface Area>
102.93

>  <Molecular Formula>
C30H40ClN7O3S

>  <InChI>
InChI=1S/C30H40ClN7O3S/c1-21(2)42(39,40)28-8-6-5-7-26(28)33-29-24(31)20-32-30(35-29)34-25-10-9-23(19-27(25)41-4)37-13-11-22(12-14-37)38-17-15-36(3)16-18-38/h5-10,19-22H,11-18H2,1-4H3,(H2,32,33,34,35)

>  <InChI Key>
QQWUGDVOUVUTOY-UHFFFAOYSA-N

>  <BindingDB>
50242742

>  <PubChem>
16038120

>  <ChEMBL>
CHEMBL509032

$$$$
67
Actelion Java MolfileCreator 2.0

  0  0  0  0  0  0              0 V3000
M  V30 BEGIN CTAB
M  V30 COUNTS 42 46 0 0 0
M  V30 BEGIN ATOM
M  V30 1 Cl 0.0 3.75 0.0 0
M  V30 2 C 1.299 4.5 0.0 0
M  V30 3 C 2.598 3.75 0.0 0
M  V30 4 C 1.299 6.0 0.0 0
M  V30 5 N 3.8971 4.5 0.0 0
M  V30 6 N 2.598 2.25 0.0 0
M  V30 7 N 2.598 6.75 0.0 0
M  V30 8 C 3.8971 6.0 0.0 0
M  V30 9 C 3.8971 1.5 0.0 0
M  V30 10 N 5.1961 6.75 0.0 0
M  V30 11 C 3.8971 0.0 0.0 0
M  V30 12 C 5.1961 2.25 0.0 0
M  V30 13 C 5.1961 8.25 0.0 0
M  V30 14 S 2.598 -0.75 0.0 0
M  V30 15 C 5.1961 -0.75 0.0 0
M  V30 16 C 6.4951 1.5 0.0 0
M  V30 17 C 6.4951 9.0 0.0 0
M  V30 18 C 3.8971 9.0 0.0 0
M  V30 19 O 1.848 -2.049 0.0 0
M  V30 20 O 3.348 -2.049 0.0 0
M  V30 21 C 1.299 0.0 0.0 0
M  V30 22 C 6.4951 0.0 0.0 0
M  V30 23 O 7.7942 8.25 0.0 0
M  V30 24 C 6.4951 10.5 0.0 0
M  V30 25 C 3.8971 10.5 0.0 0
M  V30 26 C 1.299 1.5 0.0 0
M  V30 27 C 0.0 -0.75 0.0 0
M  V30 28 C 9.0932 9.0 0.0 0
M  V30 29 C 5.1961 11.25 0.0 0
M  V30 30 N 5.1961 12.75 0.0 0
M  V30 31 C 6.4951 13.5 0.0 0
M  V30 32 C 3.8971 13.5 0.0 0
M  V30 33 C 6.4951 15.0 0.0 0
M  V30 34 C 3.8971 15.0 0.0 0
M  V30 35 C 5.1961 15.75 0.0 0
M  V30 36 N 5.1961 17.25 0.0 0
M  V30 37 C 6.4951 18.0 0.0 0
M  V30 38 C 3.8971 18.0 0.0 0
M  V30 39 C 6.4951 19.5 0.0 0
M  V30 40 C 3.8971 19.5 0.0 0
M  V30 41 N 5.1961 20.25 0.0 0
M  V30 42 C 5.1961 21.75 0.0 0
M  V30 END ATOM
M  V30 BEGIN BOND
M  V30 1 1 1 2
M  V30 2 2 2 3
M  V30 3 1 2 4
M  V30 4 1 3 5
M  V30 5 1 3 6
M  V30 6 2 4 7
M  V30 7 2 5 8
M  V30 8 1 6 9
M  V30 9 1 8 10
M  V30 10 2 9 11
M  V30 11 1 9 12
M  V30 12 1 10 13
M  V30 13 1 11 14
M  V30 14 1 11 15
M  V30 15 2 12 16
M  V30 16 2 13 17
M  V30 17 1 13 18
M  V30 18 2 14 19
M  V30 19 2 14 20
M  V30 20 1 14 21
M  V30 21 2 15 22
M  V30 22 1 17 23
M  V30 23 1 17 24
M  V30 24 2 18 25
M  V30 25 1 21 26
M  V30 26 1 21 27
M  V30 27 1 23 28
M  V30 28 2 24 29
M  V30 29 1 29 30
M  V30 30 1 30 31
M  V30 31 1 30 32
M  V30 32 1 31 33
M  V30 33 1 32 34
M  V30 34 1 33 35
M  V30 35 1 35 36
M  V30 36 1 36 37
M  V30 37 1 36 38
M  V30 38 1 37 39
M  V30 39 1 38 40
M  V30 40 1 39 41
M  V30 41 1 41 42
M  V30 42 1 7 8
M  V30 43 1 16 22
M  V30 44 1 25 29
M  V30 45 1 34 35
M  V30 46 1 40 41
M  V30 END BOND
M  V30 END CTAB
M  END
>  <Molecule Name>
Compound 201

>  <Molecule Name 2>
Compound 201

>  <Compound ID>
67

>  <Name>
TAE684

>  <Uniprot>
P51955

>  <Target>
NEK2

>  <Smiles>
COC1=CC(N2CCC(N3CCN(C)CC3)CC2)=CC=C1NC1=NC=C(Cl)C(NC2=CC=CC=C2S(=O)(=O)C(C)C)=N1

>  <Kd (nM)>
1800

>  <Assay (Kd)>
Kd was assessed by competition binding assays

>  <Ki (nM)>


>  <Assay (Ki)>


>  <IC50 (nM)>


>  <Assay (IC50)>


>  <EC50 (nM)>


>  <Assay (EC50)>


>  <Article DOI>
10.1038/nbt.1990

>  <Molecular Weight>
614.216

>  <Exact Mass>
613.2601868

>  <XLogP3>
5.67

>  <Heavy Atom Count>
42

>  <Ring Count>
5

>  <Hydrogen Bond Acceptor Count>
10

>  <Hydrogen Bond Donor Count>
2

>  <Rotatable Bond Count>
9

>  <Topological Polar Surface Area>
102.93

>  <Molecular Formula>
C30H40ClN7O3S

>  <InChI>
InChI=1S/C30H40ClN7O3S/c1-21(2)42(39,40)28-8-6-5-7-26(28)33-29-24(31)20-32-30(35-29)34-25-10-9-23(19-27(25)41-4)37-13-11-22(12-14-37)38-17-15-36(3)16-18-38/h5-10,19-22H,11-18H2,1-4H3,(H2,32,33,34,35)

>  <InChI Key>
QQWUGDVOUVUTOY-UHFFFAOYSA-N

>  <BindingDB>
50242742

>  <PubChem>
16038120

>  <ChEMBL>
CHEMBL509032

$$$$
67
Actelion Java MolfileCreator 2.0

  0  0  0  0  0  0              0 V3000
M  V30 BEGIN CTAB
M  V30 COUNTS 42 46 0 0 0
M  V30 BEGIN ATOM
M  V30 1 Cl 0.0 3.75 0.0 0
M  V30 2 C 1.299 4.5 0.0 0
M  V30 3 C 2.598 3.75 0.0 0
M  V30 4 C 1.299 6.0 0.0 0
M  V30 5 N 3.8971 4.5 0.0 0
M  V30 6 N 2.598 2.25 0.0 0
M  V30 7 N 2.598 6.75 0.0 0
M  V30 8 C 3.8971 6.0 0.0 0
M  V30 9 C 3.8971 1.5 0.0 0
M  V30 10 N 5.1961 6.75 0.0 0
M  V30 11 C 3.8971 0.0 0.0 0
M  V30 12 C 5.1961 2.25 0.0 0
M  V30 13 C 5.1961 8.25 0.0 0
M  V30 14 S 2.598 -0.75 0.0 0
M  V30 15 C 5.1961 -0.75 0.0 0
M  V30 16 C 6.4951 1.5 0.0 0
M  V30 17 C 6.4951 9.0 0.0 0
M  V30 18 C 3.8971 9.0 0.0 0
M  V30 19 O 1.848 -2.049 0.0 0
M  V30 20 O 3.348 -2.049 0.0 0
M  V30 21 C 1.299 0.0 0.0 0
M  V30 22 C 6.4951 0.0 0.0 0
M  V30 23 O 7.7942 8.25 0.0 0
M  V30 24 C 6.4951 10.5 0.0 0
M  V30 25 C 3.8971 10.5 0.0 0
M  V30 26 C 1.299 1.5 0.0 0
M  V30 27 C 0.0 -0.75 0.0 0
M  V30 28 C 9.0932 9.0 0.0 0
M  V30 29 C 5.1961 11.25 0.0 0
M  V30 30 N 5.1961 12.75 0.0 0
M  V30 31 C 6.4951 13.5 0.0 0
M  V30 32 C 3.8971 13.5 0.0 0
M  V30 33 C 6.4951 15.0 0.0 0
M  V30 34 C 3.8971 15.0 0.0 0
M  V30 35 C 5.1961 15.75 0.0 0
M  V30 36 N 5.1961 17.25 0.0 0
M  V30 37 C 6.4951 18.0 0.0 0
M  V30 38 C 3.8971 18.0 0.0 0
M  V30 39 C 6.4951 19.5 0.0 0
M  V30 40 C 3.8971 19.5 0.0 0
M  V30 41 N 5.1961 20.25 0.0 0
M  V30 42 C 5.1961 21.75 0.0 0
M  V30 END ATOM
M  V30 BEGIN BOND
M  V30 1 1 1 2
M  V30 2 2 2 3
M  V30 3 1 2 4
M  V30 4 1 3 5
M  V30 5 1 3 6
M  V30 6 2 4 7
M  V30 7 2 5 8
M  V30 8 1 6 9
M  V30 9 1 8 10
M  V30 10 2 9 11
M  V30 11 1 9 12
M  V30 12 1 10 13
M  V30 13 1 11 14
M  V30 14 1 11 15
M  V30 15 2 12 16
M  V30 16 2 13 17
M  V30 17 1 13 18
M  V30 18 2 14 19
M  V30 19 2 14 20
M  V30 20 1 14 21
M  V30 21 2 15 22
M  V30 22 1 17 23
M  V30 23 1 17 24
M  V30 24 2 18 25
M  V30 25 1 21 26
M  V30 26 1 21 27
M  V30 27 1 23 28
M  V30 28 2 24 29
M  V30 29 1 29 30
M  V30 30 1 30 31
M  V30 31 1 30 32
M  V30 32 1 31 33
M  V30 33 1 32 34
M  V30 34 1 33 35
M  V30 35 1 35 36
M  V30 36 1 36 37
M  V30 37 1 36 38
M  V30 38 1 37 39
M  V30 39 1 38 40
M  V30 40 1 39 41
M  V30 41 1 41 42
M  V30 42 1 7 8
M  V30 43 1 16 22
M  V30 44 1 25 29
M  V30 45 1 34 35
M  V30 46 1 40 41
M  V30 END BOND
M  V30 END CTAB
M  END
>  <Molecule Name>
Compound 202

>  <Molecule Name 2>
Compound 202

>  <Compound ID>
67

>  <Name>
TAE684

>  <Uniprot>
Q9UBE8

>  <Target>
NLK

>  <Smiles>
COC1=CC(N2CCC(N3CCN(C)CC3)CC2)=CC=C1NC1=NC=C(Cl)C(NC2=CC=CC=C2S(=O)(=O)C(C)C)=N1

>  <Kd (nM)>
>10000

>  <Assay (Kd)>
Kd was assessed by competition binding assays

>  <Ki (nM)>


>  <Assay (Ki)>


>  <IC50 (nM)>


>  <Assay (IC50)>


>  <EC50 (nM)>


>  <Assay (EC50)>


>  <Article DOI>
10.1038/nbt.1990

>  <Molecular Weight>
614.216

>  <Exact Mass>
613.2601868

>  <XLogP3>
5.67

>  <Heavy Atom Count>
42

>  <Ring Count>
5

>  <Hydrogen Bond Acceptor Count>
10

>  <Hydrogen Bond Donor Count>
2

>  <Rotatable Bond Count>
9

>  <Topological Polar Surface Area>
102.93

>  <Molecular Formula>
C30H40ClN7O3S

>  <InChI>
InChI=1S/C30H40ClN7O3S/c1-21(2)42(39,40)28-8-6-5-7-26(28)33-29-24(31)20-32-30(35-29)34-25-10-9-23(19-27(25)41-4)37-13-11-22(12-14-37)38-17-15-36(3)16-18-38/h5-10,19-22H,11-18H2,1-4H3,(H2,32,33,34,35)

>  <InChI Key>
QQWUGDVOUVUTOY-UHFFFAOYSA-N

>  <BindingDB>
50242742

>  <PubChem>
16038120

>  <ChEMBL>
CHEMBL509032

$$$$
67
Actelion Java MolfileCreator 2.0

  0  0  0  0  0  0              0 V3000
M  V30 BEGIN CTAB
M  V30 COUNTS 42 46 0 0 0
M  V30 BEGIN ATOM
M  V30 1 Cl 0.0 3.75 0.0 0
M  V30 2 C 1.299 4.5 0.0 0
M  V30 3 C 2.598 3.75 0.0 0
M  V30 4 C 1.299 6.0 0.0 0
M  V30 5 N 3.8971 4.5 0.0 0
M  V30 6 N 2.598 2.25 0.0 0
M  V30 7 N 2.598 6.75 0.0 0
M  V30 8 C 3.8971 6.0 0.0 0
M  V30 9 C 3.8971 1.5 0.0 0
M  V30 10 N 5.1961 6.75 0.0 0
M  V30 11 C 3.8971 0.0 0.0 0
M  V30 12 C 5.1961 2.25 0.0 0
M  V30 13 C 5.1961 8.25 0.0 0
M  V30 14 S 2.598 -0.75 0.0 0
M  V30 15 C 5.1961 -0.75 0.0 0
M  V30 16 C 6.4951 1.5 0.0 0
M  V30 17 C 6.4951 9.0 0.0 0
M  V30 18 C 3.8971 9.0 0.0 0
M  V30 19 O 1.848 -2.049 0.0 0
M  V30 20 O 3.348 -2.049 0.0 0
M  V30 21 C 1.299 0.0 0.0 0
M  V30 22 C 6.4951 0.0 0.0 0
M  V30 23 O 7.7942 8.25 0.0 0
M  V30 24 C 6.4951 10.5 0.0 0
M  V30 25 C 3.8971 10.5 0.0 0
M  V30 26 C 1.299 1.5 0.0 0
M  V30 27 C 0.0 -0.75 0.0 0
M  V30 28 C 9.0932 9.0 0.0 0
M  V30 29 C 5.1961 11.25 0.0 0
M  V30 30 N 5.1961 12.75 0.0 0
M  V30 31 C 6.4951 13.5 0.0 0
M  V30 32 C 3.8971 13.5 0.0 0
M  V30 33 C 6.4951 15.0 0.0 0
M  V30 34 C 3.8971 15.0 0.0 0
M  V30 35 C 5.1961 15.75 0.0 0
M  V30 36 N 5.1961 17.25 0.0 0
M  V30 37 C 6.4951 18.0 0.0 0
M  V30 38 C 3.8971 18.0 0.0 0
M  V30 39 C 6.4951 19.5 0.0 0
M  V30 40 C 3.8971 19.5 0.0 0
M  V30 41 N 5.1961 20.25 0.0 0
M  V30 42 C 5.1961 21.75 0.0 0
M  V30 END ATOM
M  V30 BEGIN BOND
M  V30 1 1 1 2
M  V30 2 2 2 3
M  V30 3 1 2 4
M  V30 4 1 3 5
M  V30 5 1 3 6
M  V30 6 2 4 7
M  V30 7 2 5 8
M  V30 8 1 6 9
M  V30 9 1 8 10
M  V30 10 2 9 11
M  V30 11 1 9 12
M  V30 12 1 10 13
M  V30 13 1 11 14
M  V30 14 1 11 15
M  V30 15 2 12 16
M  V30 16 2 13 17
M  V30 17 1 13 18
M  V30 18 2 14 19
M  V30 19 2 14 20
M  V30 20 1 14 21
M  V30 21 2 15 22
M  V30 22 1 17 23
M  V30 23 1 17 24
M  V30 24 2 18 25
M  V30 25 1 21 26
M  V30 26 1 21 27
M  V30 27 1 23 28
M  V30 28 2 24 29
M  V30 29 1 29 30
M  V30 30 1 30 31
M  V30 31 1 30 32
M  V30 32 1 31 33
M  V30 33 1 32 34
M  V30 34 1 33 35
M  V30 35 1 35 36
M  V30 36 1 36 37
M  V30 37 1 36 38
M  V30 38 1 37 39
M  V30 39 1 38 40
M  V30 40 1 39 41
M  V30 41 1 41 42
M  V30 42 1 7 8
M  V30 43 1 16 22
M  V30 44 1 25 29
M  V30 45 1 34 35
M  V30 46 1 40 41
M  V30 END BOND
M  V30 END CTAB
M  END
>  <Molecule Name>
Compound 203

>  <Molecule Name 2>
Compound 203

>  <Compound ID>
67

>  <Name>
TAE684

>  <Uniprot>
Q15119

>  <Target>
PDK2

>  <Smiles>
COC1=CC(N2CCC(N3CCN(C)CC3)CC2)=CC=C1NC1=NC=C(Cl)C(NC2=CC=CC=C2S(=O)(=O)C(C)C)=N1

>  <Kd (nM)>


>  <Assay (Kd)>


>  <Ki (nM)>


>  <Assay (Ki)>


>  <IC50 (nM)>


>  <Assay (IC50)>


>  <EC50 (nM)>


>  <Assay (EC50)>


>  <Article DOI>
10.1016/j.cell.2020.10.038

>  <Molecular Weight>
614.216

>  <Exact Mass>
613.2601868

>  <XLogP3>
5.67

>  <Heavy Atom Count>
42

>  <Ring Count>
5

>  <Hydrogen Bond Acceptor Count>
10

>  <Hydrogen Bond Donor Count>
2

>  <Rotatable Bond Count>
9

>  <Topological Polar Surface Area>
102.93

>  <Molecular Formula>
C30H40ClN7O3S

>  <InChI>
InChI=1S/C30H40ClN7O3S/c1-21(2)42(39,40)28-8-6-5-7-26(28)33-29-24(31)20-32-30(35-29)34-25-10-9-23(19-27(25)41-4)37-13-11-22(12-14-37)38-17-15-36(3)16-18-38/h5-10,19-22H,11-18H2,1-4H3,(H2,32,33,34,35)

>  <InChI Key>
QQWUGDVOUVUTOY-UHFFFAOYSA-N

>  <BindingDB>
50242742

>  <PubChem>
16038120

>  <ChEMBL>
CHEMBL509032

$$$$
67
Actelion Java MolfileCreator 2.0

  0  0  0  0  0  0              0 V3000
M  V30 BEGIN CTAB
M  V30 COUNTS 42 46 0 0 0
M  V30 BEGIN ATOM
M  V30 1 Cl 0.0 3.75 0.0 0
M  V30 2 C 1.299 4.5 0.0 0
M  V30 3 C 2.598 3.75 0.0 0
M  V30 4 C 1.299 6.0 0.0 0
M  V30 5 N 3.8971 4.5 0.0 0
M  V30 6 N 2.598 2.25 0.0 0
M  V30 7 N 2.598 6.75 0.0 0
M  V30 8 C 3.8971 6.0 0.0 0
M  V30 9 C 3.8971 1.5 0.0 0
M  V30 10 N 5.1961 6.75 0.0 0
M  V30 11 C 3.8971 0.0 0.0 0
M  V30 12 C 5.1961 2.25 0.0 0
M  V30 13 C 5.1961 8.25 0.0 0
M  V30 14 S 2.598 -0.75 0.0 0
M  V30 15 C 5.1961 -0.75 0.0 0
M  V30 16 C 6.4951 1.5 0.0 0
M  V30 17 C 6.4951 9.0 0.0 0
M  V30 18 C 3.8971 9.0 0.0 0
M  V30 19 O 1.848 -2.049 0.0 0
M  V30 20 O 3.348 -2.049 0.0 0
M  V30 21 C 1.299 0.0 0.0 0
M  V30 22 C 6.4951 0.0 0.0 0
M  V30 23 O 7.7942 8.25 0.0 0
M  V30 24 C 6.4951 10.5 0.0 0
M  V30 25 C 3.8971 10.5 0.0 0
M  V30 26 C 1.299 1.5 0.0 0
M  V30 27 C 0.0 -0.75 0.0 0
M  V30 28 C 9.0932 9.0 0.0 0
M  V30 29 C 5.1961 11.25 0.0 0
M  V30 30 N 5.1961 12.75 0.0 0
M  V30 31 C 6.4951 13.5 0.0 0
M  V30 32 C 3.8971 13.5 0.0 0
M  V30 33 C 6.4951 15.0 0.0 0
M  V30 34 C 3.8971 15.0 0.0 0
M  V30 35 C 5.1961 15.75 0.0 0
M  V30 36 N 5.1961 17.25 0.0 0
M  V30 37 C 6.4951 18.0 0.0 0
M  V30 38 C 3.8971 18.0 0.0 0
M  V30 39 C 6.4951 19.5 0.0 0
M  V30 40 C 3.8971 19.5 0.0 0
M  V30 41 N 5.1961 20.25 0.0 0
M  V30 42 C 5.1961 21.75 0.0 0
M  V30 END ATOM
M  V30 BEGIN BOND
M  V30 1 1 1 2
M  V30 2 2 2 3
M  V30 3 1 2 4
M  V30 4 1 3 5
M  V30 5 1 3 6
M  V30 6 2 4 7
M  V30 7 2 5 8
M  V30 8 1 6 9
M  V30 9 1 8 10
M  V30 10 2 9 11
M  V30 11 1 9 12
M  V30 12 1 10 13
M  V30 13 1 11 14
M  V30 14 1 11 15
M  V30 15 2 12 16
M  V30 16 2 13 17
M  V30 17 1 13 18
M  V30 18 2 14 19
M  V30 19 2 14 20
M  V30 20 1 14 21
M  V30 21 2 15 22
M  V30 22 1 17 23
M  V30 23 1 17 24
M  V30 24 2 18 25
M  V30 25 1 21 26
M  V30 26 1 21 27
M  V30 27 1 23 28
M  V30 28 2 24 29
M  V30 29 1 29 30
M  V30 30 1 30 31
M  V30 31 1 30 32
M  V30 32 1 31 33
M  V30 33 1 32 34
M  V30 34 1 33 35
M  V30 35 1 35 36
M  V30 36 1 36 37
M  V30 37 1 36 38
M  V30 38 1 37 39
M  V30 39 1 38 40
M  V30 40 1 39 41
M  V30 41 1 41 42
M  V30 42 1 7 8
M  V30 43 1 16 22
M  V30 44 1 25 29
M  V30 45 1 34 35
M  V30 46 1 40 41
M  V30 END BOND
M  V30 END CTAB
M  END
>  <Molecule Name>
Compound 204

>  <Molecule Name 2>
Compound 204

>  <Compound ID>
67

>  <Name>
TAE684

>  <Uniprot>
Q15120

>  <Target>
PDK3

>  <Smiles>
COC1=CC(N2CCC(N3CCN(C)CC3)CC2)=CC=C1NC1=NC=C(Cl)C(NC2=CC=CC=C2S(=O)(=O)C(C)C)=N1

>  <Kd (nM)>


>  <Assay (Kd)>


>  <Ki (nM)>


>  <Assay (Ki)>


>  <IC50 (nM)>


>  <Assay (IC50)>


>  <EC50 (nM)>


>  <Assay (EC50)>


>  <Article DOI>
10.1016/j.cell.2020.10.038

>  <Molecular Weight>
614.216

>  <Exact Mass>
613.2601868

>  <XLogP3>
5.67

>  <Heavy Atom Count>
42

>  <Ring Count>
5

>  <Hydrogen Bond Acceptor Count>
10

>  <Hydrogen Bond Donor Count>
2

>  <Rotatable Bond Count>
9

>  <Topological Polar Surface Area>
102.93

>  <Molecular Formula>
C30H40ClN7O3S

>  <InChI>
InChI=1S/C30H40ClN7O3S/c1-21(2)42(39,40)28-8-6-5-7-26(28)33-29-24(31)20-32-30(35-29)34-25-10-9-23(19-27(25)41-4)37-13-11-22(12-14-37)38-17-15-36(3)16-18-38/h5-10,19-22H,11-18H2,1-4H3,(H2,32,33,34,35)

>  <InChI Key>
QQWUGDVOUVUTOY-UHFFFAOYSA-N

>  <BindingDB>
50242742

>  <PubChem>
16038120

>  <ChEMBL>
CHEMBL509032

$$$$
67
Actelion Java MolfileCreator 2.0

  0  0  0  0  0  0              0 V3000
M  V30 BEGIN CTAB
M  V30 COUNTS 42 46 0 0 0
M  V30 BEGIN ATOM
M  V30 1 Cl 0.0 3.75 0.0 0
M  V30 2 C 1.299 4.5 0.0 0
M  V30 3 C 2.598 3.75 0.0 0
M  V30 4 C 1.299 6.0 0.0 0
M  V30 5 N 3.8971 4.5 0.0 0
M  V30 6 N 2.598 2.25 0.0 0
M  V30 7 N 2.598 6.75 0.0 0
M  V30 8 C 3.8971 6.0 0.0 0
M  V30 9 C 3.8971 1.5 0.0 0
M  V30 10 N 5.1961 6.75 0.0 0
M  V30 11 C 3.8971 0.0 0.0 0
M  V30 12 C 5.1961 2.25 0.0 0
M  V30 13 C 5.1961 8.25 0.0 0
M  V30 14 S 2.598 -0.75 0.0 0
M  V30 15 C 5.1961 -0.75 0.0 0
M  V30 16 C 6.4951 1.5 0.0 0
M  V30 17 C 6.4951 9.0 0.0 0
M  V30 18 C 3.8971 9.0 0.0 0
M  V30 19 O 1.848 -2.049 0.0 0
M  V30 20 O 3.348 -2.049 0.0 0
M  V30 21 C 1.299 0.0 0.0 0
M  V30 22 C 6.4951 0.0 0.0 0
M  V30 23 O 7.7942 8.25 0.0 0
M  V30 24 C 6.4951 10.5 0.0 0
M  V30 25 C 3.8971 10.5 0.0 0
M  V30 26 C 1.299 1.5 0.0 0
M  V30 27 C 0.0 -0.75 0.0 0
M  V30 28 C 9.0932 9.0 0.0 0
M  V30 29 C 5.1961 11.25 0.0 0
M  V30 30 N 5.1961 12.75 0.0 0
M  V30 31 C 6.4951 13.5 0.0 0
M  V30 32 C 3.8971 13.5 0.0 0
M  V30 33 C 6.4951 15.0 0.0 0
M  V30 34 C 3.8971 15.0 0.0 0
M  V30 35 C 5.1961 15.75 0.0 0
M  V30 36 N 5.1961 17.25 0.0 0
M  V30 37 C 6.4951 18.0 0.0 0
M  V30 38 C 3.8971 18.0 0.0 0
M  V30 39 C 6.4951 19.5 0.0 0
M  V30 40 C 3.8971 19.5 0.0 0
M  V30 41 N 5.1961 20.25 0.0 0
M  V30 42 C 5.1961 21.75 0.0 0
M  V30 END ATOM
M  V30 BEGIN BOND
M  V30 1 1 1 2
M  V30 2 2 2 3
M  V30 3 1 2 4
M  V30 4 1 3 5
M  V30 5 1 3 6
M  V30 6 2 4 7
M  V30 7 2 5 8
M  V30 8 1 6 9
M  V30 9 1 8 10
M  V30 10 2 9 11
M  V30 11 1 9 12
M  V30 12 1 10 13
M  V30 13 1 11 14
M  V30 14 1 11 15
M  V30 15 2 12 16
M  V30 16 2 13 17
M  V30 17 1 13 18
M  V30 18 2 14 19
M  V30 19 2 14 20
M  V30 20 1 14 21
M  V30 21 2 15 22
M  V30 22 1 17 23
M  V30 23 1 17 24
M  V30 24 2 18 25
M  V30 25 1 21 26
M  V30 26 1 21 27
M  V30 27 1 23 28
M  V30 28 2 24 29
M  V30 29 1 29 30
M  V30 30 1 30 31
M  V30 31 1 30 32
M  V30 32 1 31 33
M  V30 33 1 32 34
M  V30 34 1 33 35
M  V30 35 1 35 36
M  V30 36 1 36 37
M  V30 37 1 36 38
M  V30 38 1 37 39
M  V30 39 1 38 40
M  V30 40 1 39 41
M  V30 41 1 41 42
M  V30 42 1 7 8
M  V30 43 1 16 22
M  V30 44 1 25 29
M  V30 45 1 34 35
M  V30 46 1 40 41
M  V30 END BOND
M  V30 END CTAB
M  END
>  <Molecule Name>
Compound 205

>  <Molecule Name 2>
Compound 205

>  <Compound ID>
67

>  <Name>
TAE684

>  <Uniprot>
Q6P5Z2

>  <Target>
PKN3

>  <Smiles>
COC1=CC(N2CCC(N3CCN(C)CC3)CC2)=CC=C1NC1=NC=C(Cl)C(NC2=CC=CC=C2S(=O)(=O)C(C)C)=N1

>  <Kd (nM)>


>  <Assay (Kd)>


>  <Ki (nM)>


>  <Assay (Ki)>


>  <IC50 (nM)>


>  <Assay (IC50)>


>  <EC50 (nM)>


>  <Assay (EC50)>


>  <Article DOI>
10.1016/j.cell.2020.10.038

>  <Molecular Weight>
614.216

>  <Exact Mass>
613.2601868

>  <XLogP3>
5.67

>  <Heavy Atom Count>
42

>  <Ring Count>
5

>  <Hydrogen Bond Acceptor Count>
10

>  <Hydrogen Bond Donor Count>
2

>  <Rotatable Bond Count>
9

>  <Topological Polar Surface Area>
102.93

>  <Molecular Formula>
C30H40ClN7O3S

>  <InChI>
InChI=1S/C30H40ClN7O3S/c1-21(2)42(39,40)28-8-6-5-7-26(28)33-29-24(31)20-32-30(35-29)34-25-10-9-23(19-27(25)41-4)37-13-11-22(12-14-37)38-17-15-36(3)16-18-38/h5-10,19-22H,11-18H2,1-4H3,(H2,32,33,34,35)

>  <InChI Key>
QQWUGDVOUVUTOY-UHFFFAOYSA-N

>  <BindingDB>
50242742

>  <PubChem>
16038120

>  <ChEMBL>
CHEMBL509032

$$$$
67
Actelion Java MolfileCreator 2.0

  0  0  0  0  0  0              0 V3000
M  V30 BEGIN CTAB
M  V30 COUNTS 42 46 0 0 0
M  V30 BEGIN ATOM
M  V30 1 Cl 0.0 3.75 0.0 0
M  V30 2 C 1.299 4.5 0.0 0
M  V30 3 C 2.598 3.75 0.0 0
M  V30 4 C 1.299 6.0 0.0 0
M  V30 5 N 3.8971 4.5 0.0 0
M  V30 6 N 2.598 2.25 0.0 0
M  V30 7 N 2.598 6.75 0.0 0
M  V30 8 C 3.8971 6.0 0.0 0
M  V30 9 C 3.8971 1.5 0.0 0
M  V30 10 N 5.1961 6.75 0.0 0
M  V30 11 C 3.8971 0.0 0.0 0
M  V30 12 C 5.1961 2.25 0.0 0
M  V30 13 C 5.1961 8.25 0.0 0
M  V30 14 S 2.598 -0.75 0.0 0
M  V30 15 C 5.1961 -0.75 0.0 0
M  V30 16 C 6.4951 1.5 0.0 0
M  V30 17 C 6.4951 9.0 0.0 0
M  V30 18 C 3.8971 9.0 0.0 0
M  V30 19 O 1.848 -2.049 0.0 0
M  V30 20 O 3.348 -2.049 0.0 0
M  V30 21 C 1.299 0.0 0.0 0
M  V30 22 C 6.4951 0.0 0.0 0
M  V30 23 O 7.7942 8.25 0.0 0
M  V30 24 C 6.4951 10.5 0.0 0
M  V30 25 C 3.8971 10.5 0.0 0
M  V30 26 C 1.299 1.5 0.0 0
M  V30 27 C 0.0 -0.75 0.0 0
M  V30 28 C 9.0932 9.0 0.0 0
M  V30 29 C 5.1961 11.25 0.0 0
M  V30 30 N 5.1961 12.75 0.0 0
M  V30 31 C 6.4951 13.5 0.0 0
M  V30 32 C 3.8971 13.5 0.0 0
M  V30 33 C 6.4951 15.0 0.0 0
M  V30 34 C 3.8971 15.0 0.0 0
M  V30 35 C 5.1961 15.75 0.0 0
M  V30 36 N 5.1961 17.25 0.0 0
M  V30 37 C 6.4951 18.0 0.0 0
M  V30 38 C 3.8971 18.0 0.0 0
M  V30 39 C 6.4951 19.5 0.0 0
M  V30 40 C 3.8971 19.5 0.0 0
M  V30 41 N 5.1961 20.25 0.0 0
M  V30 42 C 5.1961 21.75 0.0 0
M  V30 END ATOM
M  V30 BEGIN BOND
M  V30 1 1 1 2
M  V30 2 2 2 3
M  V30 3 1 2 4
M  V30 4 1 3 5
M  V30 5 1 3 6
M  V30 6 2 4 7
M  V30 7 2 5 8
M  V30 8 1 6 9
M  V30 9 1 8 10
M  V30 10 2 9 11
M  V30 11 1 9 12
M  V30 12 1 10 13
M  V30 13 1 11 14
M  V30 14 1 11 15
M  V30 15 2 12 16
M  V30 16 2 13 17
M  V30 17 1 13 18
M  V30 18 2 14 19
M  V30 19 2 14 20
M  V30 20 1 14 21
M  V30 21 2 15 22
M  V30 22 1 17 23
M  V30 23 1 17 24
M  V30 24 2 18 25
M  V30 25 1 21 26
M  V30 26 1 21 27
M  V30 27 1 23 28
M  V30 28 2 24 29
M  V30 29 1 29 30
M  V30 30 1 30 31
M  V30 31 1 30 32
M  V30 32 1 31 33
M  V30 33 1 32 34
M  V30 34 1 33 35
M  V30 35 1 35 36
M  V30 36 1 36 37
M  V30 37 1 36 38
M  V30 38 1 37 39
M  V30 39 1 38 40
M  V30 40 1 39 41
M  V30 41 1 41 42
M  V30 42 1 7 8
M  V30 43 1 16 22
M  V30 44 1 25 29
M  V30 45 1 34 35
M  V30 46 1 40 41
M  V30 END BOND
M  V30 END CTAB
M  END
>  <Molecule Name>
Compound 206

>  <Molecule Name 2>
Compound 206

>  <Compound ID>
67

>  <Name>
TAE684

>  <Uniprot>
P53350

>  <Target>
PLK1

>  <Smiles>
COC1=CC(N2CCC(N3CCN(C)CC3)CC2)=CC=C1NC1=NC=C(Cl)C(NC2=CC=CC=C2S(=O)(=O)C(C)C)=N1

>  <Kd (nM)>
20

>  <Assay (Kd)>
Kd was assessed by competition binding assays

>  <Ki (nM)>


>  <Assay (Ki)>


>  <IC50 (nM)>


>  <Assay (IC50)>


>  <EC50 (nM)>


>  <Assay (EC50)>


>  <Article DOI>
10.1038/nbt.1990

>  <Molecular Weight>
614.216

>  <Exact Mass>
613.2601868

>  <XLogP3>
5.67

>  <Heavy Atom Count>
42

>  <Ring Count>
5

>  <Hydrogen Bond Acceptor Count>
10

>  <Hydrogen Bond Donor Count>
2

>  <Rotatable Bond Count>
9

>  <Topological Polar Surface Area>
102.93

>  <Molecular Formula>
C30H40ClN7O3S

>  <InChI>
InChI=1S/C30H40ClN7O3S/c1-21(2)42(39,40)28-8-6-5-7-26(28)33-29-24(31)20-32-30(35-29)34-25-10-9-23(19-27(25)41-4)37-13-11-22(12-14-37)38-17-15-36(3)16-18-38/h5-10,19-22H,11-18H2,1-4H3,(H2,32,33,34,35)

>  <InChI Key>
QQWUGDVOUVUTOY-UHFFFAOYSA-N

>  <BindingDB>
50242742

>  <PubChem>
16038120

>  <ChEMBL>
CHEMBL509032

$$$$
67
Actelion Java MolfileCreator 2.0

  0  0  0  0  0  0              0 V3000
M  V30 BEGIN CTAB
M  V30 COUNTS 42 46 0 0 0
M  V30 BEGIN ATOM
M  V30 1 Cl 0.0 3.75 0.0 0
M  V30 2 C 1.299 4.5 0.0 0
M  V30 3 C 2.598 3.75 0.0 0
M  V30 4 C 1.299 6.0 0.0 0
M  V30 5 N 3.8971 4.5 0.0 0
M  V30 6 N 2.598 2.25 0.0 0
M  V30 7 N 2.598 6.75 0.0 0
M  V30 8 C 3.8971 6.0 0.0 0
M  V30 9 C 3.8971 1.5 0.0 0
M  V30 10 N 5.1961 6.75 0.0 0
M  V30 11 C 3.8971 0.0 0.0 0
M  V30 12 C 5.1961 2.25 0.0 0
M  V30 13 C 5.1961 8.25 0.0 0
M  V30 14 S 2.598 -0.75 0.0 0
M  V30 15 C 5.1961 -0.75 0.0 0
M  V30 16 C 6.4951 1.5 0.0 0
M  V30 17 C 6.4951 9.0 0.0 0
M  V30 18 C 3.8971 9.0 0.0 0
M  V30 19 O 1.848 -2.049 0.0 0
M  V30 20 O 3.348 -2.049 0.0 0
M  V30 21 C 1.299 0.0 0.0 0
M  V30 22 C 6.4951 0.0 0.0 0
M  V30 23 O 7.7942 8.25 0.0 0
M  V30 24 C 6.4951 10.5 0.0 0
M  V30 25 C 3.8971 10.5 0.0 0
M  V30 26 C 1.299 1.5 0.0 0
M  V30 27 C 0.0 -0.75 0.0 0
M  V30 28 C 9.0932 9.0 0.0 0
M  V30 29 C 5.1961 11.25 0.0 0
M  V30 30 N 5.1961 12.75 0.0 0
M  V30 31 C 6.4951 13.5 0.0 0
M  V30 32 C 3.8971 13.5 0.0 0
M  V30 33 C 6.4951 15.0 0.0 0
M  V30 34 C 3.8971 15.0 0.0 0
M  V30 35 C 5.1961 15.75 0.0 0
M  V30 36 N 5.1961 17.25 0.0 0
M  V30 37 C 6.4951 18.0 0.0 0
M  V30 38 C 3.8971 18.0 0.0 0
M  V30 39 C 6.4951 19.5 0.0 0
M  V30 40 C 3.8971 19.5 0.0 0
M  V30 41 N 5.1961 20.25 0.0 0
M  V30 42 C 5.1961 21.75 0.0 0
M  V30 END ATOM
M  V30 BEGIN BOND
M  V30 1 1 1 2
M  V30 2 2 2 3
M  V30 3 1 2 4
M  V30 4 1 3 5
M  V30 5 1 3 6
M  V30 6 2 4 7
M  V30 7 2 5 8
M  V30 8 1 6 9
M  V30 9 1 8 10
M  V30 10 2 9 11
M  V30 11 1 9 12
M  V30 12 1 10 13
M  V30 13 1 11 14
M  V30 14 1 11 15
M  V30 15 2 12 16
M  V30 16 2 13 17
M  V30 17 1 13 18
M  V30 18 2 14 19
M  V30 19 2 14 20
M  V30 20 1 14 21
M  V30 21 2 15 22
M  V30 22 1 17 23
M  V30 23 1 17 24
M  V30 24 2 18 25
M  V30 25 1 21 26
M  V30 26 1 21 27
M  V30 27 1 23 28
M  V30 28 2 24 29
M  V30 29 1 29 30
M  V30 30 1 30 31
M  V30 31 1 30 32
M  V30 32 1 31 33
M  V30 33 1 32 34
M  V30 34 1 33 35
M  V30 35 1 35 36
M  V30 36 1 36 37
M  V30 37 1 36 38
M  V30 38 1 37 39
M  V30 39 1 38 40
M  V30 40 1 39 41
M  V30 41 1 41 42
M  V30 42 1 7 8
M  V30 43 1 16 22
M  V30 44 1 25 29
M  V30 45 1 34 35
M  V30 46 1 40 41
M  V30 END BOND
M  V30 END CTAB
M  END
>  <Molecule Name>
Compound 207

>  <Molecule Name 2>
Compound 207

>  <Compound ID>
67

>  <Name>
TAE684

>  <Uniprot>
O00444

>  <Target>
PLK4

>  <Smiles>
COC1=CC(N2CCC(N3CCN(C)CC3)CC2)=CC=C1NC1=NC=C(Cl)C(NC2=CC=CC=C2S(=O)(=O)C(C)C)=N1

>  <Kd (nM)>
0.93

>  <Assay (Kd)>
Kd was assessed by competition binding assays

>  <Ki (nM)>


>  <Assay (Ki)>


>  <IC50 (nM)>


>  <Assay (IC50)>


>  <EC50 (nM)>


>  <Assay (EC50)>


>  <Article DOI>
10.1038/nbt.1990

>  <Molecular Weight>
614.216

>  <Exact Mass>
613.2601868

>  <XLogP3>
5.67

>  <Heavy Atom Count>
42

>  <Ring Count>
5

>  <Hydrogen Bond Acceptor Count>
10

>  <Hydrogen Bond Donor Count>
2

>  <Rotatable Bond Count>
9

>  <Topological Polar Surface Area>
102.93

>  <Molecular Formula>
C30H40ClN7O3S

>  <InChI>
InChI=1S/C30H40ClN7O3S/c1-21(2)42(39,40)28-8-6-5-7-26(28)33-29-24(31)20-32-30(35-29)34-25-10-9-23(19-27(25)41-4)37-13-11-22(12-14-37)38-17-15-36(3)16-18-38/h5-10,19-22H,11-18H2,1-4H3,(H2,32,33,34,35)

>  <InChI Key>
QQWUGDVOUVUTOY-UHFFFAOYSA-N

>  <BindingDB>
50242742

>  <PubChem>
16038120

>  <ChEMBL>
CHEMBL509032

$$$$
67
Actelion Java MolfileCreator 2.0

  0  0  0  0  0  0              0 V3000
M  V30 BEGIN CTAB
M  V30 COUNTS 42 46 0 0 0
M  V30 BEGIN ATOM
M  V30 1 Cl 0.0 3.75 0.0 0
M  V30 2 C 1.299 4.5 0.0 0
M  V30 3 C 2.598 3.75 0.0 0
M  V30 4 C 1.299 6.0 0.0 0
M  V30 5 N 3.8971 4.5 0.0 0
M  V30 6 N 2.598 2.25 0.0 0
M  V30 7 N 2.598 6.75 0.0 0
M  V30 8 C 3.8971 6.0 0.0 0
M  V30 9 C 3.8971 1.5 0.0 0
M  V30 10 N 5.1961 6.75 0.0 0
M  V30 11 C 3.8971 0.0 0.0 0
M  V30 12 C 5.1961 2.25 0.0 0
M  V30 13 C 5.1961 8.25 0.0 0
M  V30 14 S 2.598 -0.75 0.0 0
M  V30 15 C 5.1961 -0.75 0.0 0
M  V30 16 C 6.4951 1.5 0.0 0
M  V30 17 C 6.4951 9.0 0.0 0
M  V30 18 C 3.8971 9.0 0.0 0
M  V30 19 O 1.848 -2.049 0.0 0
M  V30 20 O 3.348 -2.049 0.0 0
M  V30 21 C 1.299 0.0 0.0 0
M  V30 22 C 6.4951 0.0 0.0 0
M  V30 23 O 7.7942 8.25 0.0 0
M  V30 24 C 6.4951 10.5 0.0 0
M  V30 25 C 3.8971 10.5 0.0 0
M  V30 26 C 1.299 1.5 0.0 0
M  V30 27 C 0.0 -0.75 0.0 0
M  V30 28 C 9.0932 9.0 0.0 0
M  V30 29 C 5.1961 11.25 0.0 0
M  V30 30 N 5.1961 12.75 0.0 0
M  V30 31 C 6.4951 13.5 0.0 0
M  V30 32 C 3.8971 13.5 0.0 0
M  V30 33 C 6.4951 15.0 0.0 0
M  V30 34 C 3.8971 15.0 0.0 0
M  V30 35 C 5.1961 15.75 0.0 0
M  V30 36 N 5.1961 17.25 0.0 0
M  V30 37 C 6.4951 18.0 0.0 0
M  V30 38 C 3.8971 18.0 0.0 0
M  V30 39 C 6.4951 19.5 0.0 0
M  V30 40 C 3.8971 19.5 0.0 0
M  V30 41 N 5.1961 20.25 0.0 0
M  V30 42 C 5.1961 21.75 0.0 0
M  V30 END ATOM
M  V30 BEGIN BOND
M  V30 1 1 1 2
M  V30 2 2 2 3
M  V30 3 1 2 4
M  V30 4 1 3 5
M  V30 5 1 3 6
M  V30 6 2 4 7
M  V30 7 2 5 8
M  V30 8 1 6 9
M  V30 9 1 8 10
M  V30 10 2 9 11
M  V30 11 1 9 12
M  V30 12 1 10 13
M  V30 13 1 11 14
M  V30 14 1 11 15
M  V30 15 2 12 16
M  V30 16 2 13 17
M  V30 17 1 13 18
M  V30 18 2 14 19
M  V30 19 2 14 20
M  V30 20 1 14 21
M  V30 21 2 15 22
M  V30 22 1 17 23
M  V30 23 1 17 24
M  V30 24 2 18 25
M  V30 25 1 21 26
M  V30 26 1 21 27
M  V30 27 1 23 28
M  V30 28 2 24 29
M  V30 29 1 29 30
M  V30 30 1 30 31
M  V30 31 1 30 32
M  V30 32 1 31 33
M  V30 33 1 32 34
M  V30 34 1 33 35
M  V30 35 1 35 36
M  V30 36 1 36 37
M  V30 37 1 36 38
M  V30 38 1 37 39
M  V30 39 1 38 40
M  V30 40 1 39 41
M  V30 41 1 41 42
M  V30 42 1 7 8
M  V30 43 1 16 22
M  V30 44 1 25 29
M  V30 45 1 34 35
M  V30 46 1 40 41
M  V30 END BOND
M  V30 END CTAB
M  END
>  <Molecule Name>
Compound 208

>  <Molecule Name 2>
Compound 208

>  <Compound ID>
67

>  <Name>
TAE684

>  <Uniprot>
Q86YV5

>  <Target>
PRAG1

>  <Smiles>
COC1=CC(N2CCC(N3CCN(C)CC3)CC2)=CC=C1NC1=NC=C(Cl)C(NC2=CC=CC=C2S(=O)(=O)C(C)C)=N1

>  <Kd (nM)>


>  <Assay (Kd)>


>  <Ki (nM)>


>  <Assay (Ki)>


>  <IC50 (nM)>


>  <Assay (IC50)>


>  <EC50 (nM)>


>  <Assay (EC50)>


>  <Article DOI>
10.1016/j.cell.2020.10.038

>  <Molecular Weight>
614.216

>  <Exact Mass>
613.2601868

>  <XLogP3>
5.67

>  <Heavy Atom Count>
42

>  <Ring Count>
5

>  <Hydrogen Bond Acceptor Count>
10

>  <Hydrogen Bond Donor Count>
2

>  <Rotatable Bond Count>
9

>  <Topological Polar Surface Area>
102.93

>  <Molecular Formula>
C30H40ClN7O3S

>  <InChI>
InChI=1S/C30H40ClN7O3S/c1-21(2)42(39,40)28-8-6-5-7-26(28)33-29-24(31)20-32-30(35-29)34-25-10-9-23(19-27(25)41-4)37-13-11-22(12-14-37)38-17-15-36(3)16-18-38/h5-10,19-22H,11-18H2,1-4H3,(H2,32,33,34,35)

>  <InChI Key>
QQWUGDVOUVUTOY-UHFFFAOYSA-N

>  <BindingDB>
50242742

>  <PubChem>
16038120

>  <ChEMBL>
CHEMBL509032

$$$$
67
Actelion Java MolfileCreator 2.0

  0  0  0  0  0  0              0 V3000
M  V30 BEGIN CTAB
M  V30 COUNTS 42 46 0 0 0
M  V30 BEGIN ATOM
M  V30 1 Cl 0.0 3.75 0.0 0
M  V30 2 C 1.299 4.5 0.0 0
M  V30 3 C 2.598 3.75 0.0 0
M  V30 4 C 1.299 6.0 0.0 0
M  V30 5 N 3.8971 4.5 0.0 0
M  V30 6 N 2.598 2.25 0.0 0
M  V30 7 N 2.598 6.75 0.0 0
M  V30 8 C 3.8971 6.0 0.0 0
M  V30 9 C 3.8971 1.5 0.0 0
M  V30 10 N 5.1961 6.75 0.0 0
M  V30 11 C 3.8971 0.0 0.0 0
M  V30 12 C 5.1961 2.25 0.0 0
M  V30 13 C 5.1961 8.25 0.0 0
M  V30 14 S 2.598 -0.75 0.0 0
M  V30 15 C 5.1961 -0.75 0.0 0
M  V30 16 C 6.4951 1.5 0.0 0
M  V30 17 C 6.4951 9.0 0.0 0
M  V30 18 C 3.8971 9.0 0.0 0
M  V30 19 O 1.848 -2.049 0.0 0
M  V30 20 O 3.348 -2.049 0.0 0
M  V30 21 C 1.299 0.0 0.0 0
M  V30 22 C 6.4951 0.0 0.0 0
M  V30 23 O 7.7942 8.25 0.0 0
M  V30 24 C 6.4951 10.5 0.0 0
M  V30 25 C 3.8971 10.5 0.0 0
M  V30 26 C 1.299 1.5 0.0 0
M  V30 27 C 0.0 -0.75 0.0 0
M  V30 28 C 9.0932 9.0 0.0 0
M  V30 29 C 5.1961 11.25 0.0 0
M  V30 30 N 5.1961 12.75 0.0 0
M  V30 31 C 6.4951 13.5 0.0 0
M  V30 32 C 3.8971 13.5 0.0 0
M  V30 33 C 6.4951 15.0 0.0 0
M  V30 34 C 3.8971 15.0 0.0 0
M  V30 35 C 5.1961 15.75 0.0 0
M  V30 36 N 5.1961 17.25 0.0 0
M  V30 37 C 6.4951 18.0 0.0 0
M  V30 38 C 3.8971 18.0 0.0 0
M  V30 39 C 6.4951 19.5 0.0 0
M  V30 40 C 3.8971 19.5 0.0 0
M  V30 41 N 5.1961 20.25 0.0 0
M  V30 42 C 5.1961 21.75 0.0 0
M  V30 END ATOM
M  V30 BEGIN BOND
M  V30 1 1 1 2
M  V30 2 2 2 3
M  V30 3 1 2 4
M  V30 4 1 3 5
M  V30 5 1 3 6
M  V30 6 2 4 7
M  V30 7 2 5 8
M  V30 8 1 6 9
M  V30 9 1 8 10
M  V30 10 2 9 11
M  V30 11 1 9 12
M  V30 12 1 10 13
M  V30 13 1 11 14
M  V30 14 1 11 15
M  V30 15 2 12 16
M  V30 16 2 13 17
M  V30 17 1 13 18
M  V30 18 2 14 19
M  V30 19 2 14 20
M  V30 20 1 14 21
M  V30 21 2 15 22
M  V30 22 1 17 23
M  V30 23 1 17 24
M  V30 24 2 18 25
M  V30 25 1 21 26
M  V30 26 1 21 27
M  V30 27 1 23 28
M  V30 28 2 24 29
M  V30 29 1 29 30
M  V30 30 1 30 31
M  V30 31 1 30 32
M  V30 32 1 31 33
M  V30 33 1 32 34
M  V30 34 1 33 35
M  V30 35 1 35 36
M  V30 36 1 36 37
M  V30 37 1 36 38
M  V30 38 1 37 39
M  V30 39 1 38 40
M  V30 40 1 39 41
M  V30 41 1 41 42
M  V30 42 1 7 8
M  V30 43 1 16 22
M  V30 44 1 25 29
M  V30 45 1 34 35
M  V30 46 1 40 41
M  V30 END BOND
M  V30 END CTAB
M  END
>  <Molecule Name>
Compound 209

>  <Molecule Name 2>
Compound 209

>  <Compound ID>
67

>  <Name>
TAE684

>  <Uniprot>
Q13131

>  <Target>
PRKAA1

>  <Smiles>
COC1=CC(N2CCC(N3CCN(C)CC3)CC2)=CC=C1NC1=NC=C(Cl)C(NC2=CC=CC=C2S(=O)(=O)C(C)C)=N1

>  <Kd (nM)>


>  <Assay (Kd)>


>  <Ki (nM)>
10

>  <Assay (Ki)>
Ki of PRKAA1

>  <IC50 (nM)>


>  <Assay (IC50)>


>  <EC50 (nM)>


>  <Assay (EC50)>


>  <Article DOI>


>  <Molecular Weight>
614.216

>  <Exact Mass>
613.2601868

>  <XLogP3>
5.67

>  <Heavy Atom Count>
42

>  <Ring Count>
5

>  <Hydrogen Bond Acceptor Count>
10

>  <Hydrogen Bond Donor Count>
2

>  <Rotatable Bond Count>
9

>  <Topological Polar Surface Area>
102.93

>  <Molecular Formula>
C30H40ClN7O3S

>  <InChI>
InChI=1S/C30H40ClN7O3S/c1-21(2)42(39,40)28-8-6-5-7-26(28)33-29-24(31)20-32-30(35-29)34-25-10-9-23(19-27(25)41-4)37-13-11-22(12-14-37)38-17-15-36(3)16-18-38/h5-10,19-22H,11-18H2,1-4H3,(H2,32,33,34,35)

>  <InChI Key>
QQWUGDVOUVUTOY-UHFFFAOYSA-N

>  <BindingDB>
50242742

>  <PubChem>
16038120

>  <ChEMBL>
CHEMBL509032

$$$$
67
Actelion Java MolfileCreator 2.0

  0  0  0  0  0  0              0 V3000
M  V30 BEGIN CTAB
M  V30 COUNTS 42 46 0 0 0
M  V30 BEGIN ATOM
M  V30 1 Cl 0.0 3.75 0.0 0
M  V30 2 C 1.299 4.5 0.0 0
M  V30 3 C 2.598 3.75 0.0 0
M  V30 4 C 1.299 6.0 0.0 0
M  V30 5 N 3.8971 4.5 0.0 0
M  V30 6 N 2.598 2.25 0.0 0
M  V30 7 N 2.598 6.75 0.0 0
M  V30 8 C 3.8971 6.0 0.0 0
M  V30 9 C 3.8971 1.5 0.0 0
M  V30 10 N 5.1961 6.75 0.0 0
M  V30 11 C 3.8971 0.0 0.0 0
M  V30 12 C 5.1961 2.25 0.0 0
M  V30 13 C 5.1961 8.25 0.0 0
M  V30 14 S 2.598 -0.75 0.0 0
M  V30 15 C 5.1961 -0.75 0.0 0
M  V30 16 C 6.4951 1.5 0.0 0
M  V30 17 C 6.4951 9.0 0.0 0
M  V30 18 C 3.8971 9.0 0.0 0
M  V30 19 O 1.848 -2.049 0.0 0
M  V30 20 O 3.348 -2.049 0.0 0
M  V30 21 C 1.299 0.0 0.0 0
M  V30 22 C 6.4951 0.0 0.0 0
M  V30 23 O 7.7942 8.25 0.0 0
M  V30 24 C 6.4951 10.5 0.0 0
M  V30 25 C 3.8971 10.5 0.0 0
M  V30 26 C 1.299 1.5 0.0 0
M  V30 27 C 0.0 -0.75 0.0 0
M  V30 28 C 9.0932 9.0 0.0 0
M  V30 29 C 5.1961 11.25 0.0 0
M  V30 30 N 5.1961 12.75 0.0 0
M  V30 31 C 6.4951 13.5 0.0 0
M  V30 32 C 3.8971 13.5 0.0 0
M  V30 33 C 6.4951 15.0 0.0 0
M  V30 34 C 3.8971 15.0 0.0 0
M  V30 35 C 5.1961 15.75 0.0 0
M  V30 36 N 5.1961 17.25 0.0 0
M  V30 37 C 6.4951 18.0 0.0 0
M  V30 38 C 3.8971 18.0 0.0 0
M  V30 39 C 6.4951 19.5 0.0 0
M  V30 40 C 3.8971 19.5 0.0 0
M  V30 41 N 5.1961 20.25 0.0 0
M  V30 42 C 5.1961 21.75 0.0 0
M  V30 END ATOM
M  V30 BEGIN BOND
M  V30 1 1 1 2
M  V30 2 2 2 3
M  V30 3 1 2 4
M  V30 4 1 3 5
M  V30 5 1 3 6
M  V30 6 2 4 7
M  V30 7 2 5 8
M  V30 8 1 6 9
M  V30 9 1 8 10
M  V30 10 2 9 11
M  V30 11 1 9 12
M  V30 12 1 10 13
M  V30 13 1 11 14
M  V30 14 1 11 15
M  V30 15 2 12 16
M  V30 16 2 13 17
M  V30 17 1 13 18
M  V30 18 2 14 19
M  V30 19 2 14 20
M  V30 20 1 14 21
M  V30 21 2 15 22
M  V30 22 1 17 23
M  V30 23 1 17 24
M  V30 24 2 18 25
M  V30 25 1 21 26
M  V30 26 1 21 27
M  V30 27 1 23 28
M  V30 28 2 24 29
M  V30 29 1 29 30
M  V30 30 1 30 31
M  V30 31 1 30 32
M  V30 32 1 31 33
M  V30 33 1 32 34
M  V30 34 1 33 35
M  V30 35 1 35 36
M  V30 36 1 36 37
M  V30 37 1 36 38
M  V30 38 1 37 39
M  V30 39 1 38 40
M  V30 40 1 39 41
M  V30 41 1 41 42
M  V30 42 1 7 8
M  V30 43 1 16 22
M  V30 44 1 25 29
M  V30 45 1 34 35
M  V30 46 1 40 41
M  V30 END BOND
M  V30 END CTAB
M  END
>  <Molecule Name>
Compound 210

>  <Molecule Name 2>
Compound 210

>  <Compound ID>
67

>  <Name>
TAE684

>  <Uniprot>
P54646

>  <Target>
PRKAA2

>  <Smiles>
COC1=CC(N2CCC(N3CCN(C)CC3)CC2)=CC=C1NC1=NC=C(Cl)C(NC2=CC=CC=C2S(=O)(=O)C(C)C)=N1

>  <Kd (nM)>
49

>  <Assay (Kd)>
Kd was assessed by competition binding assays

>  <Ki (nM)>


>  <Assay (Ki)>


>  <IC50 (nM)>


>  <Assay (IC50)>


>  <EC50 (nM)>


>  <Assay (EC50)>


>  <Article DOI>
10.1038/nbt.1990

>  <Molecular Weight>
614.216

>  <Exact Mass>
613.2601868

>  <XLogP3>
5.67

>  <Heavy Atom Count>
42

>  <Ring Count>
5

>  <Hydrogen Bond Acceptor Count>
10

>  <Hydrogen Bond Donor Count>
2

>  <Rotatable Bond Count>
9

>  <Topological Polar Surface Area>
102.93

>  <Molecular Formula>
C30H40ClN7O3S

>  <InChI>
InChI=1S/C30H40ClN7O3S/c1-21(2)42(39,40)28-8-6-5-7-26(28)33-29-24(31)20-32-30(35-29)34-25-10-9-23(19-27(25)41-4)37-13-11-22(12-14-37)38-17-15-36(3)16-18-38/h5-10,19-22H,11-18H2,1-4H3,(H2,32,33,34,35)

>  <InChI Key>
QQWUGDVOUVUTOY-UHFFFAOYSA-N

>  <BindingDB>
50242742

>  <PubChem>
16038120

>  <ChEMBL>
CHEMBL509032

$$$$
67
Actelion Java MolfileCreator 2.0

  0  0  0  0  0  0              0 V3000
M  V30 BEGIN CTAB
M  V30 COUNTS 42 46 0 0 0
M  V30 BEGIN ATOM
M  V30 1 Cl 0.0 3.75 0.0 0
M  V30 2 C 1.299 4.5 0.0 0
M  V30 3 C 2.598 3.75 0.0 0
M  V30 4 C 1.299 6.0 0.0 0
M  V30 5 N 3.8971 4.5 0.0 0
M  V30 6 N 2.598 2.25 0.0 0
M  V30 7 N 2.598 6.75 0.0 0
M  V30 8 C 3.8971 6.0 0.0 0
M  V30 9 C 3.8971 1.5 0.0 0
M  V30 10 N 5.1961 6.75 0.0 0
M  V30 11 C 3.8971 0.0 0.0 0
M  V30 12 C 5.1961 2.25 0.0 0
M  V30 13 C 5.1961 8.25 0.0 0
M  V30 14 S 2.598 -0.75 0.0 0
M  V30 15 C 5.1961 -0.75 0.0 0
M  V30 16 C 6.4951 1.5 0.0 0
M  V30 17 C 6.4951 9.0 0.0 0
M  V30 18 C 3.8971 9.0 0.0 0
M  V30 19 O 1.848 -2.049 0.0 0
M  V30 20 O 3.348 -2.049 0.0 0
M  V30 21 C 1.299 0.0 0.0 0
M  V30 22 C 6.4951 0.0 0.0 0
M  V30 23 O 7.7942 8.25 0.0 0
M  V30 24 C 6.4951 10.5 0.0 0
M  V30 25 C 3.8971 10.5 0.0 0
M  V30 26 C 1.299 1.5 0.0 0
M  V30 27 C 0.0 -0.75 0.0 0
M  V30 28 C 9.0932 9.0 0.0 0
M  V30 29 C 5.1961 11.25 0.0 0
M  V30 30 N 5.1961 12.75 0.0 0
M  V30 31 C 6.4951 13.5 0.0 0
M  V30 32 C 3.8971 13.5 0.0 0
M  V30 33 C 6.4951 15.0 0.0 0
M  V30 34 C 3.8971 15.0 0.0 0
M  V30 35 C 5.1961 15.75 0.0 0
M  V30 36 N 5.1961 17.25 0.0 0
M  V30 37 C 6.4951 18.0 0.0 0
M  V30 38 C 3.8971 18.0 0.0 0
M  V30 39 C 6.4951 19.5 0.0 0
M  V30 40 C 3.8971 19.5 0.0 0
M  V30 41 N 5.1961 20.25 0.0 0
M  V30 42 C 5.1961 21.75 0.0 0
M  V30 END ATOM
M  V30 BEGIN BOND
M  V30 1 1 1 2
M  V30 2 2 2 3
M  V30 3 1 2 4
M  V30 4 1 3 5
M  V30 5 1 3 6
M  V30 6 2 4 7
M  V30 7 2 5 8
M  V30 8 1 6 9
M  V30 9 1 8 10
M  V30 10 2 9 11
M  V30 11 1 9 12
M  V30 12 1 10 13
M  V30 13 1 11 14
M  V30 14 1 11 15
M  V30 15 2 12 16
M  V30 16 2 13 17
M  V30 17 1 13 18
M  V30 18 2 14 19
M  V30 19 2 14 20
M  V30 20 1 14 21
M  V30 21 2 15 22
M  V30 22 1 17 23
M  V30 23 1 17 24
M  V30 24 2 18 25
M  V30 25 1 21 26
M  V30 26 1 21 27
M  V30 27 1 23 28
M  V30 28 2 24 29
M  V30 29 1 29 30
M  V30 30 1 30 31
M  V30 31 1 30 32
M  V30 32 1 31 33
M  V30 33 1 32 34
M  V30 34 1 33 35
M  V30 35 1 35 36
M  V30 36 1 36 37
M  V30 37 1 36 38
M  V30 38 1 37 39
M  V30 39 1 38 40
M  V30 40 1 39 41
M  V30 41 1 41 42
M  V30 42 1 7 8
M  V30 43 1 16 22
M  V30 44 1 25 29
M  V30 45 1 34 35
M  V30 46 1 40 41
M  V30 END BOND
M  V30 END CTAB
M  END
>  <Molecule Name>
Compound 211

>  <Molecule Name 2>
Compound 211

>  <Compound ID>
67

>  <Name>
TAE684

>  <Uniprot>
Q14289

>  <Target>
PTK2B

>  <Smiles>
COC1=CC(N2CCC(N3CCN(C)CC3)CC2)=CC=C1NC1=NC=C(Cl)C(NC2=CC=CC=C2S(=O)(=O)C(C)C)=N1

>  <Kd (nM)>
1.1

>  <Assay (Kd)>
Kd was assessed by competition binding assays

>  <Ki (nM)>


>  <Assay (Ki)>


>  <IC50 (nM)>


>  <Assay (IC50)>


>  <EC50 (nM)>


>  <Assay (EC50)>


>  <Article DOI>
10.1038/nbt.1990

>  <Molecular Weight>
614.216

>  <Exact Mass>
613.2601868

>  <XLogP3>
5.67

>  <Heavy Atom Count>
42

>  <Ring Count>
5

>  <Hydrogen Bond Acceptor Count>
10

>  <Hydrogen Bond Donor Count>
2

>  <Rotatable Bond Count>
9

>  <Topological Polar Surface Area>
102.93

>  <Molecular Formula>
C30H40ClN7O3S

>  <InChI>
InChI=1S/C30H40ClN7O3S/c1-21(2)42(39,40)28-8-6-5-7-26(28)33-29-24(31)20-32-30(35-29)34-25-10-9-23(19-27(25)41-4)37-13-11-22(12-14-37)38-17-15-36(3)16-18-38/h5-10,19-22H,11-18H2,1-4H3,(H2,32,33,34,35)

>  <InChI Key>
QQWUGDVOUVUTOY-UHFFFAOYSA-N

>  <BindingDB>
50242742

>  <PubChem>
16038120

>  <ChEMBL>
CHEMBL509032

$$$$
67
Actelion Java MolfileCreator 2.0

  0  0  0  0  0  0              0 V3000
M  V30 BEGIN CTAB
M  V30 COUNTS 42 46 0 0 0
M  V30 BEGIN ATOM
M  V30 1 Cl 0.0 3.75 0.0 0
M  V30 2 C 1.299 4.5 0.0 0
M  V30 3 C 2.598 3.75 0.0 0
M  V30 4 C 1.299 6.0 0.0 0
M  V30 5 N 3.8971 4.5 0.0 0
M  V30 6 N 2.598 2.25 0.0 0
M  V30 7 N 2.598 6.75 0.0 0
M  V30 8 C 3.8971 6.0 0.0 0
M  V30 9 C 3.8971 1.5 0.0 0
M  V30 10 N 5.1961 6.75 0.0 0
M  V30 11 C 3.8971 0.0 0.0 0
M  V30 12 C 5.1961 2.25 0.0 0
M  V30 13 C 5.1961 8.25 0.0 0
M  V30 14 S 2.598 -0.75 0.0 0
M  V30 15 C 5.1961 -0.75 0.0 0
M  V30 16 C 6.4951 1.5 0.0 0
M  V30 17 C 6.4951 9.0 0.0 0
M  V30 18 C 3.8971 9.0 0.0 0
M  V30 19 O 1.848 -2.049 0.0 0
M  V30 20 O 3.348 -2.049 0.0 0
M  V30 21 C 1.299 0.0 0.0 0
M  V30 22 C 6.4951 0.0 0.0 0
M  V30 23 O 7.7942 8.25 0.0 0
M  V30 24 C 6.4951 10.5 0.0 0
M  V30 25 C 3.8971 10.5 0.0 0
M  V30 26 C 1.299 1.5 0.0 0
M  V30 27 C 0.0 -0.75 0.0 0
M  V30 28 C 9.0932 9.0 0.0 0
M  V30 29 C 5.1961 11.25 0.0 0
M  V30 30 N 5.1961 12.75 0.0 0
M  V30 31 C 6.4951 13.5 0.0 0
M  V30 32 C 3.8971 13.5 0.0 0
M  V30 33 C 6.4951 15.0 0.0 0
M  V30 34 C 3.8971 15.0 0.0 0
M  V30 35 C 5.1961 15.75 0.0 0
M  V30 36 N 5.1961 17.25 0.0 0
M  V30 37 C 6.4951 18.0 0.0 0
M  V30 38 C 3.8971 18.0 0.0 0
M  V30 39 C 6.4951 19.5 0.0 0
M  V30 40 C 3.8971 19.5 0.0 0
M  V30 41 N 5.1961 20.25 0.0 0
M  V30 42 C 5.1961 21.75 0.0 0
M  V30 END ATOM
M  V30 BEGIN BOND
M  V30 1 1 1 2
M  V30 2 2 2 3
M  V30 3 1 2 4
M  V30 4 1 3 5
M  V30 5 1 3 6
M  V30 6 2 4 7
M  V30 7 2 5 8
M  V30 8 1 6 9
M  V30 9 1 8 10
M  V30 10 2 9 11
M  V30 11 1 9 12
M  V30 12 1 10 13
M  V30 13 1 11 14
M  V30 14 1 11 15
M  V30 15 2 12 16
M  V30 16 2 13 17
M  V30 17 1 13 18
M  V30 18 2 14 19
M  V30 19 2 14 20
M  V30 20 1 14 21
M  V30 21 2 15 22
M  V30 22 1 17 23
M  V30 23 1 17 24
M  V30 24 2 18 25
M  V30 25 1 21 26
M  V30 26 1 21 27
M  V30 27 1 23 28
M  V30 28 2 24 29
M  V30 29 1 29 30
M  V30 30 1 30 31
M  V30 31 1 30 32
M  V30 32 1 31 33
M  V30 33 1 32 34
M  V30 34 1 33 35
M  V30 35 1 35 36
M  V30 36 1 36 37
M  V30 37 1 36 38
M  V30 38 1 37 39
M  V30 39 1 38 40
M  V30 40 1 39 41
M  V30 41 1 41 42
M  V30 42 1 7 8
M  V30 43 1 16 22
M  V30 44 1 25 29
M  V30 45 1 34 35
M  V30 46 1 40 41
M  V30 END BOND
M  V30 END CTAB
M  END
>  <Molecule Name>
Compound 212

>  <Molecule Name 2>
Compound 212

>  <Compound ID>
67

>  <Name>
TAE684

>  <Uniprot>
Q13882

>  <Target>
PTK6

>  <Smiles>
COC1=CC(N2CCC(N3CCN(C)CC3)CC2)=CC=C1NC1=NC=C(Cl)C(NC2=CC=CC=C2S(=O)(=O)C(C)C)=N1

>  <Kd (nM)>


>  <Assay (Kd)>


>  <Ki (nM)>
12.59

>  <Assay (Ki)>
Ki of TNK1

>  <IC50 (nM)>


>  <Assay (IC50)>


>  <EC50 (nM)>


>  <Assay (EC50)>


>  <Article DOI>


>  <Molecular Weight>
614.216

>  <Exact Mass>
613.2601868

>  <XLogP3>
5.67

>  <Heavy Atom Count>
42

>  <Ring Count>
5

>  <Hydrogen Bond Acceptor Count>
10

>  <Hydrogen Bond Donor Count>
2

>  <Rotatable Bond Count>
9

>  <Topological Polar Surface Area>
102.93

>  <Molecular Formula>
C30H40ClN7O3S

>  <InChI>
InChI=1S/C30H40ClN7O3S/c1-21(2)42(39,40)28-8-6-5-7-26(28)33-29-24(31)20-32-30(35-29)34-25-10-9-23(19-27(25)41-4)37-13-11-22(12-14-37)38-17-15-36(3)16-18-38/h5-10,19-22H,11-18H2,1-4H3,(H2,32,33,34,35)

>  <InChI Key>
QQWUGDVOUVUTOY-UHFFFAOYSA-N

>  <BindingDB>
50242742

>  <PubChem>
16038120

>  <ChEMBL>
CHEMBL509032

$$$$
67
Actelion Java MolfileCreator 2.0

  0  0  0  0  0  0              0 V3000
M  V30 BEGIN CTAB
M  V30 COUNTS 42 46 0 0 0
M  V30 BEGIN ATOM
M  V30 1 Cl 0.0 3.75 0.0 0
M  V30 2 C 1.299 4.5 0.0 0
M  V30 3 C 2.598 3.75 0.0 0
M  V30 4 C 1.299 6.0 0.0 0
M  V30 5 N 3.8971 4.5 0.0 0
M  V30 6 N 2.598 2.25 0.0 0
M  V30 7 N 2.598 6.75 0.0 0
M  V30 8 C 3.8971 6.0 0.0 0
M  V30 9 C 3.8971 1.5 0.0 0
M  V30 10 N 5.1961 6.75 0.0 0
M  V30 11 C 3.8971 0.0 0.0 0
M  V30 12 C 5.1961 2.25 0.0 0
M  V30 13 C 5.1961 8.25 0.0 0
M  V30 14 S 2.598 -0.75 0.0 0
M  V30 15 C 5.1961 -0.75 0.0 0
M  V30 16 C 6.4951 1.5 0.0 0
M  V30 17 C 6.4951 9.0 0.0 0
M  V30 18 C 3.8971 9.0 0.0 0
M  V30 19 O 1.848 -2.049 0.0 0
M  V30 20 O 3.348 -2.049 0.0 0
M  V30 21 C 1.299 0.0 0.0 0
M  V30 22 C 6.4951 0.0 0.0 0
M  V30 23 O 7.7942 8.25 0.0 0
M  V30 24 C 6.4951 10.5 0.0 0
M  V30 25 C 3.8971 10.5 0.0 0
M  V30 26 C 1.299 1.5 0.0 0
M  V30 27 C 0.0 -0.75 0.0 0
M  V30 28 C 9.0932 9.0 0.0 0
M  V30 29 C 5.1961 11.25 0.0 0
M  V30 30 N 5.1961 12.75 0.0 0
M  V30 31 C 6.4951 13.5 0.0 0
M  V30 32 C 3.8971 13.5 0.0 0
M  V30 33 C 6.4951 15.0 0.0 0
M  V30 34 C 3.8971 15.0 0.0 0
M  V30 35 C 5.1961 15.75 0.0 0
M  V30 36 N 5.1961 17.25 0.0 0
M  V30 37 C 6.4951 18.0 0.0 0
M  V30 38 C 3.8971 18.0 0.0 0
M  V30 39 C 6.4951 19.5 0.0 0
M  V30 40 C 3.8971 19.5 0.0 0
M  V30 41 N 5.1961 20.25 0.0 0
M  V30 42 C 5.1961 21.75 0.0 0
M  V30 END ATOM
M  V30 BEGIN BOND
M  V30 1 1 1 2
M  V30 2 2 2 3
M  V30 3 1 2 4
M  V30 4 1 3 5
M  V30 5 1 3 6
M  V30 6 2 4 7
M  V30 7 2 5 8
M  V30 8 1 6 9
M  V30 9 1 8 10
M  V30 10 2 9 11
M  V30 11 1 9 12
M  V30 12 1 10 13
M  V30 13 1 11 14
M  V30 14 1 11 15
M  V30 15 2 12 16
M  V30 16 2 13 17
M  V30 17 1 13 18
M  V30 18 2 14 19
M  V30 19 2 14 20
M  V30 20 1 14 21
M  V30 21 2 15 22
M  V30 22 1 17 23
M  V30 23 1 17 24
M  V30 24 2 18 25
M  V30 25 1 21 26
M  V30 26 1 21 27
M  V30 27 1 23 28
M  V30 28 2 24 29
M  V30 29 1 29 30
M  V30 30 1 30 31
M  V30 31 1 30 32
M  V30 32 1 31 33
M  V30 33 1 32 34
M  V30 34 1 33 35
M  V30 35 1 35 36
M  V30 36 1 36 37
M  V30 37 1 36 38
M  V30 38 1 37 39
M  V30 39 1 38 40
M  V30 40 1 39 41
M  V30 41 1 41 42
M  V30 42 1 7 8
M  V30 43 1 16 22
M  V30 44 1 25 29
M  V30 45 1 34 35
M  V30 46 1 40 41
M  V30 END BOND
M  V30 END CTAB
M  END
>  <Molecule Name>
Compound 213

>  <Molecule Name 2>
Compound 213

>  <Compound ID>
67

>  <Name>
TAE684

>  <Uniprot>
Q9BVS4

>  <Target>
RIOK2

>  <Smiles>
COC1=CC(N2CCC(N3CCN(C)CC3)CC2)=CC=C1NC1=NC=C(Cl)C(NC2=CC=CC=C2S(=O)(=O)C(C)C)=N1

>  <Kd (nM)>
>10000

>  <Assay (Kd)>
Kd was assessed by competition binding assays

>  <Ki (nM)>


>  <Assay (Ki)>


>  <IC50 (nM)>


>  <Assay (IC50)>


>  <EC50 (nM)>


>  <Assay (EC50)>


>  <Article DOI>
10.1038/nbt.1990

>  <Molecular Weight>
614.216

>  <Exact Mass>
613.2601868

>  <XLogP3>
5.67

>  <Heavy Atom Count>
42

>  <Ring Count>
5

>  <Hydrogen Bond Acceptor Count>
10

>  <Hydrogen Bond Donor Count>
2

>  <Rotatable Bond Count>
9

>  <Topological Polar Surface Area>
102.93

>  <Molecular Formula>
C30H40ClN7O3S

>  <InChI>
InChI=1S/C30H40ClN7O3S/c1-21(2)42(39,40)28-8-6-5-7-26(28)33-29-24(31)20-32-30(35-29)34-25-10-9-23(19-27(25)41-4)37-13-11-22(12-14-37)38-17-15-36(3)16-18-38/h5-10,19-22H,11-18H2,1-4H3,(H2,32,33,34,35)

>  <InChI Key>
QQWUGDVOUVUTOY-UHFFFAOYSA-N

>  <BindingDB>
50242742

>  <PubChem>
16038120

>  <ChEMBL>
CHEMBL509032

$$$$
67
Actelion Java MolfileCreator 2.0

  0  0  0  0  0  0              0 V3000
M  V30 BEGIN CTAB
M  V30 COUNTS 42 46 0 0 0
M  V30 BEGIN ATOM
M  V30 1 Cl 0.0 3.75 0.0 0
M  V30 2 C 1.299 4.5 0.0 0
M  V30 3 C 2.598 3.75 0.0 0
M  V30 4 C 1.299 6.0 0.0 0
M  V30 5 N 3.8971 4.5 0.0 0
M  V30 6 N 2.598 2.25 0.0 0
M  V30 7 N 2.598 6.75 0.0 0
M  V30 8 C 3.8971 6.0 0.0 0
M  V30 9 C 3.8971 1.5 0.0 0
M  V30 10 N 5.1961 6.75 0.0 0
M  V30 11 C 3.8971 0.0 0.0 0
M  V30 12 C 5.1961 2.25 0.0 0
M  V30 13 C 5.1961 8.25 0.0 0
M  V30 14 S 2.598 -0.75 0.0 0
M  V30 15 C 5.1961 -0.75 0.0 0
M  V30 16 C 6.4951 1.5 0.0 0
M  V30 17 C 6.4951 9.0 0.0 0
M  V30 18 C 3.8971 9.0 0.0 0
M  V30 19 O 1.848 -2.049 0.0 0
M  V30 20 O 3.348 -2.049 0.0 0
M  V30 21 C 1.299 0.0 0.0 0
M  V30 22 C 6.4951 0.0 0.0 0
M  V30 23 O 7.7942 8.25 0.0 0
M  V30 24 C 6.4951 10.5 0.0 0
M  V30 25 C 3.8971 10.5 0.0 0
M  V30 26 C 1.299 1.5 0.0 0
M  V30 27 C 0.0 -0.75 0.0 0
M  V30 28 C 9.0932 9.0 0.0 0
M  V30 29 C 5.1961 11.25 0.0 0
M  V30 30 N 5.1961 12.75 0.0 0
M  V30 31 C 6.4951 13.5 0.0 0
M  V30 32 C 3.8971 13.5 0.0 0
M  V30 33 C 6.4951 15.0 0.0 0
M  V30 34 C 3.8971 15.0 0.0 0
M  V30 35 C 5.1961 15.75 0.0 0
M  V30 36 N 5.1961 17.25 0.0 0
M  V30 37 C 6.4951 18.0 0.0 0
M  V30 38 C 3.8971 18.0 0.0 0
M  V30 39 C 6.4951 19.5 0.0 0
M  V30 40 C 3.8971 19.5 0.0 0
M  V30 41 N 5.1961 20.25 0.0 0
M  V30 42 C 5.1961 21.75 0.0 0
M  V30 END ATOM
M  V30 BEGIN BOND
M  V30 1 1 1 2
M  V30 2 2 2 3
M  V30 3 1 2 4
M  V30 4 1 3 5
M  V30 5 1 3 6
M  V30 6 2 4 7
M  V30 7 2 5 8
M  V30 8 1 6 9
M  V30 9 1 8 10
M  V30 10 2 9 11
M  V30 11 1 9 12
M  V30 12 1 10 13
M  V30 13 1 11 14
M  V30 14 1 11 15
M  V30 15 2 12 16
M  V30 16 2 13 17
M  V30 17 1 13 18
M  V30 18 2 14 19
M  V30 19 2 14 20
M  V30 20 1 14 21
M  V30 21 2 15 22
M  V30 22 1 17 23
M  V30 23 1 17 24
M  V30 24 2 18 25
M  V30 25 1 21 26
M  V30 26 1 21 27
M  V30 27 1 23 28
M  V30 28 2 24 29
M  V30 29 1 29 30
M  V30 30 1 30 31
M  V30 31 1 30 32
M  V30 32 1 31 33
M  V30 33 1 32 34
M  V30 34 1 33 35
M  V30 35 1 35 36
M  V30 36 1 36 37
M  V30 37 1 36 38
M  V30 38 1 37 39
M  V30 39 1 38 40
M  V30 40 1 39 41
M  V30 41 1 41 42
M  V30 42 1 7 8
M  V30 43 1 16 22
M  V30 44 1 25 29
M  V30 45 1 34 35
M  V30 46 1 40 41
M  V30 END BOND
M  V30 END CTAB
M  END
>  <Molecule Name>
Compound 214

>  <Molecule Name 2>
Compound 214

>  <Compound ID>
67

>  <Name>
TAE684

>  <Uniprot>
Q15418

>  <Target>
RPS6KA1

>  <Smiles>
COC1=CC(N2CCC(N3CCN(C)CC3)CC2)=CC=C1NC1=NC=C(Cl)C(NC2=CC=CC=C2S(=O)(=O)C(C)C)=N1

>  <Kd (nM)>
160/650

>  <Assay (Kd)>
Kd of RPS6KA1(Kin.Dom.1-N-terminal)/(Kin.Dom.2-C-terminal) was assessed by competition binding assays

>  <Ki (nM)>


>  <Assay (Ki)>


>  <IC50 (nM)>


>  <Assay (IC50)>


>  <EC50 (nM)>


>  <Assay (EC50)>


>  <Article DOI>
10.1038/nbt.1990

>  <Molecular Weight>
614.216

>  <Exact Mass>
613.2601868

>  <XLogP3>
5.67

>  <Heavy Atom Count>
42

>  <Ring Count>
5

>  <Hydrogen Bond Acceptor Count>
10

>  <Hydrogen Bond Donor Count>
2

>  <Rotatable Bond Count>
9

>  <Topological Polar Surface Area>
102.93

>  <Molecular Formula>
C30H40ClN7O3S

>  <InChI>
InChI=1S/C30H40ClN7O3S/c1-21(2)42(39,40)28-8-6-5-7-26(28)33-29-24(31)20-32-30(35-29)34-25-10-9-23(19-27(25)41-4)37-13-11-22(12-14-37)38-17-15-36(3)16-18-38/h5-10,19-22H,11-18H2,1-4H3,(H2,32,33,34,35)

>  <InChI Key>
QQWUGDVOUVUTOY-UHFFFAOYSA-N

>  <BindingDB>
50242742

>  <PubChem>
16038120

>  <ChEMBL>
CHEMBL509032

$$$$
67
Actelion Java MolfileCreator 2.0

  0  0  0  0  0  0              0 V3000
M  V30 BEGIN CTAB
M  V30 COUNTS 42 46 0 0 0
M  V30 BEGIN ATOM
M  V30 1 Cl 0.0 3.75 0.0 0
M  V30 2 C 1.299 4.5 0.0 0
M  V30 3 C 2.598 3.75 0.0 0
M  V30 4 C 1.299 6.0 0.0 0
M  V30 5 N 3.8971 4.5 0.0 0
M  V30 6 N 2.598 2.25 0.0 0
M  V30 7 N 2.598 6.75 0.0 0
M  V30 8 C 3.8971 6.0 0.0 0
M  V30 9 C 3.8971 1.5 0.0 0
M  V30 10 N 5.1961 6.75 0.0 0
M  V30 11 C 3.8971 0.0 0.0 0
M  V30 12 C 5.1961 2.25 0.0 0
M  V30 13 C 5.1961 8.25 0.0 0
M  V30 14 S 2.598 -0.75 0.0 0
M  V30 15 C 5.1961 -0.75 0.0 0
M  V30 16 C 6.4951 1.5 0.0 0
M  V30 17 C 6.4951 9.0 0.0 0
M  V30 18 C 3.8971 9.0 0.0 0
M  V30 19 O 1.848 -2.049 0.0 0
M  V30 20 O 3.348 -2.049 0.0 0
M  V30 21 C 1.299 0.0 0.0 0
M  V30 22 C 6.4951 0.0 0.0 0
M  V30 23 O 7.7942 8.25 0.0 0
M  V30 24 C 6.4951 10.5 0.0 0
M  V30 25 C 3.8971 10.5 0.0 0
M  V30 26 C 1.299 1.5 0.0 0
M  V30 27 C 0.0 -0.75 0.0 0
M  V30 28 C 9.0932 9.0 0.0 0
M  V30 29 C 5.1961 11.25 0.0 0
M  V30 30 N 5.1961 12.75 0.0 0
M  V30 31 C 6.4951 13.5 0.0 0
M  V30 32 C 3.8971 13.5 0.0 0
M  V30 33 C 6.4951 15.0 0.0 0
M  V30 34 C 3.8971 15.0 0.0 0
M  V30 35 C 5.1961 15.75 0.0 0
M  V30 36 N 5.1961 17.25 0.0 0
M  V30 37 C 6.4951 18.0 0.0 0
M  V30 38 C 3.8971 18.0 0.0 0
M  V30 39 C 6.4951 19.5 0.0 0
M  V30 40 C 3.8971 19.5 0.0 0
M  V30 41 N 5.1961 20.25 0.0 0
M  V30 42 C 5.1961 21.75 0.0 0
M  V30 END ATOM
M  V30 BEGIN BOND
M  V30 1 1 1 2
M  V30 2 2 2 3
M  V30 3 1 2 4
M  V30 4 1 3 5
M  V30 5 1 3 6
M  V30 6 2 4 7
M  V30 7 2 5 8
M  V30 8 1 6 9
M  V30 9 1 8 10
M  V30 10 2 9 11
M  V30 11 1 9 12
M  V30 12 1 10 13
M  V30 13 1 11 14
M  V30 14 1 11 15
M  V30 15 2 12 16
M  V30 16 2 13 17
M  V30 17 1 13 18
M  V30 18 2 14 19
M  V30 19 2 14 20
M  V30 20 1 14 21
M  V30 21 2 15 22
M  V30 22 1 17 23
M  V30 23 1 17 24
M  V30 24 2 18 25
M  V30 25 1 21 26
M  V30 26 1 21 27
M  V30 27 1 23 28
M  V30 28 2 24 29
M  V30 29 1 29 30
M  V30 30 1 30 31
M  V30 31 1 30 32
M  V30 32 1 31 33
M  V30 33 1 32 34
M  V30 34 1 33 35
M  V30 35 1 35 36
M  V30 36 1 36 37
M  V30 37 1 36 38
M  V30 38 1 37 39
M  V30 39 1 38 40
M  V30 40 1 39 41
M  V30 41 1 41 42
M  V30 42 1 7 8
M  V30 43 1 16 22
M  V30 44 1 25 29
M  V30 45 1 34 35
M  V30 46 1 40 41
M  V30 END BOND
M  V30 END CTAB
M  END
>  <Molecule Name>
Compound 215

>  <Molecule Name 2>
Compound 215

>  <Compound ID>
67

>  <Name>
TAE684

>  <Uniprot>
O75676

>  <Target>
RPS6KA4

>  <Smiles>
COC1=CC(N2CCC(N3CCN(C)CC3)CC2)=CC=C1NC1=NC=C(Cl)C(NC2=CC=CC=C2S(=O)(=O)C(C)C)=N1

>  <Kd (nM)>
2500

>  <Assay (Kd)>
Kd was assessed by competition binding assays

>  <Ki (nM)>


>  <Assay (Ki)>


>  <IC50 (nM)>


>  <Assay (IC50)>


>  <EC50 (nM)>


>  <Assay (EC50)>


>  <Article DOI>
10.1038/nbt.1990

>  <Molecular Weight>
614.216

>  <Exact Mass>
613.2601868

>  <XLogP3>
5.67

>  <Heavy Atom Count>
42

>  <Ring Count>
5

>  <Hydrogen Bond Acceptor Count>
10

>  <Hydrogen Bond Donor Count>
2

>  <Rotatable Bond Count>
9

>  <Topological Polar Surface Area>
102.93

>  <Molecular Formula>
C30H40ClN7O3S

>  <InChI>
InChI=1S/C30H40ClN7O3S/c1-21(2)42(39,40)28-8-6-5-7-26(28)33-29-24(31)20-32-30(35-29)34-25-10-9-23(19-27(25)41-4)37-13-11-22(12-14-37)38-17-15-36(3)16-18-38/h5-10,19-22H,11-18H2,1-4H3,(H2,32,33,34,35)

>  <InChI Key>
QQWUGDVOUVUTOY-UHFFFAOYSA-N

>  <BindingDB>
50242742

>  <PubChem>
16038120

>  <ChEMBL>
CHEMBL509032

$$$$
67
Actelion Java MolfileCreator 2.0

  0  0  0  0  0  0              0 V3000
M  V30 BEGIN CTAB
M  V30 COUNTS 42 46 0 0 0
M  V30 BEGIN ATOM
M  V30 1 Cl 0.0 3.75 0.0 0
M  V30 2 C 1.299 4.5 0.0 0
M  V30 3 C 2.598 3.75 0.0 0
M  V30 4 C 1.299 6.0 0.0 0
M  V30 5 N 3.8971 4.5 0.0 0
M  V30 6 N 2.598 2.25 0.0 0
M  V30 7 N 2.598 6.75 0.0 0
M  V30 8 C 3.8971 6.0 0.0 0
M  V30 9 C 3.8971 1.5 0.0 0
M  V30 10 N 5.1961 6.75 0.0 0
M  V30 11 C 3.8971 0.0 0.0 0
M  V30 12 C 5.1961 2.25 0.0 0
M  V30 13 C 5.1961 8.25 0.0 0
M  V30 14 S 2.598 -0.75 0.0 0
M  V30 15 C 5.1961 -0.75 0.0 0
M  V30 16 C 6.4951 1.5 0.0 0
M  V30 17 C 6.4951 9.0 0.0 0
M  V30 18 C 3.8971 9.0 0.0 0
M  V30 19 O 1.848 -2.049 0.0 0
M  V30 20 O 3.348 -2.049 0.0 0
M  V30 21 C 1.299 0.0 0.0 0
M  V30 22 C 6.4951 0.0 0.0 0
M  V30 23 O 7.7942 8.25 0.0 0
M  V30 24 C 6.4951 10.5 0.0 0
M  V30 25 C 3.8971 10.5 0.0 0
M  V30 26 C 1.299 1.5 0.0 0
M  V30 27 C 0.0 -0.75 0.0 0
M  V30 28 C 9.0932 9.0 0.0 0
M  V30 29 C 5.1961 11.25 0.0 0
M  V30 30 N 5.1961 12.75 0.0 0
M  V30 31 C 6.4951 13.5 0.0 0
M  V30 32 C 3.8971 13.5 0.0 0
M  V30 33 C 6.4951 15.0 0.0 0
M  V30 34 C 3.8971 15.0 0.0 0
M  V30 35 C 5.1961 15.75 0.0 0
M  V30 36 N 5.1961 17.25 0.0 0
M  V30 37 C 6.4951 18.0 0.0 0
M  V30 38 C 3.8971 18.0 0.0 0
M  V30 39 C 6.4951 19.5 0.0 0
M  V30 40 C 3.8971 19.5 0.0 0
M  V30 41 N 5.1961 20.25 0.0 0
M  V30 42 C 5.1961 21.75 0.0 0
M  V30 END ATOM
M  V30 BEGIN BOND
M  V30 1 1 1 2
M  V30 2 2 2 3
M  V30 3 1 2 4
M  V30 4 1 3 5
M  V30 5 1 3 6
M  V30 6 2 4 7
M  V30 7 2 5 8
M  V30 8 1 6 9
M  V30 9 1 8 10
M  V30 10 2 9 11
M  V30 11 1 9 12
M  V30 12 1 10 13
M  V30 13 1 11 14
M  V30 14 1 11 15
M  V30 15 2 12 16
M  V30 16 2 13 17
M  V30 17 1 13 18
M  V30 18 2 14 19
M  V30 19 2 14 20
M  V30 20 1 14 21
M  V30 21 2 15 22
M  V30 22 1 17 23
M  V30 23 1 17 24
M  V30 24 2 18 25
M  V30 25 1 21 26
M  V30 26 1 21 27
M  V30 27 1 23 28
M  V30 28 2 24 29
M  V30 29 1 29 30
M  V30 30 1 30 31
M  V30 31 1 30 32
M  V30 32 1 31 33
M  V30 33 1 32 34
M  V30 34 1 33 35
M  V30 35 1 35 36
M  V30 36 1 36 37
M  V30 37 1 36 38
M  V30 38 1 37 39
M  V30 39 1 38 40
M  V30 40 1 39 41
M  V30 41 1 41 42
M  V30 42 1 7 8
M  V30 43 1 16 22
M  V30 44 1 25 29
M  V30 45 1 34 35
M  V30 46 1 40 41
M  V30 END BOND
M  V30 END CTAB
M  END
>  <Molecule Name>
Compound 216

>  <Molecule Name 2>
Compound 216

>  <Compound ID>
67

>  <Name>
TAE684

>  <Uniprot>
Q9UK32

>  <Target>
RPS6KA6

>  <Smiles>
COC1=CC(N2CCC(N3CCN(C)CC3)CC2)=CC=C1NC1=NC=C(Cl)C(NC2=CC=CC=C2S(=O)(=O)C(C)C)=N1

>  <Kd (nM)>
27/160

>  <Assay (Kd)>
Kd of RPS6KA6(Kin.Dom.1-N-terminal)/(Kin.Dom.2-C-terminal) was assessed by competition binding assays

>  <Ki (nM)>


>  <Assay (Ki)>


>  <IC50 (nM)>


>  <Assay (IC50)>


>  <EC50 (nM)>


>  <Assay (EC50)>


>  <Article DOI>
10.1038/nbt.1990

>  <Molecular Weight>
614.216

>  <Exact Mass>
613.2601868

>  <XLogP3>
5.67

>  <Heavy Atom Count>
42

>  <Ring Count>
5

>  <Hydrogen Bond Acceptor Count>
10

>  <Hydrogen Bond Donor Count>
2

>  <Rotatable Bond Count>
9

>  <Topological Polar Surface Area>
102.93

>  <Molecular Formula>
C30H40ClN7O3S

>  <InChI>
InChI=1S/C30H40ClN7O3S/c1-21(2)42(39,40)28-8-6-5-7-26(28)33-29-24(31)20-32-30(35-29)34-25-10-9-23(19-27(25)41-4)37-13-11-22(12-14-37)38-17-15-36(3)16-18-38/h5-10,19-22H,11-18H2,1-4H3,(H2,32,33,34,35)

>  <InChI Key>
QQWUGDVOUVUTOY-UHFFFAOYSA-N

>  <BindingDB>
50242742

>  <PubChem>
16038120

>  <ChEMBL>
CHEMBL509032

$$$$
67
Actelion Java MolfileCreator 2.0

  0  0  0  0  0  0              0 V3000
M  V30 BEGIN CTAB
M  V30 COUNTS 42 46 0 0 0
M  V30 BEGIN ATOM
M  V30 1 Cl 0.0 3.75 0.0 0
M  V30 2 C 1.299 4.5 0.0 0
M  V30 3 C 2.598 3.75 0.0 0
M  V30 4 C 1.299 6.0 0.0 0
M  V30 5 N 3.8971 4.5 0.0 0
M  V30 6 N 2.598 2.25 0.0 0
M  V30 7 N 2.598 6.75 0.0 0
M  V30 8 C 3.8971 6.0 0.0 0
M  V30 9 C 3.8971 1.5 0.0 0
M  V30 10 N 5.1961 6.75 0.0 0
M  V30 11 C 3.8971 0.0 0.0 0
M  V30 12 C 5.1961 2.25 0.0 0
M  V30 13 C 5.1961 8.25 0.0 0
M  V30 14 S 2.598 -0.75 0.0 0
M  V30 15 C 5.1961 -0.75 0.0 0
M  V30 16 C 6.4951 1.5 0.0 0
M  V30 17 C 6.4951 9.0 0.0 0
M  V30 18 C 3.8971 9.0 0.0 0
M  V30 19 O 1.848 -2.049 0.0 0
M  V30 20 O 3.348 -2.049 0.0 0
M  V30 21 C 1.299 0.0 0.0 0
M  V30 22 C 6.4951 0.0 0.0 0
M  V30 23 O 7.7942 8.25 0.0 0
M  V30 24 C 6.4951 10.5 0.0 0
M  V30 25 C 3.8971 10.5 0.0 0
M  V30 26 C 1.299 1.5 0.0 0
M  V30 27 C 0.0 -0.75 0.0 0
M  V30 28 C 9.0932 9.0 0.0 0
M  V30 29 C 5.1961 11.25 0.0 0
M  V30 30 N 5.1961 12.75 0.0 0
M  V30 31 C 6.4951 13.5 0.0 0
M  V30 32 C 3.8971 13.5 0.0 0
M  V30 33 C 6.4951 15.0 0.0 0
M  V30 34 C 3.8971 15.0 0.0 0
M  V30 35 C 5.1961 15.75 0.0 0
M  V30 36 N 5.1961 17.25 0.0 0
M  V30 37 C 6.4951 18.0 0.0 0
M  V30 38 C 3.8971 18.0 0.0 0
M  V30 39 C 6.4951 19.5 0.0 0
M  V30 40 C 3.8971 19.5 0.0 0
M  V30 41 N 5.1961 20.25 0.0 0
M  V30 42 C 5.1961 21.75 0.0 0
M  V30 END ATOM
M  V30 BEGIN BOND
M  V30 1 1 1 2
M  V30 2 2 2 3
M  V30 3 1 2 4
M  V30 4 1 3 5
M  V30 5 1 3 6
M  V30 6 2 4 7
M  V30 7 2 5 8
M  V30 8 1 6 9
M  V30 9 1 8 10
M  V30 10 2 9 11
M  V30 11 1 9 12
M  V30 12 1 10 13
M  V30 13 1 11 14
M  V30 14 1 11 15
M  V30 15 2 12 16
M  V30 16 2 13 17
M  V30 17 1 13 18
M  V30 18 2 14 19
M  V30 19 2 14 20
M  V30 20 1 14 21
M  V30 21 2 15 22
M  V30 22 1 17 23
M  V30 23 1 17 24
M  V30 24 2 18 25
M  V30 25 1 21 26
M  V30 26 1 21 27
M  V30 27 1 23 28
M  V30 28 2 24 29
M  V30 29 1 29 30
M  V30 30 1 30 31
M  V30 31 1 30 32
M  V30 32 1 31 33
M  V30 33 1 32 34
M  V30 34 1 33 35
M  V30 35 1 35 36
M  V30 36 1 36 37
M  V30 37 1 36 38
M  V30 38 1 37 39
M  V30 39 1 38 40
M  V30 40 1 39 41
M  V30 41 1 41 42
M  V30 42 1 7 8
M  V30 43 1 16 22
M  V30 44 1 25 29
M  V30 45 1 34 35
M  V30 46 1 40 41
M  V30 END BOND
M  V30 END CTAB
M  END
>  <Molecule Name>
Compound 217

>  <Molecule Name 2>
Compound 217

>  <Compound ID>
67

>  <Name>
TAE684

>  <Uniprot>
P23443

>  <Target>
RPS6KB1

>  <Smiles>
COC1=CC(N2CCC(N3CCN(C)CC3)CC2)=CC=C1NC1=NC=C(Cl)C(NC2=CC=CC=C2S(=O)(=O)C(C)C)=N1

>  <Kd (nM)>


>  <Assay (Kd)>


>  <Ki (nM)>
1000

>  <Assay (Ki)>
Ki of RPS6KB1

>  <IC50 (nM)>


>  <Assay (IC50)>


>  <EC50 (nM)>


>  <Assay (EC50)>


>  <Article DOI>


>  <Molecular Weight>
614.216

>  <Exact Mass>
613.2601868

>  <XLogP3>
5.67

>  <Heavy Atom Count>
42

>  <Ring Count>
5

>  <Hydrogen Bond Acceptor Count>
10

>  <Hydrogen Bond Donor Count>
2

>  <Rotatable Bond Count>
9

>  <Topological Polar Surface Area>
102.93

>  <Molecular Formula>
C30H40ClN7O3S

>  <InChI>
InChI=1S/C30H40ClN7O3S/c1-21(2)42(39,40)28-8-6-5-7-26(28)33-29-24(31)20-32-30(35-29)34-25-10-9-23(19-27(25)41-4)37-13-11-22(12-14-37)38-17-15-36(3)16-18-38/h5-10,19-22H,11-18H2,1-4H3,(H2,32,33,34,35)

>  <InChI Key>
QQWUGDVOUVUTOY-UHFFFAOYSA-N

>  <BindingDB>
50242742

>  <PubChem>
16038120

>  <ChEMBL>
CHEMBL509032

$$$$
67
Actelion Java MolfileCreator 2.0

  0  0  0  0  0  0              0 V3000
M  V30 BEGIN CTAB
M  V30 COUNTS 42 46 0 0 0
M  V30 BEGIN ATOM
M  V30 1 Cl 0.0 3.75 0.0 0
M  V30 2 C 1.299 4.5 0.0 0
M  V30 3 C 2.598 3.75 0.0 0
M  V30 4 C 1.299 6.0 0.0 0
M  V30 5 N 3.8971 4.5 0.0 0
M  V30 6 N 2.598 2.25 0.0 0
M  V30 7 N 2.598 6.75 0.0 0
M  V30 8 C 3.8971 6.0 0.0 0
M  V30 9 C 3.8971 1.5 0.0 0
M  V30 10 N 5.1961 6.75 0.0 0
M  V30 11 C 3.8971 0.0 0.0 0
M  V30 12 C 5.1961 2.25 0.0 0
M  V30 13 C 5.1961 8.25 0.0 0
M  V30 14 S 2.598 -0.75 0.0 0
M  V30 15 C 5.1961 -0.75 0.0 0
M  V30 16 C 6.4951 1.5 0.0 0
M  V30 17 C 6.4951 9.0 0.0 0
M  V30 18 C 3.8971 9.0 0.0 0
M  V30 19 O 1.848 -2.049 0.0 0
M  V30 20 O 3.348 -2.049 0.0 0
M  V30 21 C 1.299 0.0 0.0 0
M  V30 22 C 6.4951 0.0 0.0 0
M  V30 23 O 7.7942 8.25 0.0 0
M  V30 24 C 6.4951 10.5 0.0 0
M  V30 25 C 3.8971 10.5 0.0 0
M  V30 26 C 1.299 1.5 0.0 0
M  V30 27 C 0.0 -0.75 0.0 0
M  V30 28 C 9.0932 9.0 0.0 0
M  V30 29 C 5.1961 11.25 0.0 0
M  V30 30 N 5.1961 12.75 0.0 0
M  V30 31 C 6.4951 13.5 0.0 0
M  V30 32 C 3.8971 13.5 0.0 0
M  V30 33 C 6.4951 15.0 0.0 0
M  V30 34 C 3.8971 15.0 0.0 0
M  V30 35 C 5.1961 15.75 0.0 0
M  V30 36 N 5.1961 17.25 0.0 0
M  V30 37 C 6.4951 18.0 0.0 0
M  V30 38 C 3.8971 18.0 0.0 0
M  V30 39 C 6.4951 19.5 0.0 0
M  V30 40 C 3.8971 19.5 0.0 0
M  V30 41 N 5.1961 20.25 0.0 0
M  V30 42 C 5.1961 21.75 0.0 0
M  V30 END ATOM
M  V30 BEGIN BOND
M  V30 1 1 1 2
M  V30 2 2 2 3
M  V30 3 1 2 4
M  V30 4 1 3 5
M  V30 5 1 3 6
M  V30 6 2 4 7
M  V30 7 2 5 8
M  V30 8 1 6 9
M  V30 9 1 8 10
M  V30 10 2 9 11
M  V30 11 1 9 12
M  V30 12 1 10 13
M  V30 13 1 11 14
M  V30 14 1 11 15
M  V30 15 2 12 16
M  V30 16 2 13 17
M  V30 17 1 13 18
M  V30 18 2 14 19
M  V30 19 2 14 20
M  V30 20 1 14 21
M  V30 21 2 15 22
M  V30 22 1 17 23
M  V30 23 1 17 24
M  V30 24 2 18 25
M  V30 25 1 21 26
M  V30 26 1 21 27
M  V30 27 1 23 28
M  V30 28 2 24 29
M  V30 29 1 29 30
M  V30 30 1 30 31
M  V30 31 1 30 32
M  V30 32 1 31 33
M  V30 33 1 32 34
M  V30 34 1 33 35
M  V30 35 1 35 36
M  V30 36 1 36 37
M  V30 37 1 36 38
M  V30 38 1 37 39
M  V30 39 1 38 40
M  V30 40 1 39 41
M  V30 41 1 41 42
M  V30 42 1 7 8
M  V30 43 1 16 22
M  V30 44 1 25 29
M  V30 45 1 34 35
M  V30 46 1 40 41
M  V30 END BOND
M  V30 END CTAB
M  END
>  <Molecule Name>
Compound 218

>  <Molecule Name 2>
Compound 218

>  <Compound ID>
67

>  <Name>
TAE684

>  <Uniprot>
Q96S38

>  <Target>
RPS6KC1

>  <Smiles>
COC1=CC(N2CCC(N3CCN(C)CC3)CC2)=CC=C1NC1=NC=C(Cl)C(NC2=CC=CC=C2S(=O)(=O)C(C)C)=N1

>  <Kd (nM)>


>  <Assay (Kd)>


>  <Ki (nM)>


>  <Assay (Ki)>


>  <IC50 (nM)>


>  <Assay (IC50)>


>  <EC50 (nM)>


>  <Assay (EC50)>


>  <Article DOI>
10.1016/j.cell.2020.10.038

>  <Molecular Weight>
614.216

>  <Exact Mass>
613.2601868

>  <XLogP3>
5.67

>  <Heavy Atom Count>
42

>  <Ring Count>
5

>  <Hydrogen Bond Acceptor Count>
10

>  <Hydrogen Bond Donor Count>
2

>  <Rotatable Bond Count>
9

>  <Topological Polar Surface Area>
102.93

>  <Molecular Formula>
C30H40ClN7O3S

>  <InChI>
InChI=1S/C30H40ClN7O3S/c1-21(2)42(39,40)28-8-6-5-7-26(28)33-29-24(31)20-32-30(35-29)34-25-10-9-23(19-27(25)41-4)37-13-11-22(12-14-37)38-17-15-36(3)16-18-38/h5-10,19-22H,11-18H2,1-4H3,(H2,32,33,34,35)

>  <InChI Key>
QQWUGDVOUVUTOY-UHFFFAOYSA-N

>  <BindingDB>
50242742

>  <PubChem>
16038120

>  <ChEMBL>
CHEMBL509032

$$$$
67
Actelion Java MolfileCreator 2.0

  0  0  0  0  0  0              0 V3000
M  V30 BEGIN CTAB
M  V30 COUNTS 42 46 0 0 0
M  V30 BEGIN ATOM
M  V30 1 Cl 0.0 3.75 0.0 0
M  V30 2 C 1.299 4.5 0.0 0
M  V30 3 C 2.598 3.75 0.0 0
M  V30 4 C 1.299 6.0 0.0 0
M  V30 5 N 3.8971 4.5 0.0 0
M  V30 6 N 2.598 2.25 0.0 0
M  V30 7 N 2.598 6.75 0.0 0
M  V30 8 C 3.8971 6.0 0.0 0
M  V30 9 C 3.8971 1.5 0.0 0
M  V30 10 N 5.1961 6.75 0.0 0
M  V30 11 C 3.8971 0.0 0.0 0
M  V30 12 C 5.1961 2.25 0.0 0
M  V30 13 C 5.1961 8.25 0.0 0
M  V30 14 S 2.598 -0.75 0.0 0
M  V30 15 C 5.1961 -0.75 0.0 0
M  V30 16 C 6.4951 1.5 0.0 0
M  V30 17 C 6.4951 9.0 0.0 0
M  V30 18 C 3.8971 9.0 0.0 0
M  V30 19 O 1.848 -2.049 0.0 0
M  V30 20 O 3.348 -2.049 0.0 0
M  V30 21 C 1.299 0.0 0.0 0
M  V30 22 C 6.4951 0.0 0.0 0
M  V30 23 O 7.7942 8.25 0.0 0
M  V30 24 C 6.4951 10.5 0.0 0
M  V30 25 C 3.8971 10.5 0.0 0
M  V30 26 C 1.299 1.5 0.0 0
M  V30 27 C 0.0 -0.75 0.0 0
M  V30 28 C 9.0932 9.0 0.0 0
M  V30 29 C 5.1961 11.25 0.0 0
M  V30 30 N 5.1961 12.75 0.0 0
M  V30 31 C 6.4951 13.5 0.0 0
M  V30 32 C 3.8971 13.5 0.0 0
M  V30 33 C 6.4951 15.0 0.0 0
M  V30 34 C 3.8971 15.0 0.0 0
M  V30 35 C 5.1961 15.75 0.0 0
M  V30 36 N 5.1961 17.25 0.0 0
M  V30 37 C 6.4951 18.0 0.0 0
M  V30 38 C 3.8971 18.0 0.0 0
M  V30 39 C 6.4951 19.5 0.0 0
M  V30 40 C 3.8971 19.5 0.0 0
M  V30 41 N 5.1961 20.25 0.0 0
M  V30 42 C 5.1961 21.75 0.0 0
M  V30 END ATOM
M  V30 BEGIN BOND
M  V30 1 1 1 2
M  V30 2 2 2 3
M  V30 3 1 2 4
M  V30 4 1 3 5
M  V30 5 1 3 6
M  V30 6 2 4 7
M  V30 7 2 5 8
M  V30 8 1 6 9
M  V30 9 1 8 10
M  V30 10 2 9 11
M  V30 11 1 9 12
M  V30 12 1 10 13
M  V30 13 1 11 14
M  V30 14 1 11 15
M  V30 15 2 12 16
M  V30 16 2 13 17
M  V30 17 1 13 18
M  V30 18 2 14 19
M  V30 19 2 14 20
M  V30 20 1 14 21
M  V30 21 2 15 22
M  V30 22 1 17 23
M  V30 23 1 17 24
M  V30 24 2 18 25
M  V30 25 1 21 26
M  V30 26 1 21 27
M  V30 27 1 23 28
M  V30 28 2 24 29
M  V30 29 1 29 30
M  V30 30 1 30 31
M  V30 31 1 30 32
M  V30 32 1 31 33
M  V30 33 1 32 34
M  V30 34 1 33 35
M  V30 35 1 35 36
M  V30 36 1 36 37
M  V30 37 1 36 38
M  V30 38 1 37 39
M  V30 39 1 38 40
M  V30 40 1 39 41
M  V30 41 1 41 42
M  V30 42 1 7 8
M  V30 43 1 16 22
M  V30 44 1 25 29
M  V30 45 1 34 35
M  V30 46 1 40 41
M  V30 END BOND
M  V30 END CTAB
M  END
>  <Molecule Name>
Compound 219

>  <Molecule Name 2>
Compound 219

>  <Compound ID>
67

>  <Name>
TAE684

>  <Uniprot>
Q52WX2

>  <Target>
SBK1

>  <Smiles>
COC1=CC(N2CCC(N3CCN(C)CC3)CC2)=CC=C1NC1=NC=C(Cl)C(NC2=CC=CC=C2S(=O)(=O)C(C)C)=N1

>  <Kd (nM)>
21

>  <Assay (Kd)>
Kd was assessed by competition binding assays

>  <Ki (nM)>


>  <Assay (Ki)>


>  <IC50 (nM)>


>  <Assay (IC50)>


>  <EC50 (nM)>


>  <Assay (EC50)>


>  <Article DOI>
10.1038/nbt.1990

>  <Molecular Weight>
614.216

>  <Exact Mass>
613.2601868

>  <XLogP3>
5.67

>  <Heavy Atom Count>
42

>  <Ring Count>
5

>  <Hydrogen Bond Acceptor Count>
10

>  <Hydrogen Bond Donor Count>
2

>  <Rotatable Bond Count>
9

>  <Topological Polar Surface Area>
102.93

>  <Molecular Formula>
C30H40ClN7O3S

>  <InChI>
InChI=1S/C30H40ClN7O3S/c1-21(2)42(39,40)28-8-6-5-7-26(28)33-29-24(31)20-32-30(35-29)34-25-10-9-23(19-27(25)41-4)37-13-11-22(12-14-37)38-17-15-36(3)16-18-38/h5-10,19-22H,11-18H2,1-4H3,(H2,32,33,34,35)

>  <InChI Key>
QQWUGDVOUVUTOY-UHFFFAOYSA-N

>  <BindingDB>
50242742

>  <PubChem>
16038120

>  <ChEMBL>
CHEMBL509032

$$$$
67
Actelion Java MolfileCreator 2.0

  0  0  0  0  0  0              0 V3000
M  V30 BEGIN CTAB
M  V30 COUNTS 42 46 0 0 0
M  V30 BEGIN ATOM
M  V30 1 Cl 0.0 3.75 0.0 0
M  V30 2 C 1.299 4.5 0.0 0
M  V30 3 C 2.598 3.75 0.0 0
M  V30 4 C 1.299 6.0 0.0 0
M  V30 5 N 3.8971 4.5 0.0 0
M  V30 6 N 2.598 2.25 0.0 0
M  V30 7 N 2.598 6.75 0.0 0
M  V30 8 C 3.8971 6.0 0.0 0
M  V30 9 C 3.8971 1.5 0.0 0
M  V30 10 N 5.1961 6.75 0.0 0
M  V30 11 C 3.8971 0.0 0.0 0
M  V30 12 C 5.1961 2.25 0.0 0
M  V30 13 C 5.1961 8.25 0.0 0
M  V30 14 S 2.598 -0.75 0.0 0
M  V30 15 C 5.1961 -0.75 0.0 0
M  V30 16 C 6.4951 1.5 0.0 0
M  V30 17 C 6.4951 9.0 0.0 0
M  V30 18 C 3.8971 9.0 0.0 0
M  V30 19 O 1.848 -2.049 0.0 0
M  V30 20 O 3.348 -2.049 0.0 0
M  V30 21 C 1.299 0.0 0.0 0
M  V30 22 C 6.4951 0.0 0.0 0
M  V30 23 O 7.7942 8.25 0.0 0
M  V30 24 C 6.4951 10.5 0.0 0
M  V30 25 C 3.8971 10.5 0.0 0
M  V30 26 C 1.299 1.5 0.0 0
M  V30 27 C 0.0 -0.75 0.0 0
M  V30 28 C 9.0932 9.0 0.0 0
M  V30 29 C 5.1961 11.25 0.0 0
M  V30 30 N 5.1961 12.75 0.0 0
M  V30 31 C 6.4951 13.5 0.0 0
M  V30 32 C 3.8971 13.5 0.0 0
M  V30 33 C 6.4951 15.0 0.0 0
M  V30 34 C 3.8971 15.0 0.0 0
M  V30 35 C 5.1961 15.75 0.0 0
M  V30 36 N 5.1961 17.25 0.0 0
M  V30 37 C 6.4951 18.0 0.0 0
M  V30 38 C 3.8971 18.0 0.0 0
M  V30 39 C 6.4951 19.5 0.0 0
M  V30 40 C 3.8971 19.5 0.0 0
M  V30 41 N 5.1961 20.25 0.0 0
M  V30 42 C 5.1961 21.75 0.0 0
M  V30 END ATOM
M  V30 BEGIN BOND
M  V30 1 1 1 2
M  V30 2 2 2 3
M  V30 3 1 2 4
M  V30 4 1 3 5
M  V30 5 1 3 6
M  V30 6 2 4 7
M  V30 7 2 5 8
M  V30 8 1 6 9
M  V30 9 1 8 10
M  V30 10 2 9 11
M  V30 11 1 9 12
M  V30 12 1 10 13
M  V30 13 1 11 14
M  V30 14 1 11 15
M  V30 15 2 12 16
M  V30 16 2 13 17
M  V30 17 1 13 18
M  V30 18 2 14 19
M  V30 19 2 14 20
M  V30 20 1 14 21
M  V30 21 2 15 22
M  V30 22 1 17 23
M  V30 23 1 17 24
M  V30 24 2 18 25
M  V30 25 1 21 26
M  V30 26 1 21 27
M  V30 27 1 23 28
M  V30 28 2 24 29
M  V30 29 1 29 30
M  V30 30 1 30 31
M  V30 31 1 30 32
M  V30 32 1 31 33
M  V30 33 1 32 34
M  V30 34 1 33 35
M  V30 35 1 35 36
M  V30 36 1 36 37
M  V30 37 1 36 38
M  V30 38 1 37 39
M  V30 39 1 38 40
M  V30 40 1 39 41
M  V30 41 1 41 42
M  V30 42 1 7 8
M  V30 43 1 16 22
M  V30 44 1 25 29
M  V30 45 1 34 35
M  V30 46 1 40 41
M  V30 END BOND
M  V30 END CTAB
M  END
>  <Molecule Name>
Compound 220

>  <Molecule Name 2>
Compound 220

>  <Compound ID>
67

>  <Name>
TAE684

>  <Uniprot>
Q9H0K1

>  <Target>
SIK2

>  <Smiles>
COC1=CC(N2CCC(N3CCN(C)CC3)CC2)=CC=C1NC1=NC=C(Cl)C(NC2=CC=CC=C2S(=O)(=O)C(C)C)=N1

>  <Kd (nM)>
17

>  <Assay (Kd)>
Kd was assessed by competition binding assays

>  <Ki (nM)>


>  <Assay (Ki)>


>  <IC50 (nM)>


>  <Assay (IC50)>


>  <EC50 (nM)>


>  <Assay (EC50)>


>  <Article DOI>
10.1038/nbt.1990

>  <Molecular Weight>
614.216

>  <Exact Mass>
613.2601868

>  <XLogP3>
5.67

>  <Heavy Atom Count>
42

>  <Ring Count>
5

>  <Hydrogen Bond Acceptor Count>
10

>  <Hydrogen Bond Donor Count>
2

>  <Rotatable Bond Count>
9

>  <Topological Polar Surface Area>
102.93

>  <Molecular Formula>
C30H40ClN7O3S

>  <InChI>
InChI=1S/C30H40ClN7O3S/c1-21(2)42(39,40)28-8-6-5-7-26(28)33-29-24(31)20-32-30(35-29)34-25-10-9-23(19-27(25)41-4)37-13-11-22(12-14-37)38-17-15-36(3)16-18-38/h5-10,19-22H,11-18H2,1-4H3,(H2,32,33,34,35)

>  <InChI Key>
QQWUGDVOUVUTOY-UHFFFAOYSA-N

>  <BindingDB>
50242742

>  <PubChem>
16038120

>  <ChEMBL>
CHEMBL509032

$$$$
67
Actelion Java MolfileCreator 2.0

  0  0  0  0  0  0              0 V3000
M  V30 BEGIN CTAB
M  V30 COUNTS 42 46 0 0 0
M  V30 BEGIN ATOM
M  V30 1 Cl 0.0 3.75 0.0 0
M  V30 2 C 1.299 4.5 0.0 0
M  V30 3 C 2.598 3.75 0.0 0
M  V30 4 C 1.299 6.0 0.0 0
M  V30 5 N 3.8971 4.5 0.0 0
M  V30 6 N 2.598 2.25 0.0 0
M  V30 7 N 2.598 6.75 0.0 0
M  V30 8 C 3.8971 6.0 0.0 0
M  V30 9 C 3.8971 1.5 0.0 0
M  V30 10 N 5.1961 6.75 0.0 0
M  V30 11 C 3.8971 0.0 0.0 0
M  V30 12 C 5.1961 2.25 0.0 0
M  V30 13 C 5.1961 8.25 0.0 0
M  V30 14 S 2.598 -0.75 0.0 0
M  V30 15 C 5.1961 -0.75 0.0 0
M  V30 16 C 6.4951 1.5 0.0 0
M  V30 17 C 6.4951 9.0 0.0 0
M  V30 18 C 3.8971 9.0 0.0 0
M  V30 19 O 1.848 -2.049 0.0 0
M  V30 20 O 3.348 -2.049 0.0 0
M  V30 21 C 1.299 0.0 0.0 0
M  V30 22 C 6.4951 0.0 0.0 0
M  V30 23 O 7.7942 8.25 0.0 0
M  V30 24 C 6.4951 10.5 0.0 0
M  V30 25 C 3.8971 10.5 0.0 0
M  V30 26 C 1.299 1.5 0.0 0
M  V30 27 C 0.0 -0.75 0.0 0
M  V30 28 C 9.0932 9.0 0.0 0
M  V30 29 C 5.1961 11.25 0.0 0
M  V30 30 N 5.1961 12.75 0.0 0
M  V30 31 C 6.4951 13.5 0.0 0
M  V30 32 C 3.8971 13.5 0.0 0
M  V30 33 C 6.4951 15.0 0.0 0
M  V30 34 C 3.8971 15.0 0.0 0
M  V30 35 C 5.1961 15.75 0.0 0
M  V30 36 N 5.1961 17.25 0.0 0
M  V30 37 C 6.4951 18.0 0.0 0
M  V30 38 C 3.8971 18.0 0.0 0
M  V30 39 C 6.4951 19.5 0.0 0
M  V30 40 C 3.8971 19.5 0.0 0
M  V30 41 N 5.1961 20.25 0.0 0
M  V30 42 C 5.1961 21.75 0.0 0
M  V30 END ATOM
M  V30 BEGIN BOND
M  V30 1 1 1 2
M  V30 2 2 2 3
M  V30 3 1 2 4
M  V30 4 1 3 5
M  V30 5 1 3 6
M  V30 6 2 4 7
M  V30 7 2 5 8
M  V30 8 1 6 9
M  V30 9 1 8 10
M  V30 10 2 9 11
M  V30 11 1 9 12
M  V30 12 1 10 13
M  V30 13 1 11 14
M  V30 14 1 11 15
M  V30 15 2 12 16
M  V30 16 2 13 17
M  V30 17 1 13 18
M  V30 18 2 14 19
M  V30 19 2 14 20
M  V30 20 1 14 21
M  V30 21 2 15 22
M  V30 22 1 17 23
M  V30 23 1 17 24
M  V30 24 2 18 25
M  V30 25 1 21 26
M  V30 26 1 21 27
M  V30 27 1 23 28
M  V30 28 2 24 29
M  V30 29 1 29 30
M  V30 30 1 30 31
M  V30 31 1 30 32
M  V30 32 1 31 33
M  V30 33 1 32 34
M  V30 34 1 33 35
M  V30 35 1 35 36
M  V30 36 1 36 37
M  V30 37 1 36 38
M  V30 38 1 37 39
M  V30 39 1 38 40
M  V30 40 1 39 41
M  V30 41 1 41 42
M  V30 42 1 7 8
M  V30 43 1 16 22
M  V30 44 1 25 29
M  V30 45 1 34 35
M  V30 46 1 40 41
M  V30 END BOND
M  V30 END CTAB
M  END
>  <Molecule Name>
Compound 221

>  <Molecule Name 2>
Compound 221

>  <Compound ID>
67

>  <Name>
TAE684

>  <Uniprot>
P12931

>  <Target>
Src

>  <Smiles>
COC1=CC(N2CCC(N3CCN(C)CC3)CC2)=CC=C1NC1=NC=C(Cl)C(NC2=CC=CC=C2S(=O)(=O)C(C)C)=N1

>  <Kd (nM)>
280

>  <Assay (Kd)>
Kd was assessed by competition binding assays

>  <Ki (nM)>


>  <Assay (Ki)>


>  <IC50 (nM)>


>  <Assay (IC50)>


>  <EC50 (nM)>


>  <Assay (EC50)>


>  <Article DOI>
10.1038/nbt.1990

>  <Molecular Weight>
614.216

>  <Exact Mass>
613.2601868

>  <XLogP3>
5.67

>  <Heavy Atom Count>
42

>  <Ring Count>
5

>  <Hydrogen Bond Acceptor Count>
10

>  <Hydrogen Bond Donor Count>
2

>  <Rotatable Bond Count>
9

>  <Topological Polar Surface Area>
102.93

>  <Molecular Formula>
C30H40ClN7O3S

>  <InChI>
InChI=1S/C30H40ClN7O3S/c1-21(2)42(39,40)28-8-6-5-7-26(28)33-29-24(31)20-32-30(35-29)34-25-10-9-23(19-27(25)41-4)37-13-11-22(12-14-37)38-17-15-36(3)16-18-38/h5-10,19-22H,11-18H2,1-4H3,(H2,32,33,34,35)

>  <InChI Key>
QQWUGDVOUVUTOY-UHFFFAOYSA-N

>  <BindingDB>
50242742

>  <PubChem>
16038120

>  <ChEMBL>
CHEMBL509032

$$$$
67
Actelion Java MolfileCreator 2.0

  0  0  0  0  0  0              0 V3000
M  V30 BEGIN CTAB
M  V30 COUNTS 42 46 0 0 0
M  V30 BEGIN ATOM
M  V30 1 Cl 0.0 3.75 0.0 0
M  V30 2 C 1.299 4.5 0.0 0
M  V30 3 C 2.598 3.75 0.0 0
M  V30 4 C 1.299 6.0 0.0 0
M  V30 5 N 3.8971 4.5 0.0 0
M  V30 6 N 2.598 2.25 0.0 0
M  V30 7 N 2.598 6.75 0.0 0
M  V30 8 C 3.8971 6.0 0.0 0
M  V30 9 C 3.8971 1.5 0.0 0
M  V30 10 N 5.1961 6.75 0.0 0
M  V30 11 C 3.8971 0.0 0.0 0
M  V30 12 C 5.1961 2.25 0.0 0
M  V30 13 C 5.1961 8.25 0.0 0
M  V30 14 S 2.598 -0.75 0.0 0
M  V30 15 C 5.1961 -0.75 0.0 0
M  V30 16 C 6.4951 1.5 0.0 0
M  V30 17 C 6.4951 9.0 0.0 0
M  V30 18 C 3.8971 9.0 0.0 0
M  V30 19 O 1.848 -2.049 0.0 0
M  V30 20 O 3.348 -2.049 0.0 0
M  V30 21 C 1.299 0.0 0.0 0
M  V30 22 C 6.4951 0.0 0.0 0
M  V30 23 O 7.7942 8.25 0.0 0
M  V30 24 C 6.4951 10.5 0.0 0
M  V30 25 C 3.8971 10.5 0.0 0
M  V30 26 C 1.299 1.5 0.0 0
M  V30 27 C 0.0 -0.75 0.0 0
M  V30 28 C 9.0932 9.0 0.0 0
M  V30 29 C 5.1961 11.25 0.0 0
M  V30 30 N 5.1961 12.75 0.0 0
M  V30 31 C 6.4951 13.5 0.0 0
M  V30 32 C 3.8971 13.5 0.0 0
M  V30 33 C 6.4951 15.0 0.0 0
M  V30 34 C 3.8971 15.0 0.0 0
M  V30 35 C 5.1961 15.75 0.0 0
M  V30 36 N 5.1961 17.25 0.0 0
M  V30 37 C 6.4951 18.0 0.0 0
M  V30 38 C 3.8971 18.0 0.0 0
M  V30 39 C 6.4951 19.5 0.0 0
M  V30 40 C 3.8971 19.5 0.0 0
M  V30 41 N 5.1961 20.25 0.0 0
M  V30 42 C 5.1961 21.75 0.0 0
M  V30 END ATOM
M  V30 BEGIN BOND
M  V30 1 1 1 2
M  V30 2 2 2 3
M  V30 3 1 2 4
M  V30 4 1 3 5
M  V30 5 1 3 6
M  V30 6 2 4 7
M  V30 7 2 5 8
M  V30 8 1 6 9
M  V30 9 1 8 10
M  V30 10 2 9 11
M  V30 11 1 9 12
M  V30 12 1 10 13
M  V30 13 1 11 14
M  V30 14 1 11 15
M  V30 15 2 12 16
M  V30 16 2 13 17
M  V30 17 1 13 18
M  V30 18 2 14 19
M  V30 19 2 14 20
M  V30 20 1 14 21
M  V30 21 2 15 22
M  V30 22 1 17 23
M  V30 23 1 17 24
M  V30 24 2 18 25
M  V30 25 1 21 26
M  V30 26 1 21 27
M  V30 27 1 23 28
M  V30 28 2 24 29
M  V30 29 1 29 30
M  V30 30 1 30 31
M  V30 31 1 30 32
M  V30 32 1 31 33
M  V30 33 1 32 34
M  V30 34 1 33 35
M  V30 35 1 35 36
M  V30 36 1 36 37
M  V30 37 1 36 38
M  V30 38 1 37 39
M  V30 39 1 38 40
M  V30 40 1 39 41
M  V30 41 1 41 42
M  V30 42 1 7 8
M  V30 43 1 16 22
M  V30 44 1 25 29
M  V30 45 1 34 35
M  V30 46 1 40 41
M  V30 END BOND
M  V30 END CTAB
M  END
>  <Molecule Name>
Compound 222

>  <Molecule Name 2>
Compound 222

>  <Compound ID>
67

>  <Name>
TAE684

>  <Uniprot>
O94804

>  <Target>
STK10

>  <Smiles>
COC1=CC(N2CCC(N3CCN(C)CC3)CC2)=CC=C1NC1=NC=C(Cl)C(NC2=CC=CC=C2S(=O)(=O)C(C)C)=N1

>  <Kd (nM)>
82

>  <Assay (Kd)>
Kd was assessed by competition binding assays

>  <Ki (nM)>


>  <Assay (Ki)>


>  <IC50 (nM)>


>  <Assay (IC50)>


>  <EC50 (nM)>


>  <Assay (EC50)>


>  <Article DOI>
10.1038/nbt.1990

>  <Molecular Weight>
614.216

>  <Exact Mass>
613.2601868

>  <XLogP3>
5.67

>  <Heavy Atom Count>
42

>  <Ring Count>
5

>  <Hydrogen Bond Acceptor Count>
10

>  <Hydrogen Bond Donor Count>
2

>  <Rotatable Bond Count>
9

>  <Topological Polar Surface Area>
102.93

>  <Molecular Formula>
C30H40ClN7O3S

>  <InChI>
InChI=1S/C30H40ClN7O3S/c1-21(2)42(39,40)28-8-6-5-7-26(28)33-29-24(31)20-32-30(35-29)34-25-10-9-23(19-27(25)41-4)37-13-11-22(12-14-37)38-17-15-36(3)16-18-38/h5-10,19-22H,11-18H2,1-4H3,(H2,32,33,34,35)

>  <InChI Key>
QQWUGDVOUVUTOY-UHFFFAOYSA-N

>  <BindingDB>
50242742

>  <PubChem>
16038120

>  <ChEMBL>
CHEMBL509032

$$$$
67
Actelion Java MolfileCreator 2.0

  0  0  0  0  0  0              0 V3000
M  V30 BEGIN CTAB
M  V30 COUNTS 42 46 0 0 0
M  V30 BEGIN ATOM
M  V30 1 Cl 0.0 3.75 0.0 0
M  V30 2 C 1.299 4.5 0.0 0
M  V30 3 C 2.598 3.75 0.0 0
M  V30 4 C 1.299 6.0 0.0 0
M  V30 5 N 3.8971 4.5 0.0 0
M  V30 6 N 2.598 2.25 0.0 0
M  V30 7 N 2.598 6.75 0.0 0
M  V30 8 C 3.8971 6.0 0.0 0
M  V30 9 C 3.8971 1.5 0.0 0
M  V30 10 N 5.1961 6.75 0.0 0
M  V30 11 C 3.8971 0.0 0.0 0
M  V30 12 C 5.1961 2.25 0.0 0
M  V30 13 C 5.1961 8.25 0.0 0
M  V30 14 S 2.598 -0.75 0.0 0
M  V30 15 C 5.1961 -0.75 0.0 0
M  V30 16 C 6.4951 1.5 0.0 0
M  V30 17 C 6.4951 9.0 0.0 0
M  V30 18 C 3.8971 9.0 0.0 0
M  V30 19 O 1.848 -2.049 0.0 0
M  V30 20 O 3.348 -2.049 0.0 0
M  V30 21 C 1.299 0.0 0.0 0
M  V30 22 C 6.4951 0.0 0.0 0
M  V30 23 O 7.7942 8.25 0.0 0
M  V30 24 C 6.4951 10.5 0.0 0
M  V30 25 C 3.8971 10.5 0.0 0
M  V30 26 C 1.299 1.5 0.0 0
M  V30 27 C 0.0 -0.75 0.0 0
M  V30 28 C 9.0932 9.0 0.0 0
M  V30 29 C 5.1961 11.25 0.0 0
M  V30 30 N 5.1961 12.75 0.0 0
M  V30 31 C 6.4951 13.5 0.0 0
M  V30 32 C 3.8971 13.5 0.0 0
M  V30 33 C 6.4951 15.0 0.0 0
M  V30 34 C 3.8971 15.0 0.0 0
M  V30 35 C 5.1961 15.75 0.0 0
M  V30 36 N 5.1961 17.25 0.0 0
M  V30 37 C 6.4951 18.0 0.0 0
M  V30 38 C 3.8971 18.0 0.0 0
M  V30 39 C 6.4951 19.5 0.0 0
M  V30 40 C 3.8971 19.5 0.0 0
M  V30 41 N 5.1961 20.25 0.0 0
M  V30 42 C 5.1961 21.75 0.0 0
M  V30 END ATOM
M  V30 BEGIN BOND
M  V30 1 1 1 2
M  V30 2 2 2 3
M  V30 3 1 2 4
M  V30 4 1 3 5
M  V30 5 1 3 6
M  V30 6 2 4 7
M  V30 7 2 5 8
M  V30 8 1 6 9
M  V30 9 1 8 10
M  V30 10 2 9 11
M  V30 11 1 9 12
M  V30 12 1 10 13
M  V30 13 1 11 14
M  V30 14 1 11 15
M  V30 15 2 12 16
M  V30 16 2 13 17
M  V30 17 1 13 18
M  V30 18 2 14 19
M  V30 19 2 14 20
M  V30 20 1 14 21
M  V30 21 2 15 22
M  V30 22 1 17 23
M  V30 23 1 17 24
M  V30 24 2 18 25
M  V30 25 1 21 26
M  V30 26 1 21 27
M  V30 27 1 23 28
M  V30 28 2 24 29
M  V30 29 1 29 30
M  V30 30 1 30 31
M  V30 31 1 30 32
M  V30 32 1 31 33
M  V30 33 1 32 34
M  V30 34 1 33 35
M  V30 35 1 35 36
M  V30 36 1 36 37
M  V30 37 1 36 38
M  V30 38 1 37 39
M  V30 39 1 38 40
M  V30 40 1 39 41
M  V30 41 1 41 42
M  V30 42 1 7 8
M  V30 43 1 16 22
M  V30 44 1 25 29
M  V30 45 1 34 35
M  V30 46 1 40 41
M  V30 END BOND
M  V30 END CTAB
M  END
>  <Molecule Name>
Compound 223

>  <Molecule Name 2>
Compound 223

>  <Compound ID>
67

>  <Name>
TAE684

>  <Uniprot>
Q9UEE5

>  <Target>
STK17A

>  <Smiles>
COC1=CC(N2CCC(N3CCN(C)CC3)CC2)=CC=C1NC1=NC=C(Cl)C(NC2=CC=CC=C2S(=O)(=O)C(C)C)=N1

>  <Kd (nM)>
2900

>  <Assay (Kd)>
Kd was assessed by competition binding assays

>  <Ki (nM)>


>  <Assay (Ki)>


>  <IC50 (nM)>


>  <Assay (IC50)>


>  <EC50 (nM)>


>  <Assay (EC50)>


>  <Article DOI>
10.1038/nbt.1990

>  <Molecular Weight>
614.216

>  <Exact Mass>
613.2601868

>  <XLogP3>
5.67

>  <Heavy Atom Count>
42

>  <Ring Count>
5

>  <Hydrogen Bond Acceptor Count>
10

>  <Hydrogen Bond Donor Count>
2

>  <Rotatable Bond Count>
9

>  <Topological Polar Surface Area>
102.93

>  <Molecular Formula>
C30H40ClN7O3S

>  <InChI>
InChI=1S/C30H40ClN7O3S/c1-21(2)42(39,40)28-8-6-5-7-26(28)33-29-24(31)20-32-30(35-29)34-25-10-9-23(19-27(25)41-4)37-13-11-22(12-14-37)38-17-15-36(3)16-18-38/h5-10,19-22H,11-18H2,1-4H3,(H2,32,33,34,35)

>  <InChI Key>
QQWUGDVOUVUTOY-UHFFFAOYSA-N

>  <BindingDB>
50242742

>  <PubChem>
16038120

>  <ChEMBL>
CHEMBL509032

$$$$
67
Actelion Java MolfileCreator 2.0

  0  0  0  0  0  0              0 V3000
M  V30 BEGIN CTAB
M  V30 COUNTS 42 46 0 0 0
M  V30 BEGIN ATOM
M  V30 1 Cl 0.0 3.75 0.0 0
M  V30 2 C 1.299 4.5 0.0 0
M  V30 3 C 2.598 3.75 0.0 0
M  V30 4 C 1.299 6.0 0.0 0
M  V30 5 N 3.8971 4.5 0.0 0
M  V30 6 N 2.598 2.25 0.0 0
M  V30 7 N 2.598 6.75 0.0 0
M  V30 8 C 3.8971 6.0 0.0 0
M  V30 9 C 3.8971 1.5 0.0 0
M  V30 10 N 5.1961 6.75 0.0 0
M  V30 11 C 3.8971 0.0 0.0 0
M  V30 12 C 5.1961 2.25 0.0 0
M  V30 13 C 5.1961 8.25 0.0 0
M  V30 14 S 2.598 -0.75 0.0 0
M  V30 15 C 5.1961 -0.75 0.0 0
M  V30 16 C 6.4951 1.5 0.0 0
M  V30 17 C 6.4951 9.0 0.0 0
M  V30 18 C 3.8971 9.0 0.0 0
M  V30 19 O 1.848 -2.049 0.0 0
M  V30 20 O 3.348 -2.049 0.0 0
M  V30 21 C 1.299 0.0 0.0 0
M  V30 22 C 6.4951 0.0 0.0 0
M  V30 23 O 7.7942 8.25 0.0 0
M  V30 24 C 6.4951 10.5 0.0 0
M  V30 25 C 3.8971 10.5 0.0 0
M  V30 26 C 1.299 1.5 0.0 0
M  V30 27 C 0.0 -0.75 0.0 0
M  V30 28 C 9.0932 9.0 0.0 0
M  V30 29 C 5.1961 11.25 0.0 0
M  V30 30 N 5.1961 12.75 0.0 0
M  V30 31 C 6.4951 13.5 0.0 0
M  V30 32 C 3.8971 13.5 0.0 0
M  V30 33 C 6.4951 15.0 0.0 0
M  V30 34 C 3.8971 15.0 0.0 0
M  V30 35 C 5.1961 15.75 0.0 0
M  V30 36 N 5.1961 17.25 0.0 0
M  V30 37 C 6.4951 18.0 0.0 0
M  V30 38 C 3.8971 18.0 0.0 0
M  V30 39 C 6.4951 19.5 0.0 0
M  V30 40 C 3.8971 19.5 0.0 0
M  V30 41 N 5.1961 20.25 0.0 0
M  V30 42 C 5.1961 21.75 0.0 0
M  V30 END ATOM
M  V30 BEGIN BOND
M  V30 1 1 1 2
M  V30 2 2 2 3
M  V30 3 1 2 4
M  V30 4 1 3 5
M  V30 5 1 3 6
M  V30 6 2 4 7
M  V30 7 2 5 8
M  V30 8 1 6 9
M  V30 9 1 8 10
M  V30 10 2 9 11
M  V30 11 1 9 12
M  V30 12 1 10 13
M  V30 13 1 11 14
M  V30 14 1 11 15
M  V30 15 2 12 16
M  V30 16 2 13 17
M  V30 17 1 13 18
M  V30 18 2 14 19
M  V30 19 2 14 20
M  V30 20 1 14 21
M  V30 21 2 15 22
M  V30 22 1 17 23
M  V30 23 1 17 24
M  V30 24 2 18 25
M  V30 25 1 21 26
M  V30 26 1 21 27
M  V30 27 1 23 28
M  V30 28 2 24 29
M  V30 29 1 29 30
M  V30 30 1 30 31
M  V30 31 1 30 32
M  V30 32 1 31 33
M  V30 33 1 32 34
M  V30 34 1 33 35
M  V30 35 1 35 36
M  V30 36 1 36 37
M  V30 37 1 36 38
M  V30 38 1 37 39
M  V30 39 1 38 40
M  V30 40 1 39 41
M  V30 41 1 41 42
M  V30 42 1 7 8
M  V30 43 1 16 22
M  V30 44 1 25 29
M  V30 45 1 34 35
M  V30 46 1 40 41
M  V30 END BOND
M  V30 END CTAB
M  END
>  <Molecule Name>
Compound 224

>  <Molecule Name 2>
Compound 224

>  <Compound ID>
67

>  <Name>
TAE684

>  <Uniprot>
O94768

>  <Target>
STK17B

>  <Smiles>
COC1=CC(N2CCC(N3CCN(C)CC3)CC2)=CC=C1NC1=NC=C(Cl)C(NC2=CC=CC=C2S(=O)(=O)C(C)C)=N1

>  <Kd (nM)>
7100

>  <Assay (Kd)>
Kd was assessed by competition binding assays

>  <Ki (nM)>


>  <Assay (Ki)>


>  <IC50 (nM)>


>  <Assay (IC50)>


>  <EC50 (nM)>


>  <Assay (EC50)>


>  <Article DOI>
10.1038/nbt.1990

>  <Molecular Weight>
614.216

>  <Exact Mass>
613.2601868

>  <XLogP3>
5.67

>  <Heavy Atom Count>
42

>  <Ring Count>
5

>  <Hydrogen Bond Acceptor Count>
10

>  <Hydrogen Bond Donor Count>
2

>  <Rotatable Bond Count>
9

>  <Topological Polar Surface Area>
102.93

>  <Molecular Formula>
C30H40ClN7O3S

>  <InChI>
InChI=1S/C30H40ClN7O3S/c1-21(2)42(39,40)28-8-6-5-7-26(28)33-29-24(31)20-32-30(35-29)34-25-10-9-23(19-27(25)41-4)37-13-11-22(12-14-37)38-17-15-36(3)16-18-38/h5-10,19-22H,11-18H2,1-4H3,(H2,32,33,34,35)

>  <InChI Key>
QQWUGDVOUVUTOY-UHFFFAOYSA-N

>  <BindingDB>
50242742

>  <PubChem>
16038120

>  <ChEMBL>
CHEMBL509032

$$$$
67
Actelion Java MolfileCreator 2.0

  0  0  0  0  0  0              0 V3000
M  V30 BEGIN CTAB
M  V30 COUNTS 42 46 0 0 0
M  V30 BEGIN ATOM
M  V30 1 Cl 0.0 3.75 0.0 0
M  V30 2 C 1.299 4.5 0.0 0
M  V30 3 C 2.598 3.75 0.0 0
M  V30 4 C 1.299 6.0 0.0 0
M  V30 5 N 3.8971 4.5 0.0 0
M  V30 6 N 2.598 2.25 0.0 0
M  V30 7 N 2.598 6.75 0.0 0
M  V30 8 C 3.8971 6.0 0.0 0
M  V30 9 C 3.8971 1.5 0.0 0
M  V30 10 N 5.1961 6.75 0.0 0
M  V30 11 C 3.8971 0.0 0.0 0
M  V30 12 C 5.1961 2.25 0.0 0
M  V30 13 C 5.1961 8.25 0.0 0
M  V30 14 S 2.598 -0.75 0.0 0
M  V30 15 C 5.1961 -0.75 0.0 0
M  V30 16 C 6.4951 1.5 0.0 0
M  V30 17 C 6.4951 9.0 0.0 0
M  V30 18 C 3.8971 9.0 0.0 0
M  V30 19 O 1.848 -2.049 0.0 0
M  V30 20 O 3.348 -2.049 0.0 0
M  V30 21 C 1.299 0.0 0.0 0
M  V30 22 C 6.4951 0.0 0.0 0
M  V30 23 O 7.7942 8.25 0.0 0
M  V30 24 C 6.4951 10.5 0.0 0
M  V30 25 C 3.8971 10.5 0.0 0
M  V30 26 C 1.299 1.5 0.0 0
M  V30 27 C 0.0 -0.75 0.0 0
M  V30 28 C 9.0932 9.0 0.0 0
M  V30 29 C 5.1961 11.25 0.0 0
M  V30 30 N 5.1961 12.75 0.0 0
M  V30 31 C 6.4951 13.5 0.0 0
M  V30 32 C 3.8971 13.5 0.0 0
M  V30 33 C 6.4951 15.0 0.0 0
M  V30 34 C 3.8971 15.0 0.0 0
M  V30 35 C 5.1961 15.75 0.0 0
M  V30 36 N 5.1961 17.25 0.0 0
M  V30 37 C 6.4951 18.0 0.0 0
M  V30 38 C 3.8971 18.0 0.0 0
M  V30 39 C 6.4951 19.5 0.0 0
M  V30 40 C 3.8971 19.5 0.0 0
M  V30 41 N 5.1961 20.25 0.0 0
M  V30 42 C 5.1961 21.75 0.0 0
M  V30 END ATOM
M  V30 BEGIN BOND
M  V30 1 1 1 2
M  V30 2 2 2 3
M  V30 3 1 2 4
M  V30 4 1 3 5
M  V30 5 1 3 6
M  V30 6 2 4 7
M  V30 7 2 5 8
M  V30 8 1 6 9
M  V30 9 1 8 10
M  V30 10 2 9 11
M  V30 11 1 9 12
M  V30 12 1 10 13
M  V30 13 1 11 14
M  V30 14 1 11 15
M  V30 15 2 12 16
M  V30 16 2 13 17
M  V30 17 1 13 18
M  V30 18 2 14 19
M  V30 19 2 14 20
M  V30 20 1 14 21
M  V30 21 2 15 22
M  V30 22 1 17 23
M  V30 23 1 17 24
M  V30 24 2 18 25
M  V30 25 1 21 26
M  V30 26 1 21 27
M  V30 27 1 23 28
M  V30 28 2 24 29
M  V30 29 1 29 30
M  V30 30 1 30 31
M  V30 31 1 30 32
M  V30 32 1 31 33
M  V30 33 1 32 34
M  V30 34 1 33 35
M  V30 35 1 35 36
M  V30 36 1 36 37
M  V30 37 1 36 38
M  V30 38 1 37 39
M  V30 39 1 38 40
M  V30 40 1 39 41
M  V30 41 1 41 42
M  V30 42 1 7 8
M  V30 43 1 16 22
M  V30 44 1 25 29
M  V30 45 1 34 35
M  V30 46 1 40 41
M  V30 END BOND
M  V30 END CTAB
M  END
>  <Molecule Name>
Compound 225

>  <Molecule Name 2>
Compound 225

>  <Compound ID>
67

>  <Name>
TAE684

>  <Uniprot>
Q86UX6

>  <Target>
STK32C

>  <Smiles>
COC1=CC(N2CCC(N3CCN(C)CC3)CC2)=CC=C1NC1=NC=C(Cl)C(NC2=CC=CC=C2S(=O)(=O)C(C)C)=N1

>  <Kd (nM)>
55

>  <Assay (Kd)>
Kd was assessed by competition binding assays

>  <Ki (nM)>


>  <Assay (Ki)>


>  <IC50 (nM)>


>  <Assay (IC50)>


>  <EC50 (nM)>


>  <Assay (EC50)>


>  <Article DOI>
10.1038/nbt.1990

>  <Molecular Weight>
614.216

>  <Exact Mass>
613.2601868

>  <XLogP3>
5.67

>  <Heavy Atom Count>
42

>  <Ring Count>
5

>  <Hydrogen Bond Acceptor Count>
10

>  <Hydrogen Bond Donor Count>
2

>  <Rotatable Bond Count>
9

>  <Topological Polar Surface Area>
102.93

>  <Molecular Formula>
C30H40ClN7O3S

>  <InChI>
InChI=1S/C30H40ClN7O3S/c1-21(2)42(39,40)28-8-6-5-7-26(28)33-29-24(31)20-32-30(35-29)34-25-10-9-23(19-27(25)41-4)37-13-11-22(12-14-37)38-17-15-36(3)16-18-38/h5-10,19-22H,11-18H2,1-4H3,(H2,32,33,34,35)

>  <InChI Key>
QQWUGDVOUVUTOY-UHFFFAOYSA-N

>  <BindingDB>
50242742

>  <PubChem>
16038120

>  <ChEMBL>
CHEMBL509032

$$$$
67
Actelion Java MolfileCreator 2.0

  0  0  0  0  0  0              0 V3000
M  V30 BEGIN CTAB
M  V30 COUNTS 42 46 0 0 0
M  V30 BEGIN ATOM
M  V30 1 Cl 0.0 3.75 0.0 0
M  V30 2 C 1.299 4.5 0.0 0
M  V30 3 C 2.598 3.75 0.0 0
M  V30 4 C 1.299 6.0 0.0 0
M  V30 5 N 3.8971 4.5 0.0 0
M  V30 6 N 2.598 2.25 0.0 0
M  V30 7 N 2.598 6.75 0.0 0
M  V30 8 C 3.8971 6.0 0.0 0
M  V30 9 C 3.8971 1.5 0.0 0
M  V30 10 N 5.1961 6.75 0.0 0
M  V30 11 C 3.8971 0.0 0.0 0
M  V30 12 C 5.1961 2.25 0.0 0
M  V30 13 C 5.1961 8.25 0.0 0
M  V30 14 S 2.598 -0.75 0.0 0
M  V30 15 C 5.1961 -0.75 0.0 0
M  V30 16 C 6.4951 1.5 0.0 0
M  V30 17 C 6.4951 9.0 0.0 0
M  V30 18 C 3.8971 9.0 0.0 0
M  V30 19 O 1.848 -2.049 0.0 0
M  V30 20 O 3.348 -2.049 0.0 0
M  V30 21 C 1.299 0.0 0.0 0
M  V30 22 C 6.4951 0.0 0.0 0
M  V30 23 O 7.7942 8.25 0.0 0
M  V30 24 C 6.4951 10.5 0.0 0
M  V30 25 C 3.8971 10.5 0.0 0
M  V30 26 C 1.299 1.5 0.0 0
M  V30 27 C 0.0 -0.75 0.0 0
M  V30 28 C 9.0932 9.0 0.0 0
M  V30 29 C 5.1961 11.25 0.0 0
M  V30 30 N 5.1961 12.75 0.0 0
M  V30 31 C 6.4951 13.5 0.0 0
M  V30 32 C 3.8971 13.5 0.0 0
M  V30 33 C 6.4951 15.0 0.0 0
M  V30 34 C 3.8971 15.0 0.0 0
M  V30 35 C 5.1961 15.75 0.0 0
M  V30 36 N 5.1961 17.25 0.0 0
M  V30 37 C 6.4951 18.0 0.0 0
M  V30 38 C 3.8971 18.0 0.0 0
M  V30 39 C 6.4951 19.5 0.0 0
M  V30 40 C 3.8971 19.5 0.0 0
M  V30 41 N 5.1961 20.25 0.0 0
M  V30 42 C 5.1961 21.75 0.0 0
M  V30 END ATOM
M  V30 BEGIN BOND
M  V30 1 1 1 2
M  V30 2 2 2 3
M  V30 3 1 2 4
M  V30 4 1 3 5
M  V30 5 1 3 6
M  V30 6 2 4 7
M  V30 7 2 5 8
M  V30 8 1 6 9
M  V30 9 1 8 10
M  V30 10 2 9 11
M  V30 11 1 9 12
M  V30 12 1 10 13
M  V30 13 1 11 14
M  V30 14 1 11 15
M  V30 15 2 12 16
M  V30 16 2 13 17
M  V30 17 1 13 18
M  V30 18 2 14 19
M  V30 19 2 14 20
M  V30 20 1 14 21
M  V30 21 2 15 22
M  V30 22 1 17 23
M  V30 23 1 17 24
M  V30 24 2 18 25
M  V30 25 1 21 26
M  V30 26 1 21 27
M  V30 27 1 23 28
M  V30 28 2 24 29
M  V30 29 1 29 30
M  V30 30 1 30 31
M  V30 31 1 30 32
M  V30 32 1 31 33
M  V30 33 1 32 34
M  V30 34 1 33 35
M  V30 35 1 35 36
M  V30 36 1 36 37
M  V30 37 1 36 38
M  V30 38 1 37 39
M  V30 39 1 38 40
M  V30 40 1 39 41
M  V30 41 1 41 42
M  V30 42 1 7 8
M  V30 43 1 16 22
M  V30 44 1 25 29
M  V30 45 1 34 35
M  V30 46 1 40 41
M  V30 END BOND
M  V30 END CTAB
M  END
>  <Molecule Name>
Compound 226

>  <Molecule Name 2>
Compound 226

>  <Compound ID>
67

>  <Name>
TAE684

>  <Uniprot>
Q9BYT3

>  <Target>
STK33

>  <Smiles>
COC1=CC(N2CCC(N3CCN(C)CC3)CC2)=CC=C1NC1=NC=C(Cl)C(NC2=CC=CC=C2S(=O)(=O)C(C)C)=N1

>  <Kd (nM)>
3.2

>  <Assay (Kd)>
Kd was assessed by competition binding assays

>  <Ki (nM)>


>  <Assay (Ki)>


>  <IC50 (nM)>


>  <Assay (IC50)>


>  <EC50 (nM)>


>  <Assay (EC50)>


>  <Article DOI>
10.1038/nbt.1990

>  <Molecular Weight>
614.216

>  <Exact Mass>
613.2601868

>  <XLogP3>
5.67

>  <Heavy Atom Count>
42

>  <Ring Count>
5

>  <Hydrogen Bond Acceptor Count>
10

>  <Hydrogen Bond Donor Count>
2

>  <Rotatable Bond Count>
9

>  <Topological Polar Surface Area>
102.93

>  <Molecular Formula>
C30H40ClN7O3S

>  <InChI>
InChI=1S/C30H40ClN7O3S/c1-21(2)42(39,40)28-8-6-5-7-26(28)33-29-24(31)20-32-30(35-29)34-25-10-9-23(19-27(25)41-4)37-13-11-22(12-14-37)38-17-15-36(3)16-18-38/h5-10,19-22H,11-18H2,1-4H3,(H2,32,33,34,35)

>  <InChI Key>
QQWUGDVOUVUTOY-UHFFFAOYSA-N

>  <BindingDB>
50242742

>  <PubChem>
16038120

>  <ChEMBL>
CHEMBL509032

$$$$
67
Actelion Java MolfileCreator 2.0

  0  0  0  0  0  0              0 V3000
M  V30 BEGIN CTAB
M  V30 COUNTS 42 46 0 0 0
M  V30 BEGIN ATOM
M  V30 1 Cl 0.0 3.75 0.0 0
M  V30 2 C 1.299 4.5 0.0 0
M  V30 3 C 2.598 3.75 0.0 0
M  V30 4 C 1.299 6.0 0.0 0
M  V30 5 N 3.8971 4.5 0.0 0
M  V30 6 N 2.598 2.25 0.0 0
M  V30 7 N 2.598 6.75 0.0 0
M  V30 8 C 3.8971 6.0 0.0 0
M  V30 9 C 3.8971 1.5 0.0 0
M  V30 10 N 5.1961 6.75 0.0 0
M  V30 11 C 3.8971 0.0 0.0 0
M  V30 12 C 5.1961 2.25 0.0 0
M  V30 13 C 5.1961 8.25 0.0 0
M  V30 14 S 2.598 -0.75 0.0 0
M  V30 15 C 5.1961 -0.75 0.0 0
M  V30 16 C 6.4951 1.5 0.0 0
M  V30 17 C 6.4951 9.0 0.0 0
M  V30 18 C 3.8971 9.0 0.0 0
M  V30 19 O 1.848 -2.049 0.0 0
M  V30 20 O 3.348 -2.049 0.0 0
M  V30 21 C 1.299 0.0 0.0 0
M  V30 22 C 6.4951 0.0 0.0 0
M  V30 23 O 7.7942 8.25 0.0 0
M  V30 24 C 6.4951 10.5 0.0 0
M  V30 25 C 3.8971 10.5 0.0 0
M  V30 26 C 1.299 1.5 0.0 0
M  V30 27 C 0.0 -0.75 0.0 0
M  V30 28 C 9.0932 9.0 0.0 0
M  V30 29 C 5.1961 11.25 0.0 0
M  V30 30 N 5.1961 12.75 0.0 0
M  V30 31 C 6.4951 13.5 0.0 0
M  V30 32 C 3.8971 13.5 0.0 0
M  V30 33 C 6.4951 15.0 0.0 0
M  V30 34 C 3.8971 15.0 0.0 0
M  V30 35 C 5.1961 15.75 0.0 0
M  V30 36 N 5.1961 17.25 0.0 0
M  V30 37 C 6.4951 18.0 0.0 0
M  V30 38 C 3.8971 18.0 0.0 0
M  V30 39 C 6.4951 19.5 0.0 0
M  V30 40 C 3.8971 19.5 0.0 0
M  V30 41 N 5.1961 20.25 0.0 0
M  V30 42 C 5.1961 21.75 0.0 0
M  V30 END ATOM
M  V30 BEGIN BOND
M  V30 1 1 1 2
M  V30 2 2 2 3
M  V30 3 1 2 4
M  V30 4 1 3 5
M  V30 5 1 3 6
M  V30 6 2 4 7
M  V30 7 2 5 8
M  V30 8 1 6 9
M  V30 9 1 8 10
M  V30 10 2 9 11
M  V30 11 1 9 12
M  V30 12 1 10 13
M  V30 13 1 11 14
M  V30 14 1 11 15
M  V30 15 2 12 16
M  V30 16 2 13 17
M  V30 17 1 13 18
M  V30 18 2 14 19
M  V30 19 2 14 20
M  V30 20 1 14 21
M  V30 21 2 15 22
M  V30 22 1 17 23
M  V30 23 1 17 24
M  V30 24 2 18 25
M  V30 25 1 21 26
M  V30 26 1 21 27
M  V30 27 1 23 28
M  V30 28 2 24 29
M  V30 29 1 29 30
M  V30 30 1 30 31
M  V30 31 1 30 32
M  V30 32 1 31 33
M  V30 33 1 32 34
M  V30 34 1 33 35
M  V30 35 1 35 36
M  V30 36 1 36 37
M  V30 37 1 36 38
M  V30 38 1 37 39
M  V30 39 1 38 40
M  V30 40 1 39 41
M  V30 41 1 41 42
M  V30 42 1 7 8
M  V30 43 1 16 22
M  V30 44 1 25 29
M  V30 45 1 34 35
M  V30 46 1 40 41
M  V30 END BOND
M  V30 END CTAB
M  END
>  <Molecule Name>
Compound 227

>  <Molecule Name 2>
Compound 227

>  <Compound ID>
67

>  <Name>
TAE684

>  <Uniprot>
Q8TDR2

>  <Target>
STK35

>  <Smiles>
COC1=CC(N2CCC(N3CCN(C)CC3)CC2)=CC=C1NC1=NC=C(Cl)C(NC2=CC=CC=C2S(=O)(=O)C(C)C)=N1

>  <Kd (nM)>
260

>  <Assay (Kd)>
Kd was assessed by competition binding assays

>  <Ki (nM)>


>  <Assay (Ki)>


>  <IC50 (nM)>


>  <Assay (IC50)>


>  <EC50 (nM)>


>  <Assay (EC50)>


>  <Article DOI>
10.1038/nbt.1990

>  <Molecular Weight>
614.216

>  <Exact Mass>
613.2601868

>  <XLogP3>
5.67

>  <Heavy Atom Count>
42

>  <Ring Count>
5

>  <Hydrogen Bond Acceptor Count>
10

>  <Hydrogen Bond Donor Count>
2

>  <Rotatable Bond Count>
9

>  <Topological Polar Surface Area>
102.93

>  <Molecular Formula>
C30H40ClN7O3S

>  <InChI>
InChI=1S/C30H40ClN7O3S/c1-21(2)42(39,40)28-8-6-5-7-26(28)33-29-24(31)20-32-30(35-29)34-25-10-9-23(19-27(25)41-4)37-13-11-22(12-14-37)38-17-15-36(3)16-18-38/h5-10,19-22H,11-18H2,1-4H3,(H2,32,33,34,35)

>  <InChI Key>
QQWUGDVOUVUTOY-UHFFFAOYSA-N

>  <BindingDB>
50242742

>  <PubChem>
16038120

>  <ChEMBL>
CHEMBL509032

$$$$
67
Actelion Java MolfileCreator 2.0

  0  0  0  0  0  0              0 V3000
M  V30 BEGIN CTAB
M  V30 COUNTS 42 46 0 0 0
M  V30 BEGIN ATOM
M  V30 1 Cl 0.0 3.75 0.0 0
M  V30 2 C 1.299 4.5 0.0 0
M  V30 3 C 2.598 3.75 0.0 0
M  V30 4 C 1.299 6.0 0.0 0
M  V30 5 N 3.8971 4.5 0.0 0
M  V30 6 N 2.598 2.25 0.0 0
M  V30 7 N 2.598 6.75 0.0 0
M  V30 8 C 3.8971 6.0 0.0 0
M  V30 9 C 3.8971 1.5 0.0 0
M  V30 10 N 5.1961 6.75 0.0 0
M  V30 11 C 3.8971 0.0 0.0 0
M  V30 12 C 5.1961 2.25 0.0 0
M  V30 13 C 5.1961 8.25 0.0 0
M  V30 14 S 2.598 -0.75 0.0 0
M  V30 15 C 5.1961 -0.75 0.0 0
M  V30 16 C 6.4951 1.5 0.0 0
M  V30 17 C 6.4951 9.0 0.0 0
M  V30 18 C 3.8971 9.0 0.0 0
M  V30 19 O 1.848 -2.049 0.0 0
M  V30 20 O 3.348 -2.049 0.0 0
M  V30 21 C 1.299 0.0 0.0 0
M  V30 22 C 6.4951 0.0 0.0 0
M  V30 23 O 7.7942 8.25 0.0 0
M  V30 24 C 6.4951 10.5 0.0 0
M  V30 25 C 3.8971 10.5 0.0 0
M  V30 26 C 1.299 1.5 0.0 0
M  V30 27 C 0.0 -0.75 0.0 0
M  V30 28 C 9.0932 9.0 0.0 0
M  V30 29 C 5.1961 11.25 0.0 0
M  V30 30 N 5.1961 12.75 0.0 0
M  V30 31 C 6.4951 13.5 0.0 0
M  V30 32 C 3.8971 13.5 0.0 0
M  V30 33 C 6.4951 15.0 0.0 0
M  V30 34 C 3.8971 15.0 0.0 0
M  V30 35 C 5.1961 15.75 0.0 0
M  V30 36 N 5.1961 17.25 0.0 0
M  V30 37 C 6.4951 18.0 0.0 0
M  V30 38 C 3.8971 18.0 0.0 0
M  V30 39 C 6.4951 19.5 0.0 0
M  V30 40 C 3.8971 19.5 0.0 0
M  V30 41 N 5.1961 20.25 0.0 0
M  V30 42 C 5.1961 21.75 0.0 0
M  V30 END ATOM
M  V30 BEGIN BOND
M  V30 1 1 1 2
M  V30 2 2 2 3
M  V30 3 1 2 4
M  V30 4 1 3 5
M  V30 5 1 3 6
M  V30 6 2 4 7
M  V30 7 2 5 8
M  V30 8 1 6 9
M  V30 9 1 8 10
M  V30 10 2 9 11
M  V30 11 1 9 12
M  V30 12 1 10 13
M  V30 13 1 11 14
M  V30 14 1 11 15
M  V30 15 2 12 16
M  V30 16 2 13 17
M  V30 17 1 13 18
M  V30 18 2 14 19
M  V30 19 2 14 20
M  V30 20 1 14 21
M  V30 21 2 15 22
M  V30 22 1 17 23
M  V30 23 1 17 24
M  V30 24 2 18 25
M  V30 25 1 21 26
M  V30 26 1 21 27
M  V30 27 1 23 28
M  V30 28 2 24 29
M  V30 29 1 29 30
M  V30 30 1 30 31
M  V30 31 1 30 32
M  V30 32 1 31 33
M  V30 33 1 32 34
M  V30 34 1 33 35
M  V30 35 1 35 36
M  V30 36 1 36 37
M  V30 37 1 36 38
M  V30 38 1 37 39
M  V30 39 1 38 40
M  V30 40 1 39 41
M  V30 41 1 41 42
M  V30 42 1 7 8
M  V30 43 1 16 22
M  V30 44 1 25 29
M  V30 45 1 34 35
M  V30 46 1 40 41
M  V30 END BOND
M  V30 END CTAB
M  END
>  <Molecule Name>
Compound 228

>  <Molecule Name 2>
Compound 228

>  <Compound ID>
67

>  <Name>
TAE684

>  <Uniprot>
Q8N2I9

>  <Target>
STK40

>  <Smiles>
COC1=CC(N2CCC(N3CCN(C)CC3)CC2)=CC=C1NC1=NC=C(Cl)C(NC2=CC=CC=C2S(=O)(=O)C(C)C)=N1

>  <Kd (nM)>


>  <Assay (Kd)>


>  <Ki (nM)>


>  <Assay (Ki)>


>  <IC50 (nM)>


>  <Assay (IC50)>


>  <EC50 (nM)>


>  <Assay (EC50)>


>  <Article DOI>
10.1016/j.cell.2020.10.038

>  <Molecular Weight>
614.216

>  <Exact Mass>
613.2601868

>  <XLogP3>
5.67

>  <Heavy Atom Count>
42

>  <Ring Count>
5

>  <Hydrogen Bond Acceptor Count>
10

>  <Hydrogen Bond Donor Count>
2

>  <Rotatable Bond Count>
9

>  <Topological Polar Surface Area>
102.93

>  <Molecular Formula>
C30H40ClN7O3S

>  <InChI>
InChI=1S/C30H40ClN7O3S/c1-21(2)42(39,40)28-8-6-5-7-26(28)33-29-24(31)20-32-30(35-29)34-25-10-9-23(19-27(25)41-4)37-13-11-22(12-14-37)38-17-15-36(3)16-18-38/h5-10,19-22H,11-18H2,1-4H3,(H2,32,33,34,35)

>  <InChI Key>
QQWUGDVOUVUTOY-UHFFFAOYSA-N

>  <BindingDB>
50242742

>  <PubChem>
16038120

>  <ChEMBL>
CHEMBL509032

$$$$
67
Actelion Java MolfileCreator 2.0

  0  0  0  0  0  0              0 V3000
M  V30 BEGIN CTAB
M  V30 COUNTS 42 46 0 0 0
M  V30 BEGIN ATOM
M  V30 1 Cl 0.0 3.75 0.0 0
M  V30 2 C 1.299 4.5 0.0 0
M  V30 3 C 2.598 3.75 0.0 0
M  V30 4 C 1.299 6.0 0.0 0
M  V30 5 N 3.8971 4.5 0.0 0
M  V30 6 N 2.598 2.25 0.0 0
M  V30 7 N 2.598 6.75 0.0 0
M  V30 8 C 3.8971 6.0 0.0 0
M  V30 9 C 3.8971 1.5 0.0 0
M  V30 10 N 5.1961 6.75 0.0 0
M  V30 11 C 3.8971 0.0 0.0 0
M  V30 12 C 5.1961 2.25 0.0 0
M  V30 13 C 5.1961 8.25 0.0 0
M  V30 14 S 2.598 -0.75 0.0 0
M  V30 15 C 5.1961 -0.75 0.0 0
M  V30 16 C 6.4951 1.5 0.0 0
M  V30 17 C 6.4951 9.0 0.0 0
M  V30 18 C 3.8971 9.0 0.0 0
M  V30 19 O 1.848 -2.049 0.0 0
M  V30 20 O 3.348 -2.049 0.0 0
M  V30 21 C 1.299 0.0 0.0 0
M  V30 22 C 6.4951 0.0 0.0 0
M  V30 23 O 7.7942 8.25 0.0 0
M  V30 24 C 6.4951 10.5 0.0 0
M  V30 25 C 3.8971 10.5 0.0 0
M  V30 26 C 1.299 1.5 0.0 0
M  V30 27 C 0.0 -0.75 0.0 0
M  V30 28 C 9.0932 9.0 0.0 0
M  V30 29 C 5.1961 11.25 0.0 0
M  V30 30 N 5.1961 12.75 0.0 0
M  V30 31 C 6.4951 13.5 0.0 0
M  V30 32 C 3.8971 13.5 0.0 0
M  V30 33 C 6.4951 15.0 0.0 0
M  V30 34 C 3.8971 15.0 0.0 0
M  V30 35 C 5.1961 15.75 0.0 0
M  V30 36 N 5.1961 17.25 0.0 0
M  V30 37 C 6.4951 18.0 0.0 0
M  V30 38 C 3.8971 18.0 0.0 0
M  V30 39 C 6.4951 19.5 0.0 0
M  V30 40 C 3.8971 19.5 0.0 0
M  V30 41 N 5.1961 20.25 0.0 0
M  V30 42 C 5.1961 21.75 0.0 0
M  V30 END ATOM
M  V30 BEGIN BOND
M  V30 1 1 1 2
M  V30 2 2 2 3
M  V30 3 1 2 4
M  V30 4 1 3 5
M  V30 5 1 3 6
M  V30 6 2 4 7
M  V30 7 2 5 8
M  V30 8 1 6 9
M  V30 9 1 8 10
M  V30 10 2 9 11
M  V30 11 1 9 12
M  V30 12 1 10 13
M  V30 13 1 11 14
M  V30 14 1 11 15
M  V30 15 2 12 16
M  V30 16 2 13 17
M  V30 17 1 13 18
M  V30 18 2 14 19
M  V30 19 2 14 20
M  V30 20 1 14 21
M  V30 21 2 15 22
M  V30 22 1 17 23
M  V30 23 1 17 24
M  V30 24 2 18 25
M  V30 25 1 21 26
M  V30 26 1 21 27
M  V30 27 1 23 28
M  V30 28 2 24 29
M  V30 29 1 29 30
M  V30 30 1 30 31
M  V30 31 1 30 32
M  V30 32 1 31 33
M  V30 33 1 32 34
M  V30 34 1 33 35
M  V30 35 1 35 36
M  V30 36 1 36 37
M  V30 37 1 36 38
M  V30 38 1 37 39
M  V30 39 1 38 40
M  V30 40 1 39 41
M  V30 41 1 41 42
M  V30 42 1 7 8
M  V30 43 1 16 22
M  V30 44 1 25 29
M  V30 45 1 34 35
M  V30 46 1 40 41
M  V30 END BOND
M  V30 END CTAB
M  END
>  <Molecule Name>
Compound 229

>  <Molecule Name 2>
Compound 229

>  <Compound ID>
67

>  <Name>
TAE684

>  <Uniprot>
P42680

>  <Target>
TEC

>  <Smiles>
COC1=CC(N2CCC(N3CCN(C)CC3)CC2)=CC=C1NC1=NC=C(Cl)C(NC2=CC=CC=C2S(=O)(=O)C(C)C)=N1

>  <Kd (nM)>
180

>  <Assay (Kd)>
Kd was assessed by competition binding assays

>  <Ki (nM)>


>  <Assay (Ki)>


>  <IC50 (nM)>


>  <Assay (IC50)>


>  <EC50 (nM)>


>  <Assay (EC50)>


>  <Article DOI>
10.1038/nbt.1990

>  <Molecular Weight>
614.216

>  <Exact Mass>
613.2601868

>  <XLogP3>
5.67

>  <Heavy Atom Count>
42

>  <Ring Count>
5

>  <Hydrogen Bond Acceptor Count>
10

>  <Hydrogen Bond Donor Count>
2

>  <Rotatable Bond Count>
9

>  <Topological Polar Surface Area>
102.93

>  <Molecular Formula>
C30H40ClN7O3S

>  <InChI>
InChI=1S/C30H40ClN7O3S/c1-21(2)42(39,40)28-8-6-5-7-26(28)33-29-24(31)20-32-30(35-29)34-25-10-9-23(19-27(25)41-4)37-13-11-22(12-14-37)38-17-15-36(3)16-18-38/h5-10,19-22H,11-18H2,1-4H3,(H2,32,33,34,35)

>  <InChI Key>
QQWUGDVOUVUTOY-UHFFFAOYSA-N

>  <BindingDB>
50242742

>  <PubChem>
16038120

>  <ChEMBL>
CHEMBL509032

$$$$
67
Actelion Java MolfileCreator 2.0

  0  0  0  0  0  0              0 V3000
M  V30 BEGIN CTAB
M  V30 COUNTS 42 46 0 0 0
M  V30 BEGIN ATOM
M  V30 1 Cl 0.0 3.75 0.0 0
M  V30 2 C 1.299 4.5 0.0 0
M  V30 3 C 2.598 3.75 0.0 0
M  V30 4 C 1.299 6.0 0.0 0
M  V30 5 N 3.8971 4.5 0.0 0
M  V30 6 N 2.598 2.25 0.0 0
M  V30 7 N 2.598 6.75 0.0 0
M  V30 8 C 3.8971 6.0 0.0 0
M  V30 9 C 3.8971 1.5 0.0 0
M  V30 10 N 5.1961 6.75 0.0 0
M  V30 11 C 3.8971 0.0 0.0 0
M  V30 12 C 5.1961 2.25 0.0 0
M  V30 13 C 5.1961 8.25 0.0 0
M  V30 14 S 2.598 -0.75 0.0 0
M  V30 15 C 5.1961 -0.75 0.0 0
M  V30 16 C 6.4951 1.5 0.0 0
M  V30 17 C 6.4951 9.0 0.0 0
M  V30 18 C 3.8971 9.0 0.0 0
M  V30 19 O 1.848 -2.049 0.0 0
M  V30 20 O 3.348 -2.049 0.0 0
M  V30 21 C 1.299 0.0 0.0 0
M  V30 22 C 6.4951 0.0 0.0 0
M  V30 23 O 7.7942 8.25 0.0 0
M  V30 24 C 6.4951 10.5 0.0 0
M  V30 25 C 3.8971 10.5 0.0 0
M  V30 26 C 1.299 1.5 0.0 0
M  V30 27 C 0.0 -0.75 0.0 0
M  V30 28 C 9.0932 9.0 0.0 0
M  V30 29 C 5.1961 11.25 0.0 0
M  V30 30 N 5.1961 12.75 0.0 0
M  V30 31 C 6.4951 13.5 0.0 0
M  V30 32 C 3.8971 13.5 0.0 0
M  V30 33 C 6.4951 15.0 0.0 0
M  V30 34 C 3.8971 15.0 0.0 0
M  V30 35 C 5.1961 15.75 0.0 0
M  V30 36 N 5.1961 17.25 0.0 0
M  V30 37 C 6.4951 18.0 0.0 0
M  V30 38 C 3.8971 18.0 0.0 0
M  V30 39 C 6.4951 19.5 0.0 0
M  V30 40 C 3.8971 19.5 0.0 0
M  V30 41 N 5.1961 20.25 0.0 0
M  V30 42 C 5.1961 21.75 0.0 0
M  V30 END ATOM
M  V30 BEGIN BOND
M  V30 1 1 1 2
M  V30 2 2 2 3
M  V30 3 1 2 4
M  V30 4 1 3 5
M  V30 5 1 3 6
M  V30 6 2 4 7
M  V30 7 2 5 8
M  V30 8 1 6 9
M  V30 9 1 8 10
M  V30 10 2 9 11
M  V30 11 1 9 12
M  V30 12 1 10 13
M  V30 13 1 11 14
M  V30 14 1 11 15
M  V30 15 2 12 16
M  V30 16 2 13 17
M  V30 17 1 13 18
M  V30 18 2 14 19
M  V30 19 2 14 20
M  V30 20 1 14 21
M  V30 21 2 15 22
M  V30 22 1 17 23
M  V30 23 1 17 24
M  V30 24 2 18 25
M  V30 25 1 21 26
M  V30 26 1 21 27
M  V30 27 1 23 28
M  V30 28 2 24 29
M  V30 29 1 29 30
M  V30 30 1 30 31
M  V30 31 1 30 32
M  V30 32 1 31 33
M  V30 33 1 32 34
M  V30 34 1 33 35
M  V30 35 1 35 36
M  V30 36 1 36 37
M  V30 37 1 36 38
M  V30 38 1 37 39
M  V30 39 1 38 40
M  V30 40 1 39 41
M  V30 41 1 41 42
M  V30 42 1 7 8
M  V30 43 1 16 22
M  V30 44 1 25 29
M  V30 45 1 34 35
M  V30 46 1 40 41
M  V30 END BOND
M  V30 END CTAB
M  END
>  <Molecule Name>
Compound 230

>  <Molecule Name 2>
Compound 230

>  <Compound ID>
67

>  <Name>
TAE684

>  <Uniprot>
P36897

>  <Target>
TGFBR1

>  <Smiles>
COC1=CC(N2CCC(N3CCN(C)CC3)CC2)=CC=C1NC1=NC=C(Cl)C(NC2=CC=CC=C2S(=O)(=O)C(C)C)=N1

>  <Kd (nM)>
190

>  <Assay (Kd)>
Kd was assessed by competition binding assays

>  <Ki (nM)>


>  <Assay (Ki)>


>  <IC50 (nM)>


>  <Assay (IC50)>


>  <EC50 (nM)>


>  <Assay (EC50)>


>  <Article DOI>
10.1038/nbt.1990

>  <Molecular Weight>
614.216

>  <Exact Mass>
613.2601868

>  <XLogP3>
5.67

>  <Heavy Atom Count>
42

>  <Ring Count>
5

>  <Hydrogen Bond Acceptor Count>
10

>  <Hydrogen Bond Donor Count>
2

>  <Rotatable Bond Count>
9

>  <Topological Polar Surface Area>
102.93

>  <Molecular Formula>
C30H40ClN7O3S

>  <InChI>
InChI=1S/C30H40ClN7O3S/c1-21(2)42(39,40)28-8-6-5-7-26(28)33-29-24(31)20-32-30(35-29)34-25-10-9-23(19-27(25)41-4)37-13-11-22(12-14-37)38-17-15-36(3)16-18-38/h5-10,19-22H,11-18H2,1-4H3,(H2,32,33,34,35)

>  <InChI Key>
QQWUGDVOUVUTOY-UHFFFAOYSA-N

>  <BindingDB>
50242742

>  <PubChem>
16038120

>  <ChEMBL>
CHEMBL509032

$$$$
67
Actelion Java MolfileCreator 2.0

  0  0  0  0  0  0              0 V3000
M  V30 BEGIN CTAB
M  V30 COUNTS 42 46 0 0 0
M  V30 BEGIN ATOM
M  V30 1 Cl 0.0 3.75 0.0 0
M  V30 2 C 1.299 4.5 0.0 0
M  V30 3 C 2.598 3.75 0.0 0
M  V30 4 C 1.299 6.0 0.0 0
M  V30 5 N 3.8971 4.5 0.0 0
M  V30 6 N 2.598 2.25 0.0 0
M  V30 7 N 2.598 6.75 0.0 0
M  V30 8 C 3.8971 6.0 0.0 0
M  V30 9 C 3.8971 1.5 0.0 0
M  V30 10 N 5.1961 6.75 0.0 0
M  V30 11 C 3.8971 0.0 0.0 0
M  V30 12 C 5.1961 2.25 0.0 0
M  V30 13 C 5.1961 8.25 0.0 0
M  V30 14 S 2.598 -0.75 0.0 0
M  V30 15 C 5.1961 -0.75 0.0 0
M  V30 16 C 6.4951 1.5 0.0 0
M  V30 17 C 6.4951 9.0 0.0 0
M  V30 18 C 3.8971 9.0 0.0 0
M  V30 19 O 1.848 -2.049 0.0 0
M  V30 20 O 3.348 -2.049 0.0 0
M  V30 21 C 1.299 0.0 0.0 0
M  V30 22 C 6.4951 0.0 0.0 0
M  V30 23 O 7.7942 8.25 0.0 0
M  V30 24 C 6.4951 10.5 0.0 0
M  V30 25 C 3.8971 10.5 0.0 0
M  V30 26 C 1.299 1.5 0.0 0
M  V30 27 C 0.0 -0.75 0.0 0
M  V30 28 C 9.0932 9.0 0.0 0
M  V30 29 C 5.1961 11.25 0.0 0
M  V30 30 N 5.1961 12.75 0.0 0
M  V30 31 C 6.4951 13.5 0.0 0
M  V30 32 C 3.8971 13.5 0.0 0
M  V30 33 C 6.4951 15.0 0.0 0
M  V30 34 C 3.8971 15.0 0.0 0
M  V30 35 C 5.1961 15.75 0.0 0
M  V30 36 N 5.1961 17.25 0.0 0
M  V30 37 C 6.4951 18.0 0.0 0
M  V30 38 C 3.8971 18.0 0.0 0
M  V30 39 C 6.4951 19.5 0.0 0
M  V30 40 C 3.8971 19.5 0.0 0
M  V30 41 N 5.1961 20.25 0.0 0
M  V30 42 C 5.1961 21.75 0.0 0
M  V30 END ATOM
M  V30 BEGIN BOND
M  V30 1 1 1 2
M  V30 2 2 2 3
M  V30 3 1 2 4
M  V30 4 1 3 5
M  V30 5 1 3 6
M  V30 6 2 4 7
M  V30 7 2 5 8
M  V30 8 1 6 9
M  V30 9 1 8 10
M  V30 10 2 9 11
M  V30 11 1 9 12
M  V30 12 1 10 13
M  V30 13 1 11 14
M  V30 14 1 11 15
M  V30 15 2 12 16
M  V30 16 2 13 17
M  V30 17 1 13 18
M  V30 18 2 14 19
M  V30 19 2 14 20
M  V30 20 1 14 21
M  V30 21 2 15 22
M  V30 22 1 17 23
M  V30 23 1 17 24
M  V30 24 2 18 25
M  V30 25 1 21 26
M  V30 26 1 21 27
M  V30 27 1 23 28
M  V30 28 2 24 29
M  V30 29 1 29 30
M  V30 30 1 30 31
M  V30 31 1 30 32
M  V30 32 1 31 33
M  V30 33 1 32 34
M  V30 34 1 33 35
M  V30 35 1 35 36
M  V30 36 1 36 37
M  V30 37 1 36 38
M  V30 38 1 37 39
M  V30 39 1 38 40
M  V30 40 1 39 41
M  V30 41 1 41 42
M  V30 42 1 7 8
M  V30 43 1 16 22
M  V30 44 1 25 29
M  V30 45 1 34 35
M  V30 46 1 40 41
M  V30 END BOND
M  V30 END CTAB
M  END
>  <Molecule Name>
Compound 231

>  <Molecule Name 2>
Compound 231

>  <Compound ID>
67

>  <Name>
TAE684

>  <Uniprot>
Q13470

>  <Target>
TNK1

>  <Smiles>
COC1=CC(N2CCC(N3CCN(C)CC3)CC2)=CC=C1NC1=NC=C(Cl)C(NC2=CC=CC=C2S(=O)(=O)C(C)C)=N1

>  <Kd (nM)>
1.8

>  <Assay (Kd)>
Kd was assessed by competition binding assays

>  <Ki (nM)>


>  <Assay (Ki)>


>  <IC50 (nM)>


>  <Assay (IC50)>


>  <EC50 (nM)>


>  <Assay (EC50)>


>  <Article DOI>
10.1038/nbt.1990

>  <Molecular Weight>
614.216

>  <Exact Mass>
613.2601868

>  <XLogP3>
5.67

>  <Heavy Atom Count>
42

>  <Ring Count>
5

>  <Hydrogen Bond Acceptor Count>
10

>  <Hydrogen Bond Donor Count>
2

>  <Rotatable Bond Count>
9

>  <Topological Polar Surface Area>
102.93

>  <Molecular Formula>
C30H40ClN7O3S

>  <InChI>
InChI=1S/C30H40ClN7O3S/c1-21(2)42(39,40)28-8-6-5-7-26(28)33-29-24(31)20-32-30(35-29)34-25-10-9-23(19-27(25)41-4)37-13-11-22(12-14-37)38-17-15-36(3)16-18-38/h5-10,19-22H,11-18H2,1-4H3,(H2,32,33,34,35)

>  <InChI Key>
QQWUGDVOUVUTOY-UHFFFAOYSA-N

>  <BindingDB>
50242742

>  <PubChem>
16038120

>  <ChEMBL>
CHEMBL509032

$$$$
67
Actelion Java MolfileCreator 2.0

  0  0  0  0  0  0              0 V3000
M  V30 BEGIN CTAB
M  V30 COUNTS 42 46 0 0 0
M  V30 BEGIN ATOM
M  V30 1 Cl 0.0 3.75 0.0 0
M  V30 2 C 1.299 4.5 0.0 0
M  V30 3 C 2.598 3.75 0.0 0
M  V30 4 C 1.299 6.0 0.0 0
M  V30 5 N 3.8971 4.5 0.0 0
M  V30 6 N 2.598 2.25 0.0 0
M  V30 7 N 2.598 6.75 0.0 0
M  V30 8 C 3.8971 6.0 0.0 0
M  V30 9 C 3.8971 1.5 0.0 0
M  V30 10 N 5.1961 6.75 0.0 0
M  V30 11 C 3.8971 0.0 0.0 0
M  V30 12 C 5.1961 2.25 0.0 0
M  V30 13 C 5.1961 8.25 0.0 0
M  V30 14 S 2.598 -0.75 0.0 0
M  V30 15 C 5.1961 -0.75 0.0 0
M  V30 16 C 6.4951 1.5 0.0 0
M  V30 17 C 6.4951 9.0 0.0 0
M  V30 18 C 3.8971 9.0 0.0 0
M  V30 19 O 1.848 -2.049 0.0 0
M  V30 20 O 3.348 -2.049 0.0 0
M  V30 21 C 1.299 0.0 0.0 0
M  V30 22 C 6.4951 0.0 0.0 0
M  V30 23 O 7.7942 8.25 0.0 0
M  V30 24 C 6.4951 10.5 0.0 0
M  V30 25 C 3.8971 10.5 0.0 0
M  V30 26 C 1.299 1.5 0.0 0
M  V30 27 C 0.0 -0.75 0.0 0
M  V30 28 C 9.0932 9.0 0.0 0
M  V30 29 C 5.1961 11.25 0.0 0
M  V30 30 N 5.1961 12.75 0.0 0
M  V30 31 C 6.4951 13.5 0.0 0
M  V30 32 C 3.8971 13.5 0.0 0
M  V30 33 C 6.4951 15.0 0.0 0
M  V30 34 C 3.8971 15.0 0.0 0
M  V30 35 C 5.1961 15.75 0.0 0
M  V30 36 N 5.1961 17.25 0.0 0
M  V30 37 C 6.4951 18.0 0.0 0
M  V30 38 C 3.8971 18.0 0.0 0
M  V30 39 C 6.4951 19.5 0.0 0
M  V30 40 C 3.8971 19.5 0.0 0
M  V30 41 N 5.1961 20.25 0.0 0
M  V30 42 C 5.1961 21.75 0.0 0
M  V30 END ATOM
M  V30 BEGIN BOND
M  V30 1 1 1 2
M  V30 2 2 2 3
M  V30 3 1 2 4
M  V30 4 1 3 5
M  V30 5 1 3 6
M  V30 6 2 4 7
M  V30 7 2 5 8
M  V30 8 1 6 9
M  V30 9 1 8 10
M  V30 10 2 9 11
M  V30 11 1 9 12
M  V30 12 1 10 13
M  V30 13 1 11 14
M  V30 14 1 11 15
M  V30 15 2 12 16
M  V30 16 2 13 17
M  V30 17 1 13 18
M  V30 18 2 14 19
M  V30 19 2 14 20
M  V30 20 1 14 21
M  V30 21 2 15 22
M  V30 22 1 17 23
M  V30 23 1 17 24
M  V30 24 2 18 25
M  V30 25 1 21 26
M  V30 26 1 21 27
M  V30 27 1 23 28
M  V30 28 2 24 29
M  V30 29 1 29 30
M  V30 30 1 30 31
M  V30 31 1 30 32
M  V30 32 1 31 33
M  V30 33 1 32 34
M  V30 34 1 33 35
M  V30 35 1 35 36
M  V30 36 1 36 37
M  V30 37 1 36 38
M  V30 38 1 37 39
M  V30 39 1 38 40
M  V30 40 1 39 41
M  V30 41 1 41 42
M  V30 42 1 7 8
M  V30 43 1 16 22
M  V30 44 1 25 29
M  V30 45 1 34 35
M  V30 46 1 40 41
M  V30 END BOND
M  V30 END CTAB
M  END
>  <Molecule Name>
Compound 232

>  <Molecule Name 2>
Compound 232

>  <Compound ID>
67

>  <Name>
TAE684

>  <Uniprot>
Q07912

>  <Target>
TNK2

>  <Smiles>
COC1=CC(N2CCC(N3CCN(C)CC3)CC2)=CC=C1NC1=NC=C(Cl)C(NC2=CC=CC=C2S(=O)(=O)C(C)C)=N1

>  <Kd (nM)>
2

>  <Assay (Kd)>
Kd was assessed by competition binding assays

>  <Ki (nM)>


>  <Assay (Ki)>


>  <IC50 (nM)>


>  <Assay (IC50)>


>  <EC50 (nM)>


>  <Assay (EC50)>


>  <Article DOI>
10.1038/nbt.1990

>  <Molecular Weight>
614.216

>  <Exact Mass>
613.2601868

>  <XLogP3>
5.67

>  <Heavy Atom Count>
42

>  <Ring Count>
5

>  <Hydrogen Bond Acceptor Count>
10

>  <Hydrogen Bond Donor Count>
2

>  <Rotatable Bond Count>
9

>  <Topological Polar Surface Area>
102.93

>  <Molecular Formula>
C30H40ClN7O3S

>  <InChI>
InChI=1S/C30H40ClN7O3S/c1-21(2)42(39,40)28-8-6-5-7-26(28)33-29-24(31)20-32-30(35-29)34-25-10-9-23(19-27(25)41-4)37-13-11-22(12-14-37)38-17-15-36(3)16-18-38/h5-10,19-22H,11-18H2,1-4H3,(H2,32,33,34,35)

>  <InChI Key>
QQWUGDVOUVUTOY-UHFFFAOYSA-N

>  <BindingDB>
50242742

>  <PubChem>
16038120

>  <ChEMBL>
CHEMBL509032

$$$$
67
Actelion Java MolfileCreator 2.0

  0  0  0  0  0  0              0 V3000
M  V30 BEGIN CTAB
M  V30 COUNTS 42 46 0 0 0
M  V30 BEGIN ATOM
M  V30 1 Cl 0.0 3.75 0.0 0
M  V30 2 C 1.299 4.5 0.0 0
M  V30 3 C 2.598 3.75 0.0 0
M  V30 4 C 1.299 6.0 0.0 0
M  V30 5 N 3.8971 4.5 0.0 0
M  V30 6 N 2.598 2.25 0.0 0
M  V30 7 N 2.598 6.75 0.0 0
M  V30 8 C 3.8971 6.0 0.0 0
M  V30 9 C 3.8971 1.5 0.0 0
M  V30 10 N 5.1961 6.75 0.0 0
M  V30 11 C 3.8971 0.0 0.0 0
M  V30 12 C 5.1961 2.25 0.0 0
M  V30 13 C 5.1961 8.25 0.0 0
M  V30 14 S 2.598 -0.75 0.0 0
M  V30 15 C 5.1961 -0.75 0.0 0
M  V30 16 C 6.4951 1.5 0.0 0
M  V30 17 C 6.4951 9.0 0.0 0
M  V30 18 C 3.8971 9.0 0.0 0
M  V30 19 O 1.848 -2.049 0.0 0
M  V30 20 O 3.348 -2.049 0.0 0
M  V30 21 C 1.299 0.0 0.0 0
M  V30 22 C 6.4951 0.0 0.0 0
M  V30 23 O 7.7942 8.25 0.0 0
M  V30 24 C 6.4951 10.5 0.0 0
M  V30 25 C 3.8971 10.5 0.0 0
M  V30 26 C 1.299 1.5 0.0 0
M  V30 27 C 0.0 -0.75 0.0 0
M  V30 28 C 9.0932 9.0 0.0 0
M  V30 29 C 5.1961 11.25 0.0 0
M  V30 30 N 5.1961 12.75 0.0 0
M  V30 31 C 6.4951 13.5 0.0 0
M  V30 32 C 3.8971 13.5 0.0 0
M  V30 33 C 6.4951 15.0 0.0 0
M  V30 34 C 3.8971 15.0 0.0 0
M  V30 35 C 5.1961 15.75 0.0 0
M  V30 36 N 5.1961 17.25 0.0 0
M  V30 37 C 6.4951 18.0 0.0 0
M  V30 38 C 3.8971 18.0 0.0 0
M  V30 39 C 6.4951 19.5 0.0 0
M  V30 40 C 3.8971 19.5 0.0 0
M  V30 41 N 5.1961 20.25 0.0 0
M  V30 42 C 5.1961 21.75 0.0 0
M  V30 END ATOM
M  V30 BEGIN BOND
M  V30 1 1 1 2
M  V30 2 2 2 3
M  V30 3 1 2 4
M  V30 4 1 3 5
M  V30 5 1 3 6
M  V30 6 2 4 7
M  V30 7 2 5 8
M  V30 8 1 6 9
M  V30 9 1 8 10
M  V30 10 2 9 11
M  V30 11 1 9 12
M  V30 12 1 10 13
M  V30 13 1 11 14
M  V30 14 1 11 15
M  V30 15 2 12 16
M  V30 16 2 13 17
M  V30 17 1 13 18
M  V30 18 2 14 19
M  V30 19 2 14 20
M  V30 20 1 14 21
M  V30 21 2 15 22
M  V30 22 1 17 23
M  V30 23 1 17 24
M  V30 24 2 18 25
M  V30 25 1 21 26
M  V30 26 1 21 27
M  V30 27 1 23 28
M  V30 28 2 24 29
M  V30 29 1 29 30
M  V30 30 1 30 31
M  V30 31 1 30 32
M  V30 32 1 31 33
M  V30 33 1 32 34
M  V30 34 1 33 35
M  V30 35 1 35 36
M  V30 36 1 36 37
M  V30 37 1 36 38
M  V30 38 1 37 39
M  V30 39 1 38 40
M  V30 40 1 39 41
M  V30 41 1 41 42
M  V30 42 1 7 8
M  V30 43 1 16 22
M  V30 44 1 25 29
M  V30 45 1 34 35
M  V30 46 1 40 41
M  V30 END BOND
M  V30 END CTAB
M  END
>  <Molecule Name>
Compound 233

>  <Molecule Name 2>
Compound 233

>  <Compound ID>
67

>  <Name>
TAE684

>  <Uniprot>
Q96RU7

>  <Target>
TRIB3

>  <Smiles>
COC1=CC(N2CCC(N3CCN(C)CC3)CC2)=CC=C1NC1=NC=C(Cl)C(NC2=CC=CC=C2S(=O)(=O)C(C)C)=N1

>  <Kd (nM)>


>  <Assay (Kd)>


>  <Ki (nM)>


>  <Assay (Ki)>


>  <IC50 (nM)>


>  <Assay (IC50)>


>  <EC50 (nM)>


>  <Assay (EC50)>


>  <Article DOI>
10.1016/j.cell.2020.10.038

>  <Molecular Weight>
614.216

>  <Exact Mass>
613.2601868

>  <XLogP3>
5.67

>  <Heavy Atom Count>
42

>  <Ring Count>
5

>  <Hydrogen Bond Acceptor Count>
10

>  <Hydrogen Bond Donor Count>
2

>  <Rotatable Bond Count>
9

>  <Topological Polar Surface Area>
102.93

>  <Molecular Formula>
C30H40ClN7O3S

>  <InChI>
InChI=1S/C30H40ClN7O3S/c1-21(2)42(39,40)28-8-6-5-7-26(28)33-29-24(31)20-32-30(35-29)34-25-10-9-23(19-27(25)41-4)37-13-11-22(12-14-37)38-17-15-36(3)16-18-38/h5-10,19-22H,11-18H2,1-4H3,(H2,32,33,34,35)

>  <InChI Key>
QQWUGDVOUVUTOY-UHFFFAOYSA-N

>  <BindingDB>
50242742

>  <PubChem>
16038120

>  <ChEMBL>
CHEMBL509032

$$$$
67
Actelion Java MolfileCreator 2.0

  0  0  0  0  0  0              0 V3000
M  V30 BEGIN CTAB
M  V30 COUNTS 42 46 0 0 0
M  V30 BEGIN ATOM
M  V30 1 Cl 0.0 3.75 0.0 0
M  V30 2 C 1.299 4.5 0.0 0
M  V30 3 C 2.598 3.75 0.0 0
M  V30 4 C 1.299 6.0 0.0 0
M  V30 5 N 3.8971 4.5 0.0 0
M  V30 6 N 2.598 2.25 0.0 0
M  V30 7 N 2.598 6.75 0.0 0
M  V30 8 C 3.8971 6.0 0.0 0
M  V30 9 C 3.8971 1.5 0.0 0
M  V30 10 N 5.1961 6.75 0.0 0
M  V30 11 C 3.8971 0.0 0.0 0
M  V30 12 C 5.1961 2.25 0.0 0
M  V30 13 C 5.1961 8.25 0.0 0
M  V30 14 S 2.598 -0.75 0.0 0
M  V30 15 C 5.1961 -0.75 0.0 0
M  V30 16 C 6.4951 1.5 0.0 0
M  V30 17 C 6.4951 9.0 0.0 0
M  V30 18 C 3.8971 9.0 0.0 0
M  V30 19 O 1.848 -2.049 0.0 0
M  V30 20 O 3.348 -2.049 0.0 0
M  V30 21 C 1.299 0.0 0.0 0
M  V30 22 C 6.4951 0.0 0.0 0
M  V30 23 O 7.7942 8.25 0.0 0
M  V30 24 C 6.4951 10.5 0.0 0
M  V30 25 C 3.8971 10.5 0.0 0
M  V30 26 C 1.299 1.5 0.0 0
M  V30 27 C 0.0 -0.75 0.0 0
M  V30 28 C 9.0932 9.0 0.0 0
M  V30 29 C 5.1961 11.25 0.0 0
M  V30 30 N 5.1961 12.75 0.0 0
M  V30 31 C 6.4951 13.5 0.0 0
M  V30 32 C 3.8971 13.5 0.0 0
M  V30 33 C 6.4951 15.0 0.0 0
M  V30 34 C 3.8971 15.0 0.0 0
M  V30 35 C 5.1961 15.75 0.0 0
M  V30 36 N 5.1961 17.25 0.0 0
M  V30 37 C 6.4951 18.0 0.0 0
M  V30 38 C 3.8971 18.0 0.0 0
M  V30 39 C 6.4951 19.5 0.0 0
M  V30 40 C 3.8971 19.5 0.0 0
M  V30 41 N 5.1961 20.25 0.0 0
M  V30 42 C 5.1961 21.75 0.0 0
M  V30 END ATOM
M  V30 BEGIN BOND
M  V30 1 1 1 2
M  V30 2 2 2 3
M  V30 3 1 2 4
M  V30 4 1 3 5
M  V30 5 1 3 6
M  V30 6 2 4 7
M  V30 7 2 5 8
M  V30 8 1 6 9
M  V30 9 1 8 10
M  V30 10 2 9 11
M  V30 11 1 9 12
M  V30 12 1 10 13
M  V30 13 1 11 14
M  V30 14 1 11 15
M  V30 15 2 12 16
M  V30 16 2 13 17
M  V30 17 1 13 18
M  V30 18 2 14 19
M  V30 19 2 14 20
M  V30 20 1 14 21
M  V30 21 2 15 22
M  V30 22 1 17 23
M  V30 23 1 17 24
M  V30 24 2 18 25
M  V30 25 1 21 26
M  V30 26 1 21 27
M  V30 27 1 23 28
M  V30 28 2 24 29
M  V30 29 1 29 30
M  V30 30 1 30 31
M  V30 31 1 30 32
M  V30 32 1 31 33
M  V30 33 1 32 34
M  V30 34 1 33 35
M  V30 35 1 35 36
M  V30 36 1 36 37
M  V30 37 1 36 38
M  V30 38 1 37 39
M  V30 39 1 38 40
M  V30 40 1 39 41
M  V30 41 1 41 42
M  V30 42 1 7 8
M  V30 43 1 16 22
M  V30 44 1 25 29
M  V30 45 1 34 35
M  V30 46 1 40 41
M  V30 END BOND
M  V30 END CTAB
M  END
>  <Molecule Name>
Compound 234

>  <Molecule Name 2>
Compound 234

>  <Compound ID>
67

>  <Name>
TAE684

>  <Uniprot>
Q96QT4

>  <Target>
TRPM7

>  <Smiles>
COC1=CC(N2CCC(N3CCN(C)CC3)CC2)=CC=C1NC1=NC=C(Cl)C(NC2=CC=CC=C2S(=O)(=O)C(C)C)=N1

>  <Kd (nM)>


>  <Assay (Kd)>


>  <Ki (nM)>


>  <Assay (Ki)>


>  <IC50 (nM)>


>  <Assay (IC50)>


>  <EC50 (nM)>


>  <Assay (EC50)>


>  <Article DOI>
10.1016/j.cell.2020.10.038

>  <Molecular Weight>
614.216

>  <Exact Mass>
613.2601868

>  <XLogP3>
5.67

>  <Heavy Atom Count>
42

>  <Ring Count>
5

>  <Hydrogen Bond Acceptor Count>
10

>  <Hydrogen Bond Donor Count>
2

>  <Rotatable Bond Count>
9

>  <Topological Polar Surface Area>
102.93

>  <Molecular Formula>
C30H40ClN7O3S

>  <InChI>
InChI=1S/C30H40ClN7O3S/c1-21(2)42(39,40)28-8-6-5-7-26(28)33-29-24(31)20-32-30(35-29)34-25-10-9-23(19-27(25)41-4)37-13-11-22(12-14-37)38-17-15-36(3)16-18-38/h5-10,19-22H,11-18H2,1-4H3,(H2,32,33,34,35)

>  <InChI Key>
QQWUGDVOUVUTOY-UHFFFAOYSA-N

>  <BindingDB>
50242742

>  <PubChem>
16038120

>  <ChEMBL>
CHEMBL509032

$$$$
67
Actelion Java MolfileCreator 2.0

  0  0  0  0  0  0              0 V3000
M  V30 BEGIN CTAB
M  V30 COUNTS 42 46 0 0 0
M  V30 BEGIN ATOM
M  V30 1 Cl 0.0 3.75 0.0 0
M  V30 2 C 1.299 4.5 0.0 0
M  V30 3 C 2.598 3.75 0.0 0
M  V30 4 C 1.299 6.0 0.0 0
M  V30 5 N 3.8971 4.5 0.0 0
M  V30 6 N 2.598 2.25 0.0 0
M  V30 7 N 2.598 6.75 0.0 0
M  V30 8 C 3.8971 6.0 0.0 0
M  V30 9 C 3.8971 1.5 0.0 0
M  V30 10 N 5.1961 6.75 0.0 0
M  V30 11 C 3.8971 0.0 0.0 0
M  V30 12 C 5.1961 2.25 0.0 0
M  V30 13 C 5.1961 8.25 0.0 0
M  V30 14 S 2.598 -0.75 0.0 0
M  V30 15 C 5.1961 -0.75 0.0 0
M  V30 16 C 6.4951 1.5 0.0 0
M  V30 17 C 6.4951 9.0 0.0 0
M  V30 18 C 3.8971 9.0 0.0 0
M  V30 19 O 1.848 -2.049 0.0 0
M  V30 20 O 3.348 -2.049 0.0 0
M  V30 21 C 1.299 0.0 0.0 0
M  V30 22 C 6.4951 0.0 0.0 0
M  V30 23 O 7.7942 8.25 0.0 0
M  V30 24 C 6.4951 10.5 0.0 0
M  V30 25 C 3.8971 10.5 0.0 0
M  V30 26 C 1.299 1.5 0.0 0
M  V30 27 C 0.0 -0.75 0.0 0
M  V30 28 C 9.0932 9.0 0.0 0
M  V30 29 C 5.1961 11.25 0.0 0
M  V30 30 N 5.1961 12.75 0.0 0
M  V30 31 C 6.4951 13.5 0.0 0
M  V30 32 C 3.8971 13.5 0.0 0
M  V30 33 C 6.4951 15.0 0.0 0
M  V30 34 C 3.8971 15.0 0.0 0
M  V30 35 C 5.1961 15.75 0.0 0
M  V30 36 N 5.1961 17.25 0.0 0
M  V30 37 C 6.4951 18.0 0.0 0
M  V30 38 C 3.8971 18.0 0.0 0
M  V30 39 C 6.4951 19.5 0.0 0
M  V30 40 C 3.8971 19.5 0.0 0
M  V30 41 N 5.1961 20.25 0.0 0
M  V30 42 C 5.1961 21.75 0.0 0
M  V30 END ATOM
M  V30 BEGIN BOND
M  V30 1 1 1 2
M  V30 2 2 2 3
M  V30 3 1 2 4
M  V30 4 1 3 5
M  V30 5 1 3 6
M  V30 6 2 4 7
M  V30 7 2 5 8
M  V30 8 1 6 9
M  V30 9 1 8 10
M  V30 10 2 9 11
M  V30 11 1 9 12
M  V30 12 1 10 13
M  V30 13 1 11 14
M  V30 14 1 11 15
M  V30 15 2 12 16
M  V30 16 2 13 17
M  V30 17 1 13 18
M  V30 18 2 14 19
M  V30 19 2 14 20
M  V30 20 1 14 21
M  V30 21 2 15 22
M  V30 22 1 17 23
M  V30 23 1 17 24
M  V30 24 2 18 25
M  V30 25 1 21 26
M  V30 26 1 21 27
M  V30 27 1 23 28
M  V30 28 2 24 29
M  V30 29 1 29 30
M  V30 30 1 30 31
M  V30 31 1 30 32
M  V30 32 1 31 33
M  V30 33 1 32 34
M  V30 34 1 33 35
M  V30 35 1 35 36
M  V30 36 1 36 37
M  V30 37 1 36 38
M  V30 38 1 37 39
M  V30 39 1 38 40
M  V30 40 1 39 41
M  V30 41 1 41 42
M  V30 42 1 7 8
M  V30 43 1 16 22
M  V30 44 1 25 29
M  V30 45 1 34 35
M  V30 46 1 40 41
M  V30 END BOND
M  V30 END CTAB
M  END
>  <Molecule Name>
Compound 235

>  <Molecule Name 2>
Compound 235

>  <Compound ID>
67

>  <Name>
TAE684

>  <Uniprot>
P33981

>  <Target>
TTK

>  <Smiles>
COC1=CC(N2CCC(N3CCN(C)CC3)CC2)=CC=C1NC1=NC=C(Cl)C(NC2=CC=CC=C2S(=O)(=O)C(C)C)=N1

>  <Kd (nM)>
50

>  <Assay (Kd)>
Kd was assessed by competition binding assays

>  <Ki (nM)>


>  <Assay (Ki)>


>  <IC50 (nM)>


>  <Assay (IC50)>


>  <EC50 (nM)>


>  <Assay (EC50)>


>  <Article DOI>
10.1038/nbt.1990

>  <Molecular Weight>
614.216

>  <Exact Mass>
613.2601868

>  <XLogP3>
5.67

>  <Heavy Atom Count>
42

>  <Ring Count>
5

>  <Hydrogen Bond Acceptor Count>
10

>  <Hydrogen Bond Donor Count>
2

>  <Rotatable Bond Count>
9

>  <Topological Polar Surface Area>
102.93

>  <Molecular Formula>
C30H40ClN7O3S

>  <InChI>
InChI=1S/C30H40ClN7O3S/c1-21(2)42(39,40)28-8-6-5-7-26(28)33-29-24(31)20-32-30(35-29)34-25-10-9-23(19-27(25)41-4)37-13-11-22(12-14-37)38-17-15-36(3)16-18-38/h5-10,19-22H,11-18H2,1-4H3,(H2,32,33,34,35)

>  <InChI Key>
QQWUGDVOUVUTOY-UHFFFAOYSA-N

>  <BindingDB>
50242742

>  <PubChem>
16038120

>  <ChEMBL>
CHEMBL509032

$$$$
67
Actelion Java MolfileCreator 2.0

  0  0  0  0  0  0              0 V3000
M  V30 BEGIN CTAB
M  V30 COUNTS 42 46 0 0 0
M  V30 BEGIN ATOM
M  V30 1 Cl 0.0 3.75 0.0 0
M  V30 2 C 1.299 4.5 0.0 0
M  V30 3 C 2.598 3.75 0.0 0
M  V30 4 C 1.299 6.0 0.0 0
M  V30 5 N 3.8971 4.5 0.0 0
M  V30 6 N 2.598 2.25 0.0 0
M  V30 7 N 2.598 6.75 0.0 0
M  V30 8 C 3.8971 6.0 0.0 0
M  V30 9 C 3.8971 1.5 0.0 0
M  V30 10 N 5.1961 6.75 0.0 0
M  V30 11 C 3.8971 0.0 0.0 0
M  V30 12 C 5.1961 2.25 0.0 0
M  V30 13 C 5.1961 8.25 0.0 0
M  V30 14 S 2.598 -0.75 0.0 0
M  V30 15 C 5.1961 -0.75 0.0 0
M  V30 16 C 6.4951 1.5 0.0 0
M  V30 17 C 6.4951 9.0 0.0 0
M  V30 18 C 3.8971 9.0 0.0 0
M  V30 19 O 1.848 -2.049 0.0 0
M  V30 20 O 3.348 -2.049 0.0 0
M  V30 21 C 1.299 0.0 0.0 0
M  V30 22 C 6.4951 0.0 0.0 0
M  V30 23 O 7.7942 8.25 0.0 0
M  V30 24 C 6.4951 10.5 0.0 0
M  V30 25 C 3.8971 10.5 0.0 0
M  V30 26 C 1.299 1.5 0.0 0
M  V30 27 C 0.0 -0.75 0.0 0
M  V30 28 C 9.0932 9.0 0.0 0
M  V30 29 C 5.1961 11.25 0.0 0
M  V30 30 N 5.1961 12.75 0.0 0
M  V30 31 C 6.4951 13.5 0.0 0
M  V30 32 C 3.8971 13.5 0.0 0
M  V30 33 C 6.4951 15.0 0.0 0
M  V30 34 C 3.8971 15.0 0.0 0
M  V30 35 C 5.1961 15.75 0.0 0
M  V30 36 N 5.1961 17.25 0.0 0
M  V30 37 C 6.4951 18.0 0.0 0
M  V30 38 C 3.8971 18.0 0.0 0
M  V30 39 C 6.4951 19.5 0.0 0
M  V30 40 C 3.8971 19.5 0.0 0
M  V30 41 N 5.1961 20.25 0.0 0
M  V30 42 C 5.1961 21.75 0.0 0
M  V30 END ATOM
M  V30 BEGIN BOND
M  V30 1 1 1 2
M  V30 2 2 2 3
M  V30 3 1 2 4
M  V30 4 1 3 5
M  V30 5 1 3 6
M  V30 6 2 4 7
M  V30 7 2 5 8
M  V30 8 1 6 9
M  V30 9 1 8 10
M  V30 10 2 9 11
M  V30 11 1 9 12
M  V30 12 1 10 13
M  V30 13 1 11 14
M  V30 14 1 11 15
M  V30 15 2 12 16
M  V30 16 2 13 17
M  V30 17 1 13 18
M  V30 18 2 14 19
M  V30 19 2 14 20
M  V30 20 1 14 21
M  V30 21 2 15 22
M  V30 22 1 17 23
M  V30 23 1 17 24
M  V30 24 2 18 25
M  V30 25 1 21 26
M  V30 26 1 21 27
M  V30 27 1 23 28
M  V30 28 2 24 29
M  V30 29 1 29 30
M  V30 30 1 30 31
M  V30 31 1 30 32
M  V30 32 1 31 33
M  V30 33 1 32 34
M  V30 34 1 33 35
M  V30 35 1 35 36
M  V30 36 1 36 37
M  V30 37 1 36 38
M  V30 38 1 37 39
M  V30 39 1 38 40
M  V30 40 1 39 41
M  V30 41 1 41 42
M  V30 42 1 7 8
M  V30 43 1 16 22
M  V30 44 1 25 29
M  V30 45 1 34 35
M  V30 46 1 40 41
M  V30 END BOND
M  V30 END CTAB
M  END
>  <Molecule Name>
Compound 236

>  <Molecule Name 2>
Compound 236

>  <Compound ID>
67

>  <Name>
TAE684

>  <Uniprot>
Q8TAS1

>  <Target>
UHMK1

>  <Smiles>
COC1=CC(N2CCC(N3CCN(C)CC3)CC2)=CC=C1NC1=NC=C(Cl)C(NC2=CC=CC=C2S(=O)(=O)C(C)C)=N1

>  <Kd (nM)>


>  <Assay (Kd)>


>  <Ki (nM)>


>  <Assay (Ki)>


>  <IC50 (nM)>


>  <Assay (IC50)>


>  <EC50 (nM)>


>  <Assay (EC50)>


>  <Article DOI>
10.1016/j.cell.2020.10.038

>  <Molecular Weight>
614.216

>  <Exact Mass>
613.2601868

>  <XLogP3>
5.67

>  <Heavy Atom Count>
42

>  <Ring Count>
5

>  <Hydrogen Bond Acceptor Count>
10

>  <Hydrogen Bond Donor Count>
2

>  <Rotatable Bond Count>
9

>  <Topological Polar Surface Area>
102.93

>  <Molecular Formula>
C30H40ClN7O3S

>  <InChI>
InChI=1S/C30H40ClN7O3S/c1-21(2)42(39,40)28-8-6-5-7-26(28)33-29-24(31)20-32-30(35-29)34-25-10-9-23(19-27(25)41-4)37-13-11-22(12-14-37)38-17-15-36(3)16-18-38/h5-10,19-22H,11-18H2,1-4H3,(H2,32,33,34,35)

>  <InChI Key>
QQWUGDVOUVUTOY-UHFFFAOYSA-N

>  <BindingDB>
50242742

>  <PubChem>
16038120

>  <ChEMBL>
CHEMBL509032

$$$$
67
Actelion Java MolfileCreator 2.0

  0  0  0  0  0  0              0 V3000
M  V30 BEGIN CTAB
M  V30 COUNTS 42 46 0 0 0
M  V30 BEGIN ATOM
M  V30 1 Cl 0.0 3.75 0.0 0
M  V30 2 C 1.299 4.5 0.0 0
M  V30 3 C 2.598 3.75 0.0 0
M  V30 4 C 1.299 6.0 0.0 0
M  V30 5 N 3.8971 4.5 0.0 0
M  V30 6 N 2.598 2.25 0.0 0
M  V30 7 N 2.598 6.75 0.0 0
M  V30 8 C 3.8971 6.0 0.0 0
M  V30 9 C 3.8971 1.5 0.0 0
M  V30 10 N 5.1961 6.75 0.0 0
M  V30 11 C 3.8971 0.0 0.0 0
M  V30 12 C 5.1961 2.25 0.0 0
M  V30 13 C 5.1961 8.25 0.0 0
M  V30 14 S 2.598 -0.75 0.0 0
M  V30 15 C 5.1961 -0.75 0.0 0
M  V30 16 C 6.4951 1.5 0.0 0
M  V30 17 C 6.4951 9.0 0.0 0
M  V30 18 C 3.8971 9.0 0.0 0
M  V30 19 O 1.848 -2.049 0.0 0
M  V30 20 O 3.348 -2.049 0.0 0
M  V30 21 C 1.299 0.0 0.0 0
M  V30 22 C 6.4951 0.0 0.0 0
M  V30 23 O 7.7942 8.25 0.0 0
M  V30 24 C 6.4951 10.5 0.0 0
M  V30 25 C 3.8971 10.5 0.0 0
M  V30 26 C 1.299 1.5 0.0 0
M  V30 27 C 0.0 -0.75 0.0 0
M  V30 28 C 9.0932 9.0 0.0 0
M  V30 29 C 5.1961 11.25 0.0 0
M  V30 30 N 5.1961 12.75 0.0 0
M  V30 31 C 6.4951 13.5 0.0 0
M  V30 32 C 3.8971 13.5 0.0 0
M  V30 33 C 6.4951 15.0 0.0 0
M  V30 34 C 3.8971 15.0 0.0 0
M  V30 35 C 5.1961 15.75 0.0 0
M  V30 36 N 5.1961 17.25 0.0 0
M  V30 37 C 6.4951 18.0 0.0 0
M  V30 38 C 3.8971 18.0 0.0 0
M  V30 39 C 6.4951 19.5 0.0 0
M  V30 40 C 3.8971 19.5 0.0 0
M  V30 41 N 5.1961 20.25 0.0 0
M  V30 42 C 5.1961 21.75 0.0 0
M  V30 END ATOM
M  V30 BEGIN BOND
M  V30 1 1 1 2
M  V30 2 2 2 3
M  V30 3 1 2 4
M  V30 4 1 3 5
M  V30 5 1 3 6
M  V30 6 2 4 7
M  V30 7 2 5 8
M  V30 8 1 6 9
M  V30 9 1 8 10
M  V30 10 2 9 11
M  V30 11 1 9 12
M  V30 12 1 10 13
M  V30 13 1 11 14
M  V30 14 1 11 15
M  V30 15 2 12 16
M  V30 16 2 13 17
M  V30 17 1 13 18
M  V30 18 2 14 19
M  V30 19 2 14 20
M  V30 20 1 14 21
M  V30 21 2 15 22
M  V30 22 1 17 23
M  V30 23 1 17 24
M  V30 24 2 18 25
M  V30 25 1 21 26
M  V30 26 1 21 27
M  V30 27 1 23 28
M  V30 28 2 24 29
M  V30 29 1 29 30
M  V30 30 1 30 31
M  V30 31 1 30 32
M  V30 32 1 31 33
M  V30 33 1 32 34
M  V30 34 1 33 35
M  V30 35 1 35 36
M  V30 36 1 36 37
M  V30 37 1 36 38
M  V30 38 1 37 39
M  V30 39 1 38 40
M  V30 40 1 39 41
M  V30 41 1 41 42
M  V30 42 1 7 8
M  V30 43 1 16 22
M  V30 44 1 25 29
M  V30 45 1 34 35
M  V30 46 1 40 41
M  V30 END BOND
M  V30 END CTAB
M  END
>  <Molecule Name>
Compound 237

>  <Molecule Name 2>
Compound 237

>  <Compound ID>
67

>  <Name>
TAE684

>  <Uniprot>
O75385

>  <Target>
ULK1

>  <Smiles>
COC1=CC(N2CCC(N3CCN(C)CC3)CC2)=CC=C1NC1=NC=C(Cl)C(NC2=CC=CC=C2S(=O)(=O)C(C)C)=N1

>  <Kd (nM)>
0.83

>  <Assay (Kd)>
Kd was assessed by competition binding assays

>  <Ki (nM)>


>  <Assay (Ki)>


>  <IC50 (nM)>


>  <Assay (IC50)>


>  <EC50 (nM)>


>  <Assay (EC50)>


>  <Article DOI>
10.1038/nbt.1990

>  <Molecular Weight>
614.216

>  <Exact Mass>
613.2601868

>  <XLogP3>
5.67

>  <Heavy Atom Count>
42

>  <Ring Count>
5

>  <Hydrogen Bond Acceptor Count>
10

>  <Hydrogen Bond Donor Count>
2

>  <Rotatable Bond Count>
9

>  <Topological Polar Surface Area>
102.93

>  <Molecular Formula>
C30H40ClN7O3S

>  <InChI>
InChI=1S/C30H40ClN7O3S/c1-21(2)42(39,40)28-8-6-5-7-26(28)33-29-24(31)20-32-30(35-29)34-25-10-9-23(19-27(25)41-4)37-13-11-22(12-14-37)38-17-15-36(3)16-18-38/h5-10,19-22H,11-18H2,1-4H3,(H2,32,33,34,35)

>  <InChI Key>
QQWUGDVOUVUTOY-UHFFFAOYSA-N

>  <BindingDB>
50242742

>  <PubChem>
16038120

>  <ChEMBL>
CHEMBL509032

$$$$
67
Actelion Java MolfileCreator 2.0

  0  0  0  0  0  0              0 V3000
M  V30 BEGIN CTAB
M  V30 COUNTS 42 46 0 0 0
M  V30 BEGIN ATOM
M  V30 1 Cl 0.0 3.75 0.0 0
M  V30 2 C 1.299 4.5 0.0 0
M  V30 3 C 2.598 3.75 0.0 0
M  V30 4 C 1.299 6.0 0.0 0
M  V30 5 N 3.8971 4.5 0.0 0
M  V30 6 N 2.598 2.25 0.0 0
M  V30 7 N 2.598 6.75 0.0 0
M  V30 8 C 3.8971 6.0 0.0 0
M  V30 9 C 3.8971 1.5 0.0 0
M  V30 10 N 5.1961 6.75 0.0 0
M  V30 11 C 3.8971 0.0 0.0 0
M  V30 12 C 5.1961 2.25 0.0 0
M  V30 13 C 5.1961 8.25 0.0 0
M  V30 14 S 2.598 -0.75 0.0 0
M  V30 15 C 5.1961 -0.75 0.0 0
M  V30 16 C 6.4951 1.5 0.0 0
M  V30 17 C 6.4951 9.0 0.0 0
M  V30 18 C 3.8971 9.0 0.0 0
M  V30 19 O 1.848 -2.049 0.0 0
M  V30 20 O 3.348 -2.049 0.0 0
M  V30 21 C 1.299 0.0 0.0 0
M  V30 22 C 6.4951 0.0 0.0 0
M  V30 23 O 7.7942 8.25 0.0 0
M  V30 24 C 6.4951 10.5 0.0 0
M  V30 25 C 3.8971 10.5 0.0 0
M  V30 26 C 1.299 1.5 0.0 0
M  V30 27 C 0.0 -0.75 0.0 0
M  V30 28 C 9.0932 9.0 0.0 0
M  V30 29 C 5.1961 11.25 0.0 0
M  V30 30 N 5.1961 12.75 0.0 0
M  V30 31 C 6.4951 13.5 0.0 0
M  V30 32 C 3.8971 13.5 0.0 0
M  V30 33 C 6.4951 15.0 0.0 0
M  V30 34 C 3.8971 15.0 0.0 0
M  V30 35 C 5.1961 15.75 0.0 0
M  V30 36 N 5.1961 17.25 0.0 0
M  V30 37 C 6.4951 18.0 0.0 0
M  V30 38 C 3.8971 18.0 0.0 0
M  V30 39 C 6.4951 19.5 0.0 0
M  V30 40 C 3.8971 19.5 0.0 0
M  V30 41 N 5.1961 20.25 0.0 0
M  V30 42 C 5.1961 21.75 0.0 0
M  V30 END ATOM
M  V30 BEGIN BOND
M  V30 1 1 1 2
M  V30 2 2 2 3
M  V30 3 1 2 4
M  V30 4 1 3 5
M  V30 5 1 3 6
M  V30 6 2 4 7
M  V30 7 2 5 8
M  V30 8 1 6 9
M  V30 9 1 8 10
M  V30 10 2 9 11
M  V30 11 1 9 12
M  V30 12 1 10 13
M  V30 13 1 11 14
M  V30 14 1 11 15
M  V30 15 2 12 16
M  V30 16 2 13 17
M  V30 17 1 13 18
M  V30 18 2 14 19
M  V30 19 2 14 20
M  V30 20 1 14 21
M  V30 21 2 15 22
M  V30 22 1 17 23
M  V30 23 1 17 24
M  V30 24 2 18 25
M  V30 25 1 21 26
M  V30 26 1 21 27
M  V30 27 1 23 28
M  V30 28 2 24 29
M  V30 29 1 29 30
M  V30 30 1 30 31
M  V30 31 1 30 32
M  V30 32 1 31 33
M  V30 33 1 32 34
M  V30 34 1 33 35
M  V30 35 1 35 36
M  V30 36 1 36 37
M  V30 37 1 36 38
M  V30 38 1 37 39
M  V30 39 1 38 40
M  V30 40 1 39 41
M  V30 41 1 41 42
M  V30 42 1 7 8
M  V30 43 1 16 22
M  V30 44 1 25 29
M  V30 45 1 34 35
M  V30 46 1 40 41
M  V30 END BOND
M  V30 END CTAB
M  END
>  <Molecule Name>
Compound 238

>  <Molecule Name 2>
Compound 238

>  <Compound ID>
67

>  <Name>
TAE684

>  <Uniprot>
Q6PHR2

>  <Target>
ULK3

>  <Smiles>
COC1=CC(N2CCC(N3CCN(C)CC3)CC2)=CC=C1NC1=NC=C(Cl)C(NC2=CC=CC=C2S(=O)(=O)C(C)C)=N1

>  <Kd (nM)>
11

>  <Assay (Kd)>
Kd was assessed by competition binding assays

>  <Ki (nM)>


>  <Assay (Ki)>


>  <IC50 (nM)>


>  <Assay (IC50)>


>  <EC50 (nM)>


>  <Assay (EC50)>


>  <Article DOI>
10.1038/nbt.1990

>  <Molecular Weight>
614.216

>  <Exact Mass>
613.2601868

>  <XLogP3>
5.67

>  <Heavy Atom Count>
42

>  <Ring Count>
5

>  <Hydrogen Bond Acceptor Count>
10

>  <Hydrogen Bond Donor Count>
2

>  <Rotatable Bond Count>
9

>  <Topological Polar Surface Area>
102.93

>  <Molecular Formula>
C30H40ClN7O3S

>  <InChI>
InChI=1S/C30H40ClN7O3S/c1-21(2)42(39,40)28-8-6-5-7-26(28)33-29-24(31)20-32-30(35-29)34-25-10-9-23(19-27(25)41-4)37-13-11-22(12-14-37)38-17-15-36(3)16-18-38/h5-10,19-22H,11-18H2,1-4H3,(H2,32,33,34,35)

>  <InChI Key>
QQWUGDVOUVUTOY-UHFFFAOYSA-N

>  <BindingDB>
50242742

>  <PubChem>
16038120

>  <ChEMBL>
CHEMBL509032

$$$$
67
Actelion Java MolfileCreator 2.0

  0  0  0  0  0  0              0 V3000
M  V30 BEGIN CTAB
M  V30 COUNTS 42 46 0 0 0
M  V30 BEGIN ATOM
M  V30 1 Cl 0.0 3.75 0.0 0
M  V30 2 C 1.299 4.5 0.0 0
M  V30 3 C 2.598 3.75 0.0 0
M  V30 4 C 1.299 6.0 0.0 0
M  V30 5 N 3.8971 4.5 0.0 0
M  V30 6 N 2.598 2.25 0.0 0
M  V30 7 N 2.598 6.75 0.0 0
M  V30 8 C 3.8971 6.0 0.0 0
M  V30 9 C 3.8971 1.5 0.0 0
M  V30 10 N 5.1961 6.75 0.0 0
M  V30 11 C 3.8971 0.0 0.0 0
M  V30 12 C 5.1961 2.25 0.0 0
M  V30 13 C 5.1961 8.25 0.0 0
M  V30 14 S 2.598 -0.75 0.0 0
M  V30 15 C 5.1961 -0.75 0.0 0
M  V30 16 C 6.4951 1.5 0.0 0
M  V30 17 C 6.4951 9.0 0.0 0
M  V30 18 C 3.8971 9.0 0.0 0
M  V30 19 O 1.848 -2.049 0.0 0
M  V30 20 O 3.348 -2.049 0.0 0
M  V30 21 C 1.299 0.0 0.0 0
M  V30 22 C 6.4951 0.0 0.0 0
M  V30 23 O 7.7942 8.25 0.0 0
M  V30 24 C 6.4951 10.5 0.0 0
M  V30 25 C 3.8971 10.5 0.0 0
M  V30 26 C 1.299 1.5 0.0 0
M  V30 27 C 0.0 -0.75 0.0 0
M  V30 28 C 9.0932 9.0 0.0 0
M  V30 29 C 5.1961 11.25 0.0 0
M  V30 30 N 5.1961 12.75 0.0 0
M  V30 31 C 6.4951 13.5 0.0 0
M  V30 32 C 3.8971 13.5 0.0 0
M  V30 33 C 6.4951 15.0 0.0 0
M  V30 34 C 3.8971 15.0 0.0 0
M  V30 35 C 5.1961 15.75 0.0 0
M  V30 36 N 5.1961 17.25 0.0 0
M  V30 37 C 6.4951 18.0 0.0 0
M  V30 38 C 3.8971 18.0 0.0 0
M  V30 39 C 6.4951 19.5 0.0 0
M  V30 40 C 3.8971 19.5 0.0 0
M  V30 41 N 5.1961 20.25 0.0 0
M  V30 42 C 5.1961 21.75 0.0 0
M  V30 END ATOM
M  V30 BEGIN BOND
M  V30 1 1 1 2
M  V30 2 2 2 3
M  V30 3 1 2 4
M  V30 4 1 3 5
M  V30 5 1 3 6
M  V30 6 2 4 7
M  V30 7 2 5 8
M  V30 8 1 6 9
M  V30 9 1 8 10
M  V30 10 2 9 11
M  V30 11 1 9 12
M  V30 12 1 10 13
M  V30 13 1 11 14
M  V30 14 1 11 15
M  V30 15 2 12 16
M  V30 16 2 13 17
M  V30 17 1 13 18
M  V30 18 2 14 19
M  V30 19 2 14 20
M  V30 20 1 14 21
M  V30 21 2 15 22
M  V30 22 1 17 23
M  V30 23 1 17 24
M  V30 24 2 18 25
M  V30 25 1 21 26
M  V30 26 1 21 27
M  V30 27 1 23 28
M  V30 28 2 24 29
M  V30 29 1 29 30
M  V30 30 1 30 31
M  V30 31 1 30 32
M  V30 32 1 31 33
M  V30 33 1 32 34
M  V30 34 1 33 35
M  V30 35 1 35 36
M  V30 36 1 36 37
M  V30 37 1 36 38
M  V30 38 1 37 39
M  V30 39 1 38 40
M  V30 40 1 39 41
M  V30 41 1 41 42
M  V30 42 1 7 8
M  V30 43 1 16 22
M  V30 44 1 25 29
M  V30 45 1 34 35
M  V30 46 1 40 41
M  V30 END BOND
M  V30 END CTAB
M  END
>  <Molecule Name>
Compound 239

>  <Molecule Name 2>
Compound 239

>  <Compound ID>
67

>  <Name>
TAE684

>  <Uniprot>
P30291

>  <Target>
Wee1

>  <Smiles>
COC1=CC(N2CCC(N3CCN(C)CC3)CC2)=CC=C1NC1=NC=C(Cl)C(NC2=CC=CC=C2S(=O)(=O)C(C)C)=N1

>  <Kd (nM)>
3000

>  <Assay (Kd)>
Kd was assessed by competition binding assays

>  <Ki (nM)>


>  <Assay (Ki)>


>  <IC50 (nM)>


>  <Assay (IC50)>


>  <EC50 (nM)>


>  <Assay (EC50)>


>  <Article DOI>
10.1038/nbt.1990

>  <Molecular Weight>
614.216

>  <Exact Mass>
613.2601868

>  <XLogP3>
5.67

>  <Heavy Atom Count>
42

>  <Ring Count>
5

>  <Hydrogen Bond Acceptor Count>
10

>  <Hydrogen Bond Donor Count>
2

>  <Rotatable Bond Count>
9

>  <Topological Polar Surface Area>
102.93

>  <Molecular Formula>
C30H40ClN7O3S

>  <InChI>
InChI=1S/C30H40ClN7O3S/c1-21(2)42(39,40)28-8-6-5-7-26(28)33-29-24(31)20-32-30(35-29)34-25-10-9-23(19-27(25)41-4)37-13-11-22(12-14-37)38-17-15-36(3)16-18-38/h5-10,19-22H,11-18H2,1-4H3,(H2,32,33,34,35)

>  <InChI Key>
QQWUGDVOUVUTOY-UHFFFAOYSA-N

>  <BindingDB>
50242742

>  <PubChem>
16038120

>  <ChEMBL>
CHEMBL509032

$$$$
67
Actelion Java MolfileCreator 2.0

  0  0  0  0  0  0              0 V3000
M  V30 BEGIN CTAB
M  V30 COUNTS 42 46 0 0 0
M  V30 BEGIN ATOM
M  V30 1 Cl 0.0 3.75 0.0 0
M  V30 2 C 1.299 4.5 0.0 0
M  V30 3 C 2.598 3.75 0.0 0
M  V30 4 C 1.299 6.0 0.0 0
M  V30 5 N 3.8971 4.5 0.0 0
M  V30 6 N 2.598 2.25 0.0 0
M  V30 7 N 2.598 6.75 0.0 0
M  V30 8 C 3.8971 6.0 0.0 0
M  V30 9 C 3.8971 1.5 0.0 0
M  V30 10 N 5.1961 6.75 0.0 0
M  V30 11 C 3.8971 0.0 0.0 0
M  V30 12 C 5.1961 2.25 0.0 0
M  V30 13 C 5.1961 8.25 0.0 0
M  V30 14 S 2.598 -0.75 0.0 0
M  V30 15 C 5.1961 -0.75 0.0 0
M  V30 16 C 6.4951 1.5 0.0 0
M  V30 17 C 6.4951 9.0 0.0 0
M  V30 18 C 3.8971 9.0 0.0 0
M  V30 19 O 1.848 -2.049 0.0 0
M  V30 20 O 3.348 -2.049 0.0 0
M  V30 21 C 1.299 0.0 0.0 0
M  V30 22 C 6.4951 0.0 0.0 0
M  V30 23 O 7.7942 8.25 0.0 0
M  V30 24 C 6.4951 10.5 0.0 0
M  V30 25 C 3.8971 10.5 0.0 0
M  V30 26 C 1.299 1.5 0.0 0
M  V30 27 C 0.0 -0.75 0.0 0
M  V30 28 C 9.0932 9.0 0.0 0
M  V30 29 C 5.1961 11.25 0.0 0
M  V30 30 N 5.1961 12.75 0.0 0
M  V30 31 C 6.4951 13.5 0.0 0
M  V30 32 C 3.8971 13.5 0.0 0
M  V30 33 C 6.4951 15.0 0.0 0
M  V30 34 C 3.8971 15.0 0.0 0
M  V30 35 C 5.1961 15.75 0.0 0
M  V30 36 N 5.1961 17.25 0.0 0
M  V30 37 C 6.4951 18.0 0.0 0
M  V30 38 C 3.8971 18.0 0.0 0
M  V30 39 C 6.4951 19.5 0.0 0
M  V30 40 C 3.8971 19.5 0.0 0
M  V30 41 N 5.1961 20.25 0.0 0
M  V30 42 C 5.1961 21.75 0.0 0
M  V30 END ATOM
M  V30 BEGIN BOND
M  V30 1 1 1 2
M  V30 2 2 2 3
M  V30 3 1 2 4
M  V30 4 1 3 5
M  V30 5 1 3 6
M  V30 6 2 4 7
M  V30 7 2 5 8
M  V30 8 1 6 9
M  V30 9 1 8 10
M  V30 10 2 9 11
M  V30 11 1 9 12
M  V30 12 1 10 13
M  V30 13 1 11 14
M  V30 14 1 11 15
M  V30 15 2 12 16
M  V30 16 2 13 17
M  V30 17 1 13 18
M  V30 18 2 14 19
M  V30 19 2 14 20
M  V30 20 1 14 21
M  V30 21 2 15 22
M  V30 22 1 17 23
M  V30 23 1 17 24
M  V30 24 2 18 25
M  V30 25 1 21 26
M  V30 26 1 21 27
M  V30 27 1 23 28
M  V30 28 2 24 29
M  V30 29 1 29 30
M  V30 30 1 30 31
M  V30 31 1 30 32
M  V30 32 1 31 33
M  V30 33 1 32 34
M  V30 34 1 33 35
M  V30 35 1 35 36
M  V30 36 1 36 37
M  V30 37 1 36 38
M  V30 38 1 37 39
M  V30 39 1 38 40
M  V30 40 1 39 41
M  V30 41 1 41 42
M  V30 42 1 7 8
M  V30 43 1 16 22
M  V30 44 1 25 29
M  V30 45 1 34 35
M  V30 46 1 40 41
M  V30 END BOND
M  V30 END CTAB
M  END
>  <Molecule Name>
Compound 240

>  <Molecule Name 2>
Compound 240

>  <Compound ID>
67

>  <Name>
TAE684

>  <Uniprot>
P07947

>  <Target>
YES1

>  <Smiles>
COC1=CC(N2CCC(N3CCN(C)CC3)CC2)=CC=C1NC1=NC=C(Cl)C(NC2=CC=CC=C2S(=O)(=O)C(C)C)=N1

>  <Kd (nM)>


>  <Assay (Kd)>


>  <Ki (nM)>


>  <Assay (Ki)>


>  <IC50 (nM)>


>  <Assay (IC50)>


>  <EC50 (nM)>


>  <Assay (EC50)>


>  <Article DOI>
10.1016/j.cell.2020.10.038

>  <Molecular Weight>
614.216

>  <Exact Mass>
613.2601868

>  <XLogP3>
5.67

>  <Heavy Atom Count>
42

>  <Ring Count>
5

>  <Hydrogen Bond Acceptor Count>
10

>  <Hydrogen Bond Donor Count>
2

>  <Rotatable Bond Count>
9

>  <Topological Polar Surface Area>
102.93

>  <Molecular Formula>
C30H40ClN7O3S

>  <InChI>
InChI=1S/C30H40ClN7O3S/c1-21(2)42(39,40)28-8-6-5-7-26(28)33-29-24(31)20-32-30(35-29)34-25-10-9-23(19-27(25)41-4)37-13-11-22(12-14-37)38-17-15-36(3)16-18-38/h5-10,19-22H,11-18H2,1-4H3,(H2,32,33,34,35)

>  <InChI Key>
QQWUGDVOUVUTOY-UHFFFAOYSA-N

>  <BindingDB>
50242742

>  <PubChem>
16038120

>  <ChEMBL>
CHEMBL509032

$$$$
68
Actelion Java MolfileCreator 2.0

  0  0  0  0  0  0              0 V3000
M  V30 BEGIN CTAB
M  V30 COUNTS 49 53 0 0 0
M  V30 BEGIN ATOM
M  V30 1 Cl 4.8231 -11.6784 0.0 0
M  V30 2 C 5.706 -10.4632 0.0 0
M  V30 3 C 7.1999 -10.6202 0.0 0
M  V30 4 C 5.0951 -9.091 0.0 0
M  V30 5 C 8.0827 -9.405 0.0 0
M  V30 6 C 5.978 -7.8758 0.0 0
M  V30 7 C 7.4718 -8.0328 0.0 0
M  V30 8 C 8.3547 -6.8176 0.0 0 CFG=2
M  V30 9 N 9.8568 -6.8176 0.0 0
M  V30 10 C 7.8905 -5.389 0.0 0 CFG=2
M  V30 11 C 9.0366 -8.1559 0.0 0
M  V30 12 C 10.3209 -5.389 0.0 0
M  V30 13 N 9.1057 -4.5061 0.0 0
M  V30 14 C 6.462 -4.9249 0.0 0
M  V30 15 C 6.8284 -6.4511 0.0 0
M  V30 16 C 11.7495 -4.9249 0.0 0
M  V30 17 C 9.1057 -3.0041 0.0 0
M  V30 18 C 6.1224 -3.4904 0.0 0
M  V30 19 C 5.3457 -5.9299 0.0 0
M  V30 20 C 12.8657 -5.9299 0.0 0
M  V30 21 C 12.0618 -3.4556 0.0 0
M  V30 22 O 10.4065 -2.253 0.0 0
M  V30 23 N 7.8049 -2.253 0.0 0
M  V30 24 C 4.7211 -2.9915 0.0 0
M  V30 25 C 3.9172 -5.4658 0.0 0
M  V30 26 O 12.5534 -7.3992 0.0 0
M  V30 27 C 14.2943 -5.4658 0.0 0
M  V30 28 C 13.4903 -2.9915 0.0 0
M  V30 29 C 7.8049 -0.751 0.0 0
M  V30 30 C 6.5587 -2.9344 0.0 0
M  V30 31 C 3.6049 -3.9965 0.0 0
M  V30 32 C 11.1249 -7.8633 0.0 0
M  V30 33 C 14.6066 -3.9965 0.0 0
M  V30 34 C 6.5041 0.0 0.0 0
M  V30 35 C 5.2032 -2.253 0.0 0
M  V30 36 Cl 2.1763 -3.5324 0.0 0
M  V30 37 C 10.8126 -9.3326 0.0 0
M  V30 38 C 16.0351 -3.5324 0.0 0
M  V30 39 N 5.2032 -0.751 0.0 0
M  V30 40 C 15.5709 -2.1038 0.0 0
M  V30 41 C 17.4637 -3.0682 0.0 0
M  V30 42 C 16.4993 -4.9609 0.0 0
M  V30 43 C 3.9024 0.0 0.0 0
M  V30 44 C 2.6016 -0.751 0.0 0
M  V30 45 C 1.3008 0.0 0.0 0
M  V30 46 S 0.0 -0.751 0.0 0
M  V30 47 O -0.751 0.5497 0.0 0
M  V30 48 O 0.751 -2.0518 0.0 0
M  V30 49 C -1.3008 -1.502 0.0 0
M  V30 END ATOM
M  V30 BEGIN BOND
M  V30 1 1 1 2
M  V30 2 2 2 3
M  V30 3 1 2 4
M  V30 4 1 3 5
M  V30 5 2 4 6
M  V30 6 2 5 7
M  V30 7 1 8 7
M  V30 8 1 8 9
M  V30 9 1 10 8
M  V30 10 1 8 11 CFG=3
M  V30 11 2 9 12
M  V30 12 1 10 13
M  V30 13 1 10 14
M  V30 14 1 10 15 CFG=3
M  V30 15 1 12 16
M  V30 16 1 13 17
M  V30 17 2 14 18
M  V30 18 1 14 19
M  V30 19 2 16 20
M  V30 20 1 16 21
M  V30 21 2 17 22
M  V30 22 1 17 23
M  V30 23 1 18 24
M  V30 24 2 19 25
M  V30 25 1 20 26
M  V30 26 1 20 27
M  V30 27 2 21 28
M  V30 28 1 23 29
M  V30 29 1 23 30
M  V30 30 2 24 31
M  V30 31 1 26 32
M  V30 32 2 27 33
M  V30 33 1 29 34
M  V30 34 1 30 35
M  V30 35 1 31 36
M  V30 36 1 32 37
M  V30 37 1 33 38
M  V30 38 1 34 39
M  V30 39 1 38 40
M  V30 40 1 38 41
M  V30 41 1 38 42
M  V30 42 1 39 43
M  V30 43 1 43 44
M  V30 44 1 44 45
M  V30 45 1 45 46
M  V30 46 2 46 47
M  V30 47 2 46 48
M  V30 48 1 46 49
M  V30 49 1 6 7
M  V30 50 1 12 13
M  V30 51 1 25 31
M  V30 52 1 28 33
M  V30 53 1 35 39
M  V30 END BOND
M  V30 BEGIN COLLECTION
M  V30 MDLV30/STEABS ATOMS=(2 8 10)
M  V30 END COLLECTION
M  V30 END CTAB
M  END
>  <Molecule Name>
Compound 241

>  <Molecule Name 2>
Compound 241

>  <Compound ID>
68

>  <Name>
RG7112

>  <Uniprot>
Q00987

>  <Target>
MDM2

>  <Smiles>
CCOC1=CC(C(C)(C)C)=CC=C1C1=N[C@@](C)(C2=CC=C(Cl)C=C2)[C@@](C)(C2=CC=C(Cl)C=C2)N1C(=O)N1CCN(CCCS(C)(=O)=O)CC1

>  <Kd (nM)>
2.9

>  <Assay (Kd)>
SPR

>  <Ki (nM)>


>  <Assay (Ki)>


>  <IC50 (nM)>


>  <Assay (IC50)>


>  <EC50 (nM)>


>  <Assay (EC50)>


>  <Article DOI>
10.1021/jm401753e

>  <Molecular Weight>
727.799

>  <Exact Mass>
726.2773324

>  <XLogP3>
7.27

>  <Heavy Atom Count>
49

>  <Ring Count>
5

>  <Hydrogen Bond Acceptor Count>
6

>  <Hydrogen Bond Donor Count>
0

>  <Rotatable Bond Count>
9

>  <Topological Polar Surface Area>
82.52

>  <Molecular Formula>
C38H48Cl2N4O4S

>  <InChI>
InChI=1S/C38H48Cl2N4O4S/c1-8-48-33-26-29(36(2,3)4)14-19-32(33)34-41-37(5,27-10-15-30(39)16-11-27)38(6,28-12-17-31(40)18-13-28)44(34)35(45)43-23-21-42(22-24-43)20-9-25-49(7,46)47/h10-19,26H,8-9,20-25H2,1-7H3/t37-,38+/m0/s1

>  <InChI Key>
QBGKPEROWUKSBK-QPPIDDCLSA-N

>  <BindingDB>
50434287

>  <PubChem>
57406853

>  <ChEMBL>
CHEMBL2386346

$$$$
69
Actelion Java MolfileCreator 2.0

  0  0  0  0  0  0              0 V3000
M  V30 BEGIN CTAB
M  V30 COUNTS 42 47 0 0 0
M  V30 BEGIN ATOM
M  V30 1 F 6.4951 -3.0 0.0 0
M  V30 2 C 5.1961 -2.2499 0.0 0
M  V30 3 C 5.1961 -0.75 0.0 0
M  V30 4 C 3.8971 -2.9999 0.0 0
M  V30 5 C 3.8971 0.0 0.0 0
M  V30 6 C 2.598 -2.25 0.0 0
M  V30 7 C 2.598 -0.75 0.0 0
M  V30 8 N 1.299 0.0 0.0 0
M  V30 9 C 0.0 -0.75 0.0 0
M  V30 10 N -1.299 0.0 0.0 0
M  V30 11 N 0.0 -2.2499 0.0 0
M  V30 12 C -2.598 -0.7499 0.0 0
M  V30 13 C -1.299 -2.9999 0.0 0
M  V30 14 N -3.8971 0.0 0.0 0
M  V30 15 C -2.598 -2.2499 0.0 0
M  V30 16 C -1.299 -4.4999 0.0 0
M  V30 17 C -3.8971 1.5 0.0 0
M  V30 18 C -5.1961 -0.7499 0.0 0
M  V30 19 C -3.8971 -2.9999 0.0 0
M  V30 20 N -2.598 -5.2499 0.0 0
M  V30 21 C -5.1961 2.25 0.0 0
M  V30 22 C -6.4951 0.0 0.0 0
M  V30 23 C -3.8971 -4.4999 0.0 0
M  V30 24 C -6.4951 1.5 0.0 0
M  V30 25 N -5.1961 -5.2499 0.0 0
M  V30 26 C -7.7942 2.25 0.0 0
M  V30 27 C -5.1961 -6.7499 0.0 0
M  V30 28 O -9.0932 1.5 0.0 0
M  V30 29 N -6.4951 -7.4999 0.0 0
M  V30 30 C -3.8971 -7.4999 0.0 0
M  V30 31 C -6.4951 -8.9999 0.0 0
M  V30 32 C -3.8971 -8.9999 0.0 0
M  V30 33 C -5.1961 -9.7499 0.0 0
M  V30 34 N -5.1961 -11.2499 0.0 0
M  V30 35 C -6.4951 -11.9999 0.0 0
M  V30 36 C -3.8971 -11.9999 0.0 0
M  V30 37 C -6.4951 -13.4999 0.0 0
M  V30 38 C -3.8971 -13.4999 0.0 0
M  V30 39 C -5.1961 -14.2499 0.0 0
M  V30 40 N -5.1961 -15.7499 0.0 0
M  V30 41 C -6.4951 -16.4999 0.0 0
M  V30 42 C -3.8971 -16.4999 0.0 0
M  V30 END ATOM
M  V30 BEGIN BOND
M  V30 1 1 1 2
M  V30 2 2 2 3
M  V30 3 1 2 4
M  V30 4 1 3 5
M  V30 5 2 4 6
M  V30 6 2 5 7
M  V30 7 1 7 8
M  V30 8 1 8 9
M  V30 9 1 9 10
M  V30 10 2 9 11
M  V30 11 2 10 12
M  V30 12 1 11 13
M  V30 13 1 12 14
M  V30 14 1 12 15
M  V30 15 2 13 16
M  V30 16 1 14 17
M  V30 17 1 14 18
M  V30 18 2 15 19
M  V30 19 1 16 20
M  V30 20 1 17 21
M  V30 21 1 18 22
M  V30 22 1 19 23
M  V30 23 1 21 24
M  V30 24 1 23 25
M  V30 25 1 24 26
M  V30 26 1 25 27
M  V30 27 1 26 28
M  V30 28 2 27 29
M  V30 29 1 27 30
M  V30 30 1 29 31
M  V30 31 2 30 32
M  V30 32 2 31 33
M  V30 33 1 33 34
M  V30 34 1 34 35
M  V30 35 1 34 36
M  V30 36 1 35 37
M  V30 37 1 36 38
M  V30 38 1 37 39
M  V30 39 1 39 40
M  V30 40 1 40 41
M  V30 41 1 40 42
M  V30 42 1 6 7
M  V30 43 1 13 15
M  V30 44 2 20 23
M  V30 45 1 22 24
M  V30 46 1 32 33
M  V30 47 1 38 39
M  V30 END BOND
M  V30 END CTAB
M  END
>  <Molecule Name>
Compound 242

>  <Molecule Name 2>
Compound 242

>  <Compound ID>
69

>  <Name>
B30

>  <Uniprot>
P00533

>  <Target>
EGFR

>  <Smiles>
CN(C)C1CCN(C2=CC=C(NC3=CC4=C(N5CCC(CO)CC5)N=C(NC5=CC=C(F)C=C5)N=C4C=N3)N=C2)CC1

>  <Kd (nM)>


>  <Assay (Kd)>


>  <Ki (nM)>


>  <Assay (Ki)>


>  <IC50 (nM)>
10.4/1.1/7.2/34

>  <Assay (IC50)>
IC50 of EGFR WT/L858R(L858R/T790M/C797S)/(L858R/T790M) was assessed by Kinase-Glo Plus luminescence kinase assay kit

>  <EC50 (nM)>


>  <Assay (EC50)>


>  <Article DOI>
10.1016/j.ejmech.2018.02.051

>  <Molecular Weight>
571.705

>  <Exact Mass>
571.3183351

>  <XLogP3>
4.82

>  <Heavy Atom Count>
42

>  <Ring Count>
6

>  <Hydrogen Bond Acceptor Count>
10

>  <Hydrogen Bond Donor Count>
3

>  <Rotatable Bond Count>
8

>  <Topological Polar Surface Area>
105.57

>  <Molecular Formula>
C31H38FN9O

>  <InChI>
InChI=1S/C31H38FN9O/c1-39(2)24-11-15-40(16-12-24)25-7-8-28(33-18-25)37-29-17-26-27(19-34-29)36-31(35-23-5-3-22(32)4-6-23)38-30(26)41-13-9-21(20-42)10-14-41/h3-8,17-19,21,24,42H,9-16,20H2,1-2H3,(H,33,34,37)(H,35,36,38)

>  <InChI Key>
DXOUQSZKEPSXBC-UHFFFAOYSA-N

>  <BindingDB>
50458062

>  <PubChem>
134817166

>  <ChEMBL>
CHEMBL4209019

$$$$
70
Actelion Java MolfileCreator 2.0

  0  0  0  0  0  0              0 V3000
M  V30 BEGIN CTAB
M  V30 COUNTS 39 43 0 0 0
M  V30 BEGIN ATOM
M  V30 1 O 7.7942 2.25 0.0 0
M  V30 2 C 9.0932 1.5 0.0 0
M  V30 3 N 9.0932 0.0 0.0 0
M  V30 4 C 10.3923 2.2499 0.0 0
M  V30 5 C 10.3923 -0.75 0.0 0
M  V30 6 C 7.7942 -0.75 0.0 0
M  V30 7 C 11.6913 1.4999 0.0 0
M  V30 8 N 10.3923 -2.25 0.0 0
M  V30 9 C 11.6913 0.0 0.0 0
M  V30 10 C 6.4951 0.0 0.0 0
M  V30 11 C 7.7942 -2.2499 0.0 0
M  V30 12 C 12.9903 2.2499 0.0 0
M  V30 13 C 11.6913 -3.0 0.0 0
M  V30 14 C 12.9903 -0.75 0.0 0
M  V30 15 C 5.1961 -0.75 0.0 0
M  V30 16 C 6.4951 -3.0 0.0 0
M  V30 17 N 12.9903 -2.25 0.0 0
M  V30 18 N 11.6913 -4.5 0.0 0
M  V30 19 N 3.8971 0.0 0.0 0
M  V30 20 C 5.1961 -2.2499 0.0 0
M  V30 21 C 12.9903 -5.25 0.0 0
M  V30 22 C 2.598 -0.75 0.0 0
M  V30 23 C 12.9903 -6.75 0.0 0
M  V30 24 C 14.2894 -4.5 0.0 0
M  V30 25 O 2.598 -2.25 0.0 0
M  V30 26 C 1.299 0.0 0.0 0
M  V30 27 O 11.6913 -7.5 0.0 0
M  V30 28 C 14.2894 -7.5 0.0 0
M  V30 29 C 15.5884 -5.25 0.0 0
M  V30 30 C 0.0 -0.75 0.0 0
M  V30 31 C 11.6913 -9.0 0.0 0
M  V30 32 C 15.5884 -6.75 0.0 0
M  V30 33 N 16.8874 -7.5 0.0 0
M  V30 34 C 16.8874 -9.0 0.0 0
M  V30 35 C 18.1865 -6.75 0.0 0
M  V30 36 C 18.1865 -9.75 0.0 0
M  V30 37 C 19.4855 -7.5 0.0 0
M  V30 38 N 19.4855 -9.0 0.0 0
M  V30 39 C 20.7846 -9.75 0.0 0
M  V30 END ATOM
M  V30 BEGIN BOND
M  V30 1 2 1 2
M  V30 2 1 2 3
M  V30 3 1 2 4
M  V30 4 1 3 5
M  V30 5 1 3 6
M  V30 6 2 4 7
M  V30 7 2 5 8
M  V30 8 1 5 9
M  V30 9 2 6 10
M  V30 10 1 6 11
M  V30 11 1 7 12
M  V30 12 1 8 13
M  V30 13 2 9 14
M  V30 14 1 10 15
M  V30 15 2 11 16
M  V30 16 2 13 17
M  V30 17 1 13 18
M  V30 18 1 15 19
M  V30 19 2 15 20
M  V30 20 1 18 21
M  V30 21 1 19 22
M  V30 22 2 21 23
M  V30 23 1 21 24
M  V30 24 2 22 25
M  V30 25 1 22 26
M  V30 26 1 23 27
M  V30 27 1 23 28
M  V30 28 2 24 29
M  V30 29 2 26 30
M  V30 30 1 27 31
M  V30 31 2 28 32
M  V30 32 1 32 33
M  V30 33 1 33 34
M  V30 34 1 33 35
M  V30 35 1 34 36
M  V30 36 1 35 37
M  V30 37 1 36 38
M  V30 38 1 38 39
M  V30 39 1 7 9
M  V30 40 1 14 17
M  V30 41 1 16 20
M  V30 42 1 29 32
M  V30 43 1 37 38
M  V30 END BOND
M  V30 END CTAB
M  END
>  <Molecule Name>
Compound 243

>  <Molecule Name 2>
Compound 243

>  <Compound ID>
70

>  <Name>
XTF-262

>  <Uniprot>
P00533

>  <Target>
EGFR L858R/T790M

>  <Smiles>
C=CC(=O)NC1=CC=CC(N2C(=O)C=C(C)C3=CN=C(NC4=CC=C(N5CCN(C)CC5)C=C4OC)N=C32)=C1

>  <Kd (nM)>
0.26

>  <Assay (Kd)>
Kd was assessed by DiscoveRx

>  <Ki (nM)>


>  <Assay (Ki)>


>  <IC50 (nM)>
0.8

>  <Assay (IC50)>
IC50 was assessed by ELISA

>  <EC50 (nM)>


>  <Assay (EC50)>


>  <Article DOI>
10.1039/C5MD00208G

>  <Molecular Weight>
525.613

>  <Exact Mass>
525.2488379

>  <XLogP3>
3.15

>  <Heavy Atom Count>
39

>  <Ring Count>
5

>  <Hydrogen Bond Acceptor Count>
9

>  <Hydrogen Bond Donor Count>
2

>  <Rotatable Bond Count>
7

>  <Topological Polar Surface Area>
104.62

>  <Molecular Formula>
C29H31N7O3

>  <InChI>
InChI=1S/C29H31N7O3/c1-5-26(37)31-20-7-6-8-22(16-20)36-27(38)15-19(2)23-18-30-29(33-28(23)36)32-24-10-9-21(17-25(24)39-4)35-13-11-34(3)12-14-35/h5-10,15-18H,1,11-14H2,2-4H3,(H,31,37)(H,30,32,33)

>  <InChI Key>
VJQPNQROUWVJQN-UHFFFAOYSA-N

>  <BindingDB>
50131841

>  <PubChem>
72201501

>  <ChEMBL>
CHEMBL3633143

$$$$
70
Actelion Java MolfileCreator 2.0

  0  0  0  0  0  0              0 V3000
M  V30 BEGIN CTAB
M  V30 COUNTS 39 43 0 0 0
M  V30 BEGIN ATOM
M  V30 1 O 7.7942 2.25 0.0 0
M  V30 2 C 9.0932 1.5 0.0 0
M  V30 3 N 9.0932 0.0 0.0 0
M  V30 4 C 10.3923 2.2499 0.0 0
M  V30 5 C 10.3923 -0.75 0.0 0
M  V30 6 C 7.7942 -0.75 0.0 0
M  V30 7 C 11.6913 1.4999 0.0 0
M  V30 8 N 10.3923 -2.25 0.0 0
M  V30 9 C 11.6913 0.0 0.0 0
M  V30 10 C 6.4951 0.0 0.0 0
M  V30 11 C 7.7942 -2.2499 0.0 0
M  V30 12 C 12.9903 2.2499 0.0 0
M  V30 13 C 11.6913 -3.0 0.0 0
M  V30 14 C 12.9903 -0.75 0.0 0
M  V30 15 C 5.1961 -0.75 0.0 0
M  V30 16 C 6.4951 -3.0 0.0 0
M  V30 17 N 12.9903 -2.25 0.0 0
M  V30 18 N 11.6913 -4.5 0.0 0
M  V30 19 N 3.8971 0.0 0.0 0
M  V30 20 C 5.1961 -2.2499 0.0 0
M  V30 21 C 12.9903 -5.25 0.0 0
M  V30 22 C 2.598 -0.75 0.0 0
M  V30 23 C 12.9903 -6.75 0.0 0
M  V30 24 C 14.2894 -4.5 0.0 0
M  V30 25 O 2.598 -2.25 0.0 0
M  V30 26 C 1.299 0.0 0.0 0
M  V30 27 O 11.6913 -7.5 0.0 0
M  V30 28 C 14.2894 -7.5 0.0 0
M  V30 29 C 15.5884 -5.25 0.0 0
M  V30 30 C 0.0 -0.75 0.0 0
M  V30 31 C 11.6913 -9.0 0.0 0
M  V30 32 C 15.5884 -6.75 0.0 0
M  V30 33 N 16.8874 -7.5 0.0 0
M  V30 34 C 16.8874 -9.0 0.0 0
M  V30 35 C 18.1865 -6.75 0.0 0
M  V30 36 C 18.1865 -9.75 0.0 0
M  V30 37 C 19.4855 -7.5 0.0 0
M  V30 38 N 19.4855 -9.0 0.0 0
M  V30 39 C 20.7846 -9.75 0.0 0
M  V30 END ATOM
M  V30 BEGIN BOND
M  V30 1 2 1 2
M  V30 2 1 2 3
M  V30 3 1 2 4
M  V30 4 1 3 5
M  V30 5 1 3 6
M  V30 6 2 4 7
M  V30 7 2 5 8
M  V30 8 1 5 9
M  V30 9 2 6 10
M  V30 10 1 6 11
M  V30 11 1 7 12
M  V30 12 1 8 13
M  V30 13 2 9 14
M  V30 14 1 10 15
M  V30 15 2 11 16
M  V30 16 2 13 17
M  V30 17 1 13 18
M  V30 18 1 15 19
M  V30 19 2 15 20
M  V30 20 1 18 21
M  V30 21 1 19 22
M  V30 22 2 21 23
M  V30 23 1 21 24
M  V30 24 2 22 25
M  V30 25 1 22 26
M  V30 26 1 23 27
M  V30 27 1 23 28
M  V30 28 2 24 29
M  V30 29 2 26 30
M  V30 30 1 27 31
M  V30 31 2 28 32
M  V30 32 1 32 33
M  V30 33 1 33 34
M  V30 34 1 33 35
M  V30 35 1 34 36
M  V30 36 1 35 37
M  V30 37 1 36 38
M  V30 38 1 38 39
M  V30 39 1 7 9
M  V30 40 1 14 17
M  V30 41 1 16 20
M  V30 42 1 29 32
M  V30 43 1 37 38
M  V30 END BOND
M  V30 END CTAB
M  END
>  <Molecule Name>
Compound 244

>  <Molecule Name 2>
Compound 244

>  <Compound ID>
70

>  <Name>
XTF-262

>  <Uniprot>
P00533

>  <Target>
EGFR

>  <Smiles>
C=CC(=O)NC1=CC=CC(N2C(=O)C=C(C)C3=CN=C(NC4=CC=C(N5CCN(C)CC5)C=C4OC)N=C32)=C1

>  <Kd (nM)>
48

>  <Assay (Kd)>
Kd was assessed by DiscoveRx

>  <Ki (nM)>


>  <Assay (Ki)>


>  <IC50 (nM)>
240

>  <Assay (IC50)>
IC50 was assessed by ELISA

>  <EC50 (nM)>


>  <Assay (EC50)>


>  <Article DOI>
10.1039/C5MD00208G

>  <Molecular Weight>
525.613

>  <Exact Mass>
525.2488379

>  <XLogP3>
3.15

>  <Heavy Atom Count>
39

>  <Ring Count>
5

>  <Hydrogen Bond Acceptor Count>
9

>  <Hydrogen Bond Donor Count>
2

>  <Rotatable Bond Count>
7

>  <Topological Polar Surface Area>
104.62

>  <Molecular Formula>
C29H31N7O3

>  <InChI>
InChI=1S/C29H31N7O3/c1-5-26(37)31-20-7-6-8-22(16-20)36-27(38)15-19(2)23-18-30-29(33-28(23)36)32-24-10-9-21(17-25(24)39-4)35-13-11-34(3)12-14-35/h5-10,15-18H,1,11-14H2,2-4H3,(H,31,37)(H,30,32,33)

>  <InChI Key>
VJQPNQROUWVJQN-UHFFFAOYSA-N

>  <BindingDB>
50131841

>  <PubChem>
72201501

>  <ChEMBL>
CHEMBL3633143

$$$$
71
Actelion Java MolfileCreator 2.0

  0  0  0  0  0  0              0 V3000
M  V30 BEGIN CTAB
M  V30 COUNTS 25 27 0 0 0
M  V30 BEGIN ATOM
M  V30 1 Cl 1.732 1.4999 0.0 0
M  V30 2 C 2.598 1.0 0.0 0
M  V30 3 C 2.598 0.0 0.0 0
M  V30 4 C 3.4641 1.4999 0.0 0
M  V30 5 C 3.4641 -0.5 0.0 0
M  V30 6 C 1.732 -0.5 0.0 0
M  V30 7 C 4.3301 1.0 0.0 0
M  V30 8 Cl 3.4641 -1.5 0.0 0
M  V30 9 C 4.3301 0.0 0.0 0
M  V30 10 O 1.732 -1.5 0.0 0
M  V30 11 N 0.866 0.0 0.0 0
M  V30 12 C 0.0 -0.5 0.0 0
M  V30 13 C -0.9135 -0.0932 0.0 0
M  V30 14 C -0.1045 -1.4945 0.0 0
M  V30 15 N -1.5826 -0.8364 0.0 0
M  V30 16 C -1.1214 0.8848 0.0 0
M  V30 17 N -1.0826 -1.7024 0.0 0
M  V30 18 O -2.0725 1.1939 0.0 0
M  V30 19 N -0.3783 1.554 0.0 0
M  V30 20 C -0.5862 2.5321 0.0 0
M  V30 21 C 0.1569 3.2012 0.0 0
M  V30 22 C -1.5372 2.8411 0.0 0
M  V30 23 C -0.0509 4.1794 0.0 0
M  V30 24 C -1.7451 3.8193 0.0 0
M  V30 25 N -1.002 4.4884 0.0 0
M  V30 END ATOM
M  V30 BEGIN BOND
M  V30 1 1 1 2
M  V30 2 2 2 3
M  V30 3 1 2 4
M  V30 4 1 3 5
M  V30 5 1 3 6
M  V30 6 2 4 7
M  V30 7 1 5 8
M  V30 8 2 5 9
M  V30 9 2 6 10
M  V30 10 1 6 11
M  V30 11 1 11 12
M  V30 12 2 12 13
M  V30 13 1 12 14
M  V30 14 1 13 15
M  V30 15 1 13 16
M  V30 16 2 14 17
M  V30 17 2 16 18
M  V30 18 1 16 19
M  V30 19 1 19 20
M  V30 20 1 20 21
M  V30 21 1 20 22
M  V30 22 1 21 23
M  V30 23 1 22 24
M  V30 24 1 23 25
M  V30 25 1 7 9
M  V30 26 1 15 17
M  V30 27 1 24 25
M  V30 END BOND
M  V30 END CTAB
M  END
>  <Molecule Name>
Compound 245

>  <Molecule Name 2>
Compound 245

>  <Compound ID>
71

>  <Name>
AT-7519

>  <Uniprot>
O14965

>  <Target>
AURKA

>  <Smiles>
O=C(NC1CCNCC1)C1=C(NC(=O)C2=C(Cl)C=CC=C2Cl)C=N[NH]1

>  <Kd (nM)>
>10000

>  <Assay (Kd)>
Kd was assessed by competition binding assays

>  <Ki (nM)>


>  <Assay (Ki)>


>  <IC50 (nM)>


>  <Assay (IC50)>


>  <EC50 (nM)>


>  <Assay (EC50)>


>  <Article DOI>
10.1038/nbt.1990

>  <Molecular Weight>
382.251

>  <Exact Mass>
381.0759301

>  <XLogP3>
2.59

>  <Heavy Atom Count>
25

>  <Ring Count>
3

>  <Hydrogen Bond Acceptor Count>
4

>  <Hydrogen Bond Donor Count>
4

>  <Rotatable Bond Count>
4

>  <Topological Polar Surface Area>
98.91

>  <Molecular Formula>
C16H17Cl2N5O2

>  <InChI>
InChI=1S/C16H17Cl2N5O2/c17-10-2-1-3-11(18)13(10)15(24)22-12-8-20-23-14(12)16(25)21-9-4-6-19-7-5-9/h1-3,8-9,19H,4-7H2,(H,20,23)(H,21,25)(H,22,24)

>  <InChI Key>
OVPNQJVDAFNBDN-UHFFFAOYSA-N

>  <BindingDB>
24654

>  <PubChem>
11338033

>  <ChEMBL>
CHEMBL445813

$$$$
71
Actelion Java MolfileCreator 2.0

  0  0  0  0  0  0              0 V3000
M  V30 BEGIN CTAB
M  V30 COUNTS 25 27 0 0 0
M  V30 BEGIN ATOM
M  V30 1 Cl 1.732 1.4999 0.0 0
M  V30 2 C 2.598 1.0 0.0 0
M  V30 3 C 2.598 0.0 0.0 0
M  V30 4 C 3.4641 1.4999 0.0 0
M  V30 5 C 3.4641 -0.5 0.0 0
M  V30 6 C 1.732 -0.5 0.0 0
M  V30 7 C 4.3301 1.0 0.0 0
M  V30 8 Cl 3.4641 -1.5 0.0 0
M  V30 9 C 4.3301 0.0 0.0 0
M  V30 10 O 1.732 -1.5 0.0 0
M  V30 11 N 0.866 0.0 0.0 0
M  V30 12 C 0.0 -0.5 0.0 0
M  V30 13 C -0.9135 -0.0932 0.0 0
M  V30 14 C -0.1045 -1.4945 0.0 0
M  V30 15 N -1.5826 -0.8364 0.0 0
M  V30 16 C -1.1214 0.8848 0.0 0
M  V30 17 N -1.0826 -1.7024 0.0 0
M  V30 18 O -2.0725 1.1939 0.0 0
M  V30 19 N -0.3783 1.554 0.0 0
M  V30 20 C -0.5862 2.5321 0.0 0
M  V30 21 C 0.1569 3.2012 0.0 0
M  V30 22 C -1.5372 2.8411 0.0 0
M  V30 23 C -0.0509 4.1794 0.0 0
M  V30 24 C -1.7451 3.8193 0.0 0
M  V30 25 N -1.002 4.4884 0.0 0
M  V30 END ATOM
M  V30 BEGIN BOND
M  V30 1 1 1 2
M  V30 2 2 2 3
M  V30 3 1 2 4
M  V30 4 1 3 5
M  V30 5 1 3 6
M  V30 6 2 4 7
M  V30 7 1 5 8
M  V30 8 2 5 9
M  V30 9 2 6 10
M  V30 10 1 6 11
M  V30 11 1 11 12
M  V30 12 2 12 13
M  V30 13 1 12 14
M  V30 14 1 13 15
M  V30 15 1 13 16
M  V30 16 2 14 17
M  V30 17 2 16 18
M  V30 18 1 16 19
M  V30 19 1 19 20
M  V30 20 1 20 21
M  V30 21 1 20 22
M  V30 22 1 21 23
M  V30 23 1 22 24
M  V30 24 1 23 25
M  V30 25 1 7 9
M  V30 26 1 15 17
M  V30 27 1 24 25
M  V30 END BOND
M  V30 END CTAB
M  END
>  <Molecule Name>
Compound 246

>  <Molecule Name 2>
Compound 246

>  <Compound ID>
71

>  <Name>
AT-7519

>  <Uniprot>
O60566

>  <Target>
BUB1B

>  <Smiles>
O=C(NC1CCNCC1)C1=C(NC(=O)C2=C(Cl)C=CC=C2Cl)C=N[NH]1

>  <Kd (nM)>


>  <Assay (Kd)>


>  <Ki (nM)>


>  <Assay (Ki)>


>  <IC50 (nM)>


>  <Assay (IC50)>


>  <EC50 (nM)>


>  <Assay (EC50)>


>  <Article DOI>
10.1016/j.cell.2020.10.038

>  <Molecular Weight>
382.251

>  <Exact Mass>
381.0759301

>  <XLogP3>
2.59

>  <Heavy Atom Count>
25

>  <Ring Count>
3

>  <Hydrogen Bond Acceptor Count>
4

>  <Hydrogen Bond Donor Count>
4

>  <Rotatable Bond Count>
4

>  <Topological Polar Surface Area>
98.91

>  <Molecular Formula>
C16H17Cl2N5O2

>  <InChI>
InChI=1S/C16H17Cl2N5O2/c17-10-2-1-3-11(18)13(10)15(24)22-12-8-20-23-14(12)16(25)21-9-4-6-19-7-5-9/h1-3,8-9,19H,4-7H2,(H,20,23)(H,21,25)(H,22,24)

>  <InChI Key>
OVPNQJVDAFNBDN-UHFFFAOYSA-N

>  <BindingDB>
24654

>  <PubChem>
11338033

>  <ChEMBL>
CHEMBL445813

$$$$
71
Actelion Java MolfileCreator 2.0

  0  0  0  0  0  0              0 V3000
M  V30 BEGIN CTAB
M  V30 COUNTS 25 27 0 0 0
M  V30 BEGIN ATOM
M  V30 1 Cl 1.732 1.4999 0.0 0
M  V30 2 C 2.598 1.0 0.0 0
M  V30 3 C 2.598 0.0 0.0 0
M  V30 4 C 3.4641 1.4999 0.0 0
M  V30 5 C 3.4641 -0.5 0.0 0
M  V30 6 C 1.732 -0.5 0.0 0
M  V30 7 C 4.3301 1.0 0.0 0
M  V30 8 Cl 3.4641 -1.5 0.0 0
M  V30 9 C 4.3301 0.0 0.0 0
M  V30 10 O 1.732 -1.5 0.0 0
M  V30 11 N 0.866 0.0 0.0 0
M  V30 12 C 0.0 -0.5 0.0 0
M  V30 13 C -0.9135 -0.0932 0.0 0
M  V30 14 C -0.1045 -1.4945 0.0 0
M  V30 15 N -1.5826 -0.8364 0.0 0
M  V30 16 C -1.1214 0.8848 0.0 0
M  V30 17 N -1.0826 -1.7024 0.0 0
M  V30 18 O -2.0725 1.1939 0.0 0
M  V30 19 N -0.3783 1.554 0.0 0
M  V30 20 C -0.5862 2.5321 0.0 0
M  V30 21 C 0.1569 3.2012 0.0 0
M  V30 22 C -1.5372 2.8411 0.0 0
M  V30 23 C -0.0509 4.1794 0.0 0
M  V30 24 C -1.7451 3.8193 0.0 0
M  V30 25 N -1.002 4.4884 0.0 0
M  V30 END ATOM
M  V30 BEGIN BOND
M  V30 1 1 1 2
M  V30 2 2 2 3
M  V30 3 1 2 4
M  V30 4 1 3 5
M  V30 5 1 3 6
M  V30 6 2 4 7
M  V30 7 1 5 8
M  V30 8 2 5 9
M  V30 9 2 6 10
M  V30 10 1 6 11
M  V30 11 1 11 12
M  V30 12 2 12 13
M  V30 13 1 12 14
M  V30 14 1 13 15
M  V30 15 1 13 16
M  V30 16 2 14 17
M  V30 17 2 16 18
M  V30 18 1 16 19
M  V30 19 1 19 20
M  V30 20 1 20 21
M  V30 21 1 20 22
M  V30 22 1 21 23
M  V30 23 1 22 24
M  V30 24 1 23 25
M  V30 25 1 7 9
M  V30 26 1 15 17
M  V30 27 1 24 25
M  V30 END BOND
M  V30 END CTAB
M  END
>  <Molecule Name>
Compound 247

>  <Molecule Name 2>
Compound 247

>  <Compound ID>
71

>  <Name>
AT-7519

>  <Uniprot>
O43683

>  <Target>
BUB1

>  <Smiles>
O=C(NC1CCNCC1)C1=C(NC(=O)C2=C(Cl)C=CC=C2Cl)C=N[NH]1

>  <Kd (nM)>


>  <Assay (Kd)>


>  <Ki (nM)>


>  <Assay (Ki)>


>  <IC50 (nM)>


>  <Assay (IC50)>


>  <EC50 (nM)>


>  <Assay (EC50)>


>  <Article DOI>
10.1016/j.cell.2020.10.038

>  <Molecular Weight>
382.251

>  <Exact Mass>
381.0759301

>  <XLogP3>
2.59

>  <Heavy Atom Count>
25

>  <Ring Count>
3

>  <Hydrogen Bond Acceptor Count>
4

>  <Hydrogen Bond Donor Count>
4

>  <Rotatable Bond Count>
4

>  <Topological Polar Surface Area>
98.91

>  <Molecular Formula>
C16H17Cl2N5O2

>  <InChI>
InChI=1S/C16H17Cl2N5O2/c17-10-2-1-3-11(18)13(10)15(24)22-12-8-20-23-14(12)16(25)21-9-4-6-19-7-5-9/h1-3,8-9,19H,4-7H2,(H,20,23)(H,21,25)(H,22,24)

>  <InChI Key>
OVPNQJVDAFNBDN-UHFFFAOYSA-N

>  <BindingDB>
24654

>  <PubChem>
11338033

>  <ChEMBL>
CHEMBL445813

$$$$
71
Actelion Java MolfileCreator 2.0

  0  0  0  0  0  0              0 V3000
M  V30 BEGIN CTAB
M  V30 COUNTS 25 27 0 0 0
M  V30 BEGIN ATOM
M  V30 1 Cl 1.732 1.4999 0.0 0
M  V30 2 C 2.598 1.0 0.0 0
M  V30 3 C 2.598 0.0 0.0 0
M  V30 4 C 3.4641 1.4999 0.0 0
M  V30 5 C 3.4641 -0.5 0.0 0
M  V30 6 C 1.732 -0.5 0.0 0
M  V30 7 C 4.3301 1.0 0.0 0
M  V30 8 Cl 3.4641 -1.5 0.0 0
M  V30 9 C 4.3301 0.0 0.0 0
M  V30 10 O 1.732 -1.5 0.0 0
M  V30 11 N 0.866 0.0 0.0 0
M  V30 12 C 0.0 -0.5 0.0 0
M  V30 13 C -0.9135 -0.0932 0.0 0
M  V30 14 C -0.1045 -1.4945 0.0 0
M  V30 15 N -1.5826 -0.8364 0.0 0
M  V30 16 C -1.1214 0.8848 0.0 0
M  V30 17 N -1.0826 -1.7024 0.0 0
M  V30 18 O -2.0725 1.1939 0.0 0
M  V30 19 N -0.3783 1.554 0.0 0
M  V30 20 C -0.5862 2.5321 0.0 0
M  V30 21 C 0.1569 3.2012 0.0 0
M  V30 22 C -1.5372 2.8411 0.0 0
M  V30 23 C -0.0509 4.1794 0.0 0
M  V30 24 C -1.7451 3.8193 0.0 0
M  V30 25 N -1.002 4.4884 0.0 0
M  V30 END ATOM
M  V30 BEGIN BOND
M  V30 1 1 1 2
M  V30 2 2 2 3
M  V30 3 1 2 4
M  V30 4 1 3 5
M  V30 5 1 3 6
M  V30 6 2 4 7
M  V30 7 1 5 8
M  V30 8 2 5 9
M  V30 9 2 6 10
M  V30 10 1 6 11
M  V30 11 1 11 12
M  V30 12 2 12 13
M  V30 13 1 12 14
M  V30 14 1 13 15
M  V30 15 1 13 16
M  V30 16 2 14 17
M  V30 17 2 16 18
M  V30 18 1 16 19
M  V30 19 1 19 20
M  V30 20 1 20 21
M  V30 21 1 20 22
M  V30 22 1 21 23
M  V30 23 1 22 24
M  V30 24 1 23 25
M  V30 25 1 7 9
M  V30 26 1 15 17
M  V30 27 1 24 25
M  V30 END BOND
M  V30 END CTAB
M  END
>  <Molecule Name>
Compound 248

>  <Molecule Name 2>
Compound 248

>  <Compound ID>
71

>  <Name>
AT-7519

>  <Uniprot>
Q9UQ88

>  <Target>
CDK11A

>  <Smiles>
O=C(NC1CCNCC1)C1=C(NC(=O)C2=C(Cl)C=CC=C2Cl)C=N[NH]1

>  <Kd (nM)>
5.2

>  <Assay (Kd)>
Kd was assessed by competition binding assays

>  <Ki (nM)>


>  <Assay (Ki)>


>  <IC50 (nM)>


>  <Assay (IC50)>


>  <EC50 (nM)>


>  <Assay (EC50)>


>  <Article DOI>
10.1038/nbt.1990

>  <Molecular Weight>
382.251

>  <Exact Mass>
381.0759301

>  <XLogP3>
2.59

>  <Heavy Atom Count>
25

>  <Ring Count>
3

>  <Hydrogen Bond Acceptor Count>
4

>  <Hydrogen Bond Donor Count>
4

>  <Rotatable Bond Count>
4

>  <Topological Polar Surface Area>
98.91

>  <Molecular Formula>
C16H17Cl2N5O2

>  <InChI>
InChI=1S/C16H17Cl2N5O2/c17-10-2-1-3-11(18)13(10)15(24)22-12-8-20-23-14(12)16(25)21-9-4-6-19-7-5-9/h1-3,8-9,19H,4-7H2,(H,20,23)(H,21,25)(H,22,24)

>  <InChI Key>
OVPNQJVDAFNBDN-UHFFFAOYSA-N

>  <BindingDB>
24654

>  <PubChem>
11338033

>  <ChEMBL>
CHEMBL445813

$$$$
71
Actelion Java MolfileCreator 2.0

  0  0  0  0  0  0              0 V3000
M  V30 BEGIN CTAB
M  V30 COUNTS 25 27 0 0 0
M  V30 BEGIN ATOM
M  V30 1 Cl 1.732 1.4999 0.0 0
M  V30 2 C 2.598 1.0 0.0 0
M  V30 3 C 2.598 0.0 0.0 0
M  V30 4 C 3.4641 1.4999 0.0 0
M  V30 5 C 3.4641 -0.5 0.0 0
M  V30 6 C 1.732 -0.5 0.0 0
M  V30 7 C 4.3301 1.0 0.0 0
M  V30 8 Cl 3.4641 -1.5 0.0 0
M  V30 9 C 4.3301 0.0 0.0 0
M  V30 10 O 1.732 -1.5 0.0 0
M  V30 11 N 0.866 0.0 0.0 0
M  V30 12 C 0.0 -0.5 0.0 0
M  V30 13 C -0.9135 -0.0932 0.0 0
M  V30 14 C -0.1045 -1.4945 0.0 0
M  V30 15 N -1.5826 -0.8364 0.0 0
M  V30 16 C -1.1214 0.8848 0.0 0
M  V30 17 N -1.0826 -1.7024 0.0 0
M  V30 18 O -2.0725 1.1939 0.0 0
M  V30 19 N -0.3783 1.554 0.0 0
M  V30 20 C -0.5862 2.5321 0.0 0
M  V30 21 C 0.1569 3.2012 0.0 0
M  V30 22 C -1.5372 2.8411 0.0 0
M  V30 23 C -0.0509 4.1794 0.0 0
M  V30 24 C -1.7451 3.8193 0.0 0
M  V30 25 N -1.002 4.4884 0.0 0
M  V30 END ATOM
M  V30 BEGIN BOND
M  V30 1 1 1 2
M  V30 2 2 2 3
M  V30 3 1 2 4
M  V30 4 1 3 5
M  V30 5 1 3 6
M  V30 6 2 4 7
M  V30 7 1 5 8
M  V30 8 2 5 9
M  V30 9 2 6 10
M  V30 10 1 6 11
M  V30 11 1 11 12
M  V30 12 2 12 13
M  V30 13 1 12 14
M  V30 14 1 13 15
M  V30 15 1 13 16
M  V30 16 2 14 17
M  V30 17 2 16 18
M  V30 18 1 16 19
M  V30 19 1 19 20
M  V30 20 1 20 21
M  V30 21 1 20 22
M  V30 22 1 21 23
M  V30 23 1 22 24
M  V30 24 1 23 25
M  V30 25 1 7 9
M  V30 26 1 15 17
M  V30 27 1 24 25
M  V30 END BOND
M  V30 END CTAB
M  END
>  <Molecule Name>
Compound 249

>  <Molecule Name 2>
Compound 249

>  <Compound ID>
71

>  <Name>
AT-7519

>  <Uniprot>
Q14004

>  <Target>
CDK13

>  <Smiles>
O=C(NC1CCNCC1)C1=C(NC(=O)C2=C(Cl)C=CC=C2Cl)C=N[NH]1

>  <Kd (nM)>
3.2

>  <Assay (Kd)>
Kd was assessed by competition binding assays

>  <Ki (nM)>


>  <Assay (Ki)>


>  <IC50 (nM)>


>  <Assay (IC50)>


>  <EC50 (nM)>


>  <Assay (EC50)>


>  <Article DOI>
10.1038/nbt.1990

>  <Molecular Weight>
382.251

>  <Exact Mass>
381.0759301

>  <XLogP3>
2.59

>  <Heavy Atom Count>
25

>  <Ring Count>
3

>  <Hydrogen Bond Acceptor Count>
4

>  <Hydrogen Bond Donor Count>
4

>  <Rotatable Bond Count>
4

>  <Topological Polar Surface Area>
98.91

>  <Molecular Formula>
C16H17Cl2N5O2

>  <InChI>
InChI=1S/C16H17Cl2N5O2/c17-10-2-1-3-11(18)13(10)15(24)22-12-8-20-23-14(12)16(25)21-9-4-6-19-7-5-9/h1-3,8-9,19H,4-7H2,(H,20,23)(H,21,25)(H,22,24)

>  <InChI Key>
OVPNQJVDAFNBDN-UHFFFAOYSA-N

>  <BindingDB>
24654

>  <PubChem>
11338033

>  <ChEMBL>
CHEMBL445813

$$$$
71
Actelion Java MolfileCreator 2.0

  0  0  0  0  0  0              0 V3000
M  V30 BEGIN CTAB
M  V30 COUNTS 25 27 0 0 0
M  V30 BEGIN ATOM
M  V30 1 Cl 1.732 1.4999 0.0 0
M  V30 2 C 2.598 1.0 0.0 0
M  V30 3 C 2.598 0.0 0.0 0
M  V30 4 C 3.4641 1.4999 0.0 0
M  V30 5 C 3.4641 -0.5 0.0 0
M  V30 6 C 1.732 -0.5 0.0 0
M  V30 7 C 4.3301 1.0 0.0 0
M  V30 8 Cl 3.4641 -1.5 0.0 0
M  V30 9 C 4.3301 0.0 0.0 0
M  V30 10 O 1.732 -1.5 0.0 0
M  V30 11 N 0.866 0.0 0.0 0
M  V30 12 C 0.0 -0.5 0.0 0
M  V30 13 C -0.9135 -0.0932 0.0 0
M  V30 14 C -0.1045 -1.4945 0.0 0
M  V30 15 N -1.5826 -0.8364 0.0 0
M  V30 16 C -1.1214 0.8848 0.0 0
M  V30 17 N -1.0826 -1.7024 0.0 0
M  V30 18 O -2.0725 1.1939 0.0 0
M  V30 19 N -0.3783 1.554 0.0 0
M  V30 20 C -0.5862 2.5321 0.0 0
M  V30 21 C 0.1569 3.2012 0.0 0
M  V30 22 C -1.5372 2.8411 0.0 0
M  V30 23 C -0.0509 4.1794 0.0 0
M  V30 24 C -1.7451 3.8193 0.0 0
M  V30 25 N -1.002 4.4884 0.0 0
M  V30 END ATOM
M  V30 BEGIN BOND
M  V30 1 1 1 2
M  V30 2 2 2 3
M  V30 3 1 2 4
M  V30 4 1 3 5
M  V30 5 1 3 6
M  V30 6 2 4 7
M  V30 7 1 5 8
M  V30 8 2 5 9
M  V30 9 2 6 10
M  V30 10 1 6 11
M  V30 11 1 11 12
M  V30 12 2 12 13
M  V30 13 1 12 14
M  V30 14 1 13 15
M  V30 15 1 13 16
M  V30 16 2 14 17
M  V30 17 2 16 18
M  V30 18 1 16 19
M  V30 19 1 19 20
M  V30 20 1 20 21
M  V30 21 1 20 22
M  V30 22 1 21 23
M  V30 23 1 22 24
M  V30 24 1 23 25
M  V30 25 1 7 9
M  V30 26 1 15 17
M  V30 27 1 24 25
M  V30 END BOND
M  V30 END CTAB
M  END
>  <Molecule Name>
Compound 250

>  <Molecule Name 2>
Compound 250

>  <Compound ID>
71

>  <Name>
AT-7519

>  <Uniprot>
O94921

>  <Target>
CDK14

>  <Smiles>
O=C(NC1CCNCC1)C1=C(NC(=O)C2=C(Cl)C=CC=C2Cl)C=N[NH]1

>  <Kd (nM)>


>  <Assay (Kd)>


>  <Ki (nM)>


>  <Assay (Ki)>


>  <IC50 (nM)>
19.8

>  <Assay (IC50)>
Inhibition of CDK14/cyclin Y by Lantha screen eu binding assay

>  <EC50 (nM)>


>  <Assay (EC50)>


>  <Article DOI>
10.1016/j.bmcl.2019.05.024

>  <Molecular Weight>
382.251

>  <Exact Mass>
381.0759301

>  <XLogP3>
2.59

>  <Heavy Atom Count>
25

>  <Ring Count>
3

>  <Hydrogen Bond Acceptor Count>
4

>  <Hydrogen Bond Donor Count>
4

>  <Rotatable Bond Count>
4

>  <Topological Polar Surface Area>
98.91

>  <Molecular Formula>
C16H17Cl2N5O2

>  <InChI>
InChI=1S/C16H17Cl2N5O2/c17-10-2-1-3-11(18)13(10)15(24)22-12-8-20-23-14(12)16(25)21-9-4-6-19-7-5-9/h1-3,8-9,19H,4-7H2,(H,20,23)(H,21,25)(H,22,24)

>  <InChI Key>
OVPNQJVDAFNBDN-UHFFFAOYSA-N

>  <BindingDB>
24654

>  <PubChem>
11338033

>  <ChEMBL>
CHEMBL445813

$$$$
71
Actelion Java MolfileCreator 2.0

  0  0  0  0  0  0              0 V3000
M  V30 BEGIN CTAB
M  V30 COUNTS 25 27 0 0 0
M  V30 BEGIN ATOM
M  V30 1 Cl 1.732 1.4999 0.0 0
M  V30 2 C 2.598 1.0 0.0 0
M  V30 3 C 2.598 0.0 0.0 0
M  V30 4 C 3.4641 1.4999 0.0 0
M  V30 5 C 3.4641 -0.5 0.0 0
M  V30 6 C 1.732 -0.5 0.0 0
M  V30 7 C 4.3301 1.0 0.0 0
M  V30 8 Cl 3.4641 -1.5 0.0 0
M  V30 9 C 4.3301 0.0 0.0 0
M  V30 10 O 1.732 -1.5 0.0 0
M  V30 11 N 0.866 0.0 0.0 0
M  V30 12 C 0.0 -0.5 0.0 0
M  V30 13 C -0.9135 -0.0932 0.0 0
M  V30 14 C -0.1045 -1.4945 0.0 0
M  V30 15 N -1.5826 -0.8364 0.0 0
M  V30 16 C -1.1214 0.8848 0.0 0
M  V30 17 N -1.0826 -1.7024 0.0 0
M  V30 18 O -2.0725 1.1939 0.0 0
M  V30 19 N -0.3783 1.554 0.0 0
M  V30 20 C -0.5862 2.5321 0.0 0
M  V30 21 C 0.1569 3.2012 0.0 0
M  V30 22 C -1.5372 2.8411 0.0 0
M  V30 23 C -0.0509 4.1794 0.0 0
M  V30 24 C -1.7451 3.8193 0.0 0
M  V30 25 N -1.002 4.4884 0.0 0
M  V30 END ATOM
M  V30 BEGIN BOND
M  V30 1 1 1 2
M  V30 2 2 2 3
M  V30 3 1 2 4
M  V30 4 1 3 5
M  V30 5 1 3 6
M  V30 6 2 4 7
M  V30 7 1 5 8
M  V30 8 2 5 9
M  V30 9 2 6 10
M  V30 10 1 6 11
M  V30 11 1 11 12
M  V30 12 2 12 13
M  V30 13 1 12 14
M  V30 14 1 13 15
M  V30 15 1 13 16
M  V30 16 2 14 17
M  V30 17 2 16 18
M  V30 18 1 16 19
M  V30 19 1 19 20
M  V30 20 1 20 21
M  V30 21 1 20 22
M  V30 22 1 21 23
M  V30 23 1 22 24
M  V30 24 1 23 25
M  V30 25 1 7 9
M  V30 26 1 15 17
M  V30 27 1 24 25
M  V30 END BOND
M  V30 END CTAB
M  END
>  <Molecule Name>
Compound 251

>  <Molecule Name 2>
Compound 251

>  <Compound ID>
71

>  <Name>
AT-7519

>  <Uniprot>
Q00537

>  <Target>
CDK17

>  <Smiles>
O=C(NC1CCNCC1)C1=C(NC(=O)C2=C(Cl)C=CC=C2Cl)C=N[NH]1

>  <Kd (nM)>
0.95

>  <Assay (Kd)>
Kd was assessed by competition binding assays

>  <Ki (nM)>


>  <Assay (Ki)>


>  <IC50 (nM)>


>  <Assay (IC50)>


>  <EC50 (nM)>


>  <Assay (EC50)>


>  <Article DOI>
10.1038/nbt.1990

>  <Molecular Weight>
382.251

>  <Exact Mass>
381.0759301

>  <XLogP3>
2.59

>  <Heavy Atom Count>
25

>  <Ring Count>
3

>  <Hydrogen Bond Acceptor Count>
4

>  <Hydrogen Bond Donor Count>
4

>  <Rotatable Bond Count>
4

>  <Topological Polar Surface Area>
98.91

>  <Molecular Formula>
C16H17Cl2N5O2

>  <InChI>
InChI=1S/C16H17Cl2N5O2/c17-10-2-1-3-11(18)13(10)15(24)22-12-8-20-23-14(12)16(25)21-9-4-6-19-7-5-9/h1-3,8-9,19H,4-7H2,(H,20,23)(H,21,25)(H,22,24)

>  <InChI Key>
OVPNQJVDAFNBDN-UHFFFAOYSA-N

>  <BindingDB>
24654

>  <PubChem>
11338033

>  <ChEMBL>
CHEMBL445813

$$$$
71
Actelion Java MolfileCreator 2.0

  0  0  0  0  0  0              0 V3000
M  V30 BEGIN CTAB
M  V30 COUNTS 25 27 0 0 0
M  V30 BEGIN ATOM
M  V30 1 Cl 1.732 1.4999 0.0 0
M  V30 2 C 2.598 1.0 0.0 0
M  V30 3 C 2.598 0.0 0.0 0
M  V30 4 C 3.4641 1.4999 0.0 0
M  V30 5 C 3.4641 -0.5 0.0 0
M  V30 6 C 1.732 -0.5 0.0 0
M  V30 7 C 4.3301 1.0 0.0 0
M  V30 8 Cl 3.4641 -1.5 0.0 0
M  V30 9 C 4.3301 0.0 0.0 0
M  V30 10 O 1.732 -1.5 0.0 0
M  V30 11 N 0.866 0.0 0.0 0
M  V30 12 C 0.0 -0.5 0.0 0
M  V30 13 C -0.9135 -0.0932 0.0 0
M  V30 14 C -0.1045 -1.4945 0.0 0
M  V30 15 N -1.5826 -0.8364 0.0 0
M  V30 16 C -1.1214 0.8848 0.0 0
M  V30 17 N -1.0826 -1.7024 0.0 0
M  V30 18 O -2.0725 1.1939 0.0 0
M  V30 19 N -0.3783 1.554 0.0 0
M  V30 20 C -0.5862 2.5321 0.0 0
M  V30 21 C 0.1569 3.2012 0.0 0
M  V30 22 C -1.5372 2.8411 0.0 0
M  V30 23 C -0.0509 4.1794 0.0 0
M  V30 24 C -1.7451 3.8193 0.0 0
M  V30 25 N -1.002 4.4884 0.0 0
M  V30 END ATOM
M  V30 BEGIN BOND
M  V30 1 1 1 2
M  V30 2 2 2 3
M  V30 3 1 2 4
M  V30 4 1 3 5
M  V30 5 1 3 6
M  V30 6 2 4 7
M  V30 7 1 5 8
M  V30 8 2 5 9
M  V30 9 2 6 10
M  V30 10 1 6 11
M  V30 11 1 11 12
M  V30 12 2 12 13
M  V30 13 1 12 14
M  V30 14 1 13 15
M  V30 15 1 13 16
M  V30 16 2 14 17
M  V30 17 2 16 18
M  V30 18 1 16 19
M  V30 19 1 19 20
M  V30 20 1 20 21
M  V30 21 1 20 22
M  V30 22 1 21 23
M  V30 23 1 22 24
M  V30 24 1 23 25
M  V30 25 1 7 9
M  V30 26 1 15 17
M  V30 27 1 24 25
M  V30 END BOND
M  V30 END CTAB
M  END
>  <Molecule Name>
Compound 252

>  <Molecule Name 2>
Compound 252

>  <Compound ID>
71

>  <Name>
AT-7519

>  <Uniprot>
P24941

>  <Target>
CDK2

>  <Smiles>
O=C(NC1CCNCC1)C1=C(NC(=O)C2=C(Cl)C=CC=C2Cl)C=N[NH]1

>  <Kd (nM)>
30

>  <Assay (Kd)>
Kd was assessed by competition binding assays

>  <Ki (nM)>


>  <Assay (Ki)>


>  <IC50 (nM)>


>  <Assay (IC50)>


>  <EC50 (nM)>


>  <Assay (EC50)>


>  <Article DOI>
10.1038/nbt.1990

>  <Molecular Weight>
382.251

>  <Exact Mass>
381.0759301

>  <XLogP3>
2.59

>  <Heavy Atom Count>
25

>  <Ring Count>
3

>  <Hydrogen Bond Acceptor Count>
4

>  <Hydrogen Bond Donor Count>
4

>  <Rotatable Bond Count>
4

>  <Topological Polar Surface Area>
98.91

>  <Molecular Formula>
C16H17Cl2N5O2

>  <InChI>
InChI=1S/C16H17Cl2N5O2/c17-10-2-1-3-11(18)13(10)15(24)22-12-8-20-23-14(12)16(25)21-9-4-6-19-7-5-9/h1-3,8-9,19H,4-7H2,(H,20,23)(H,21,25)(H,22,24)

>  <InChI Key>
OVPNQJVDAFNBDN-UHFFFAOYSA-N

>  <BindingDB>
24654

>  <PubChem>
11338033

>  <ChEMBL>
CHEMBL445813

$$$$
71
Actelion Java MolfileCreator 2.0

  0  0  0  0  0  0              0 V3000
M  V30 BEGIN CTAB
M  V30 COUNTS 25 27 0 0 0
M  V30 BEGIN ATOM
M  V30 1 Cl 1.732 1.4999 0.0 0
M  V30 2 C 2.598 1.0 0.0 0
M  V30 3 C 2.598 0.0 0.0 0
M  V30 4 C 3.4641 1.4999 0.0 0
M  V30 5 C 3.4641 -0.5 0.0 0
M  V30 6 C 1.732 -0.5 0.0 0
M  V30 7 C 4.3301 1.0 0.0 0
M  V30 8 Cl 3.4641 -1.5 0.0 0
M  V30 9 C 4.3301 0.0 0.0 0
M  V30 10 O 1.732 -1.5 0.0 0
M  V30 11 N 0.866 0.0 0.0 0
M  V30 12 C 0.0 -0.5 0.0 0
M  V30 13 C -0.9135 -0.0932 0.0 0
M  V30 14 C -0.1045 -1.4945 0.0 0
M  V30 15 N -1.5826 -0.8364 0.0 0
M  V30 16 C -1.1214 0.8848 0.0 0
M  V30 17 N -1.0826 -1.7024 0.0 0
M  V30 18 O -2.0725 1.1939 0.0 0
M  V30 19 N -0.3783 1.554 0.0 0
M  V30 20 C -0.5862 2.5321 0.0 0
M  V30 21 C 0.1569 3.2012 0.0 0
M  V30 22 C -1.5372 2.8411 0.0 0
M  V30 23 C -0.0509 4.1794 0.0 0
M  V30 24 C -1.7451 3.8193 0.0 0
M  V30 25 N -1.002 4.4884 0.0 0
M  V30 END ATOM
M  V30 BEGIN BOND
M  V30 1 1 1 2
M  V30 2 2 2 3
M  V30 3 1 2 4
M  V30 4 1 3 5
M  V30 5 1 3 6
M  V30 6 2 4 7
M  V30 7 1 5 8
M  V30 8 2 5 9
M  V30 9 2 6 10
M  V30 10 1 6 11
M  V30 11 1 11 12
M  V30 12 2 12 13
M  V30 13 1 12 14
M  V30 14 1 13 15
M  V30 15 1 13 16
M  V30 16 2 14 17
M  V30 17 2 16 18
M  V30 18 1 16 19
M  V30 19 1 19 20
M  V30 20 1 20 21
M  V30 21 1 20 22
M  V30 22 1 21 23
M  V30 23 1 22 24
M  V30 24 1 23 25
M  V30 25 1 7 9
M  V30 26 1 15 17
M  V30 27 1 24 25
M  V30 END BOND
M  V30 END CTAB
M  END
>  <Molecule Name>
Compound 253

>  <Molecule Name 2>
Compound 253

>  <Compound ID>
71

>  <Name>
AT-7519

>  <Uniprot>
P11802

>  <Target>
CDK4

>  <Smiles>
O=C(NC1CCNCC1)C1=C(NC(=O)C2=C(Cl)C=CC=C2Cl)C=N[NH]1

>  <Kd (nM)>
20/12

>  <Assay (Kd)>
Kd of CDK4-cyclinD1/3 was assessed by competition binding assays

>  <Ki (nM)>


>  <Assay (Ki)>


>  <IC50 (nM)>


>  <Assay (IC50)>


>  <EC50 (nM)>


>  <Assay (EC50)>


>  <Article DOI>
10.1038/nbt.1990

>  <Molecular Weight>
382.251

>  <Exact Mass>
381.0759301

>  <XLogP3>
2.59

>  <Heavy Atom Count>
25

>  <Ring Count>
3

>  <Hydrogen Bond Acceptor Count>
4

>  <Hydrogen Bond Donor Count>
4

>  <Rotatable Bond Count>
4

>  <Topological Polar Surface Area>
98.91

>  <Molecular Formula>
C16H17Cl2N5O2

>  <InChI>
InChI=1S/C16H17Cl2N5O2/c17-10-2-1-3-11(18)13(10)15(24)22-12-8-20-23-14(12)16(25)21-9-4-6-19-7-5-9/h1-3,8-9,19H,4-7H2,(H,20,23)(H,21,25)(H,22,24)

>  <InChI Key>
OVPNQJVDAFNBDN-UHFFFAOYSA-N

>  <BindingDB>
24654

>  <PubChem>
11338033

>  <ChEMBL>
CHEMBL445813

$$$$
71
Actelion Java MolfileCreator 2.0

  0  0  0  0  0  0              0 V3000
M  V30 BEGIN CTAB
M  V30 COUNTS 25 27 0 0 0
M  V30 BEGIN ATOM
M  V30 1 Cl 1.732 1.4999 0.0 0
M  V30 2 C 2.598 1.0 0.0 0
M  V30 3 C 2.598 0.0 0.0 0
M  V30 4 C 3.4641 1.4999 0.0 0
M  V30 5 C 3.4641 -0.5 0.0 0
M  V30 6 C 1.732 -0.5 0.0 0
M  V30 7 C 4.3301 1.0 0.0 0
M  V30 8 Cl 3.4641 -1.5 0.0 0
M  V30 9 C 4.3301 0.0 0.0 0
M  V30 10 O 1.732 -1.5 0.0 0
M  V30 11 N 0.866 0.0 0.0 0
M  V30 12 C 0.0 -0.5 0.0 0
M  V30 13 C -0.9135 -0.0932 0.0 0
M  V30 14 C -0.1045 -1.4945 0.0 0
M  V30 15 N -1.5826 -0.8364 0.0 0
M  V30 16 C -1.1214 0.8848 0.0 0
M  V30 17 N -1.0826 -1.7024 0.0 0
M  V30 18 O -2.0725 1.1939 0.0 0
M  V30 19 N -0.3783 1.554 0.0 0
M  V30 20 C -0.5862 2.5321 0.0 0
M  V30 21 C 0.1569 3.2012 0.0 0
M  V30 22 C -1.5372 2.8411 0.0 0
M  V30 23 C -0.0509 4.1794 0.0 0
M  V30 24 C -1.7451 3.8193 0.0 0
M  V30 25 N -1.002 4.4884 0.0 0
M  V30 END ATOM
M  V30 BEGIN BOND
M  V30 1 1 1 2
M  V30 2 2 2 3
M  V30 3 1 2 4
M  V30 4 1 3 5
M  V30 5 1 3 6
M  V30 6 2 4 7
M  V30 7 1 5 8
M  V30 8 2 5 9
M  V30 9 2 6 10
M  V30 10 1 6 11
M  V30 11 1 11 12
M  V30 12 2 12 13
M  V30 13 1 12 14
M  V30 14 1 13 15
M  V30 15 1 13 16
M  V30 16 2 14 17
M  V30 17 2 16 18
M  V30 18 1 16 19
M  V30 19 1 19 20
M  V30 20 1 20 21
M  V30 21 1 20 22
M  V30 22 1 21 23
M  V30 23 1 22 24
M  V30 24 1 23 25
M  V30 25 1 7 9
M  V30 26 1 15 17
M  V30 27 1 24 25
M  V30 END BOND
M  V30 END CTAB
M  END
>  <Molecule Name>
Compound 254

>  <Molecule Name 2>
Compound 254

>  <Compound ID>
71

>  <Name>
AT-7519

>  <Uniprot>
P50750

>  <Target>
CDK9

>  <Smiles>
O=C(NC1CCNCC1)C1=C(NC(=O)C2=C(Cl)C=CC=C2Cl)C=N[NH]1

>  <Kd (nM)>
5.8

>  <Assay (Kd)>
Kd was assessed by competition binding assays

>  <Ki (nM)>


>  <Assay (Ki)>


>  <IC50 (nM)>


>  <Assay (IC50)>


>  <EC50 (nM)>


>  <Assay (EC50)>


>  <Article DOI>
10.1038/nbt.1990

>  <Molecular Weight>
382.251

>  <Exact Mass>
381.0759301

>  <XLogP3>
2.59

>  <Heavy Atom Count>
25

>  <Ring Count>
3

>  <Hydrogen Bond Acceptor Count>
4

>  <Hydrogen Bond Donor Count>
4

>  <Rotatable Bond Count>
4

>  <Topological Polar Surface Area>
98.91

>  <Molecular Formula>
C16H17Cl2N5O2

>  <InChI>
InChI=1S/C16H17Cl2N5O2/c17-10-2-1-3-11(18)13(10)15(24)22-12-8-20-23-14(12)16(25)21-9-4-6-19-7-5-9/h1-3,8-9,19H,4-7H2,(H,20,23)(H,21,25)(H,22,24)

>  <InChI Key>
OVPNQJVDAFNBDN-UHFFFAOYSA-N

>  <BindingDB>
24654

>  <PubChem>
11338033

>  <ChEMBL>
CHEMBL445813

$$$$
71
Actelion Java MolfileCreator 2.0

  0  0  0  0  0  0              0 V3000
M  V30 BEGIN CTAB
M  V30 COUNTS 25 27 0 0 0
M  V30 BEGIN ATOM
M  V30 1 Cl 1.732 1.4999 0.0 0
M  V30 2 C 2.598 1.0 0.0 0
M  V30 3 C 2.598 0.0 0.0 0
M  V30 4 C 3.4641 1.4999 0.0 0
M  V30 5 C 3.4641 -0.5 0.0 0
M  V30 6 C 1.732 -0.5 0.0 0
M  V30 7 C 4.3301 1.0 0.0 0
M  V30 8 Cl 3.4641 -1.5 0.0 0
M  V30 9 C 4.3301 0.0 0.0 0
M  V30 10 O 1.732 -1.5 0.0 0
M  V30 11 N 0.866 0.0 0.0 0
M  V30 12 C 0.0 -0.5 0.0 0
M  V30 13 C -0.9135 -0.0932 0.0 0
M  V30 14 C -0.1045 -1.4945 0.0 0
M  V30 15 N -1.5826 -0.8364 0.0 0
M  V30 16 C -1.1214 0.8848 0.0 0
M  V30 17 N -1.0826 -1.7024 0.0 0
M  V30 18 O -2.0725 1.1939 0.0 0
M  V30 19 N -0.3783 1.554 0.0 0
M  V30 20 C -0.5862 2.5321 0.0 0
M  V30 21 C 0.1569 3.2012 0.0 0
M  V30 22 C -1.5372 2.8411 0.0 0
M  V30 23 C -0.0509 4.1794 0.0 0
M  V30 24 C -1.7451 3.8193 0.0 0
M  V30 25 N -1.002 4.4884 0.0 0
M  V30 END ATOM
M  V30 BEGIN BOND
M  V30 1 1 1 2
M  V30 2 2 2 3
M  V30 3 1 2 4
M  V30 4 1 3 5
M  V30 5 1 3 6
M  V30 6 2 4 7
M  V30 7 1 5 8
M  V30 8 2 5 9
M  V30 9 2 6 10
M  V30 10 1 6 11
M  V30 11 1 11 12
M  V30 12 2 12 13
M  V30 13 1 12 14
M  V30 14 1 13 15
M  V30 15 1 13 16
M  V30 16 2 14 17
M  V30 17 2 16 18
M  V30 18 1 16 19
M  V30 19 1 19 20
M  V30 20 1 20 21
M  V30 21 1 20 22
M  V30 22 1 21 23
M  V30 23 1 22 24
M  V30 24 1 23 25
M  V30 25 1 7 9
M  V30 26 1 15 17
M  V30 27 1 24 25
M  V30 END BOND
M  V30 END CTAB
M  END
>  <Molecule Name>
Compound 255

>  <Molecule Name 2>
Compound 255

>  <Compound ID>
71

>  <Name>
AT-7519

>  <Uniprot>
O14757

>  <Target>
CHEK1

>  <Smiles>
O=C(NC1CCNCC1)C1=C(NC(=O)C2=C(Cl)C=CC=C2Cl)C=N[NH]1

>  <Kd (nM)>
>10000

>  <Assay (Kd)>
Kd was assessed by competition binding assays

>  <Ki (nM)>


>  <Assay (Ki)>


>  <IC50 (nM)>


>  <Assay (IC50)>


>  <EC50 (nM)>


>  <Assay (EC50)>


>  <Article DOI>
10.1038/nbt.1990

>  <Molecular Weight>
382.251

>  <Exact Mass>
381.0759301

>  <XLogP3>
2.59

>  <Heavy Atom Count>
25

>  <Ring Count>
3

>  <Hydrogen Bond Acceptor Count>
4

>  <Hydrogen Bond Donor Count>
4

>  <Rotatable Bond Count>
4

>  <Topological Polar Surface Area>
98.91

>  <Molecular Formula>
C16H17Cl2N5O2

>  <InChI>
InChI=1S/C16H17Cl2N5O2/c17-10-2-1-3-11(18)13(10)15(24)22-12-8-20-23-14(12)16(25)21-9-4-6-19-7-5-9/h1-3,8-9,19H,4-7H2,(H,20,23)(H,21,25)(H,22,24)

>  <InChI Key>
OVPNQJVDAFNBDN-UHFFFAOYSA-N

>  <BindingDB>
24654

>  <PubChem>
11338033

>  <ChEMBL>
CHEMBL445813

$$$$
71
Actelion Java MolfileCreator 2.0

  0  0  0  0  0  0              0 V3000
M  V30 BEGIN CTAB
M  V30 COUNTS 25 27 0 0 0
M  V30 BEGIN ATOM
M  V30 1 Cl 1.732 1.4999 0.0 0
M  V30 2 C 2.598 1.0 0.0 0
M  V30 3 C 2.598 0.0 0.0 0
M  V30 4 C 3.4641 1.4999 0.0 0
M  V30 5 C 3.4641 -0.5 0.0 0
M  V30 6 C 1.732 -0.5 0.0 0
M  V30 7 C 4.3301 1.0 0.0 0
M  V30 8 Cl 3.4641 -1.5 0.0 0
M  V30 9 C 4.3301 0.0 0.0 0
M  V30 10 O 1.732 -1.5 0.0 0
M  V30 11 N 0.866 0.0 0.0 0
M  V30 12 C 0.0 -0.5 0.0 0
M  V30 13 C -0.9135 -0.0932 0.0 0
M  V30 14 C -0.1045 -1.4945 0.0 0
M  V30 15 N -1.5826 -0.8364 0.0 0
M  V30 16 C -1.1214 0.8848 0.0 0
M  V30 17 N -1.0826 -1.7024 0.0 0
M  V30 18 O -2.0725 1.1939 0.0 0
M  V30 19 N -0.3783 1.554 0.0 0
M  V30 20 C -0.5862 2.5321 0.0 0
M  V30 21 C 0.1569 3.2012 0.0 0
M  V30 22 C -1.5372 2.8411 0.0 0
M  V30 23 C -0.0509 4.1794 0.0 0
M  V30 24 C -1.7451 3.8193 0.0 0
M  V30 25 N -1.002 4.4884 0.0 0
M  V30 END ATOM
M  V30 BEGIN BOND
M  V30 1 1 1 2
M  V30 2 2 2 3
M  V30 3 1 2 4
M  V30 4 1 3 5
M  V30 5 1 3 6
M  V30 6 2 4 7
M  V30 7 1 5 8
M  V30 8 2 5 9
M  V30 9 2 6 10
M  V30 10 1 6 11
M  V30 11 1 11 12
M  V30 12 2 12 13
M  V30 13 1 12 14
M  V30 14 1 13 15
M  V30 15 1 13 16
M  V30 16 2 14 17
M  V30 17 2 16 18
M  V30 18 1 16 19
M  V30 19 1 19 20
M  V30 20 1 20 21
M  V30 21 1 20 22
M  V30 22 1 21 23
M  V30 23 1 22 24
M  V30 24 1 23 25
M  V30 25 1 7 9
M  V30 26 1 15 17
M  V30 27 1 24 25
M  V30 END BOND
M  V30 END CTAB
M  END
>  <Molecule Name>
Compound 256

>  <Molecule Name 2>
Compound 256

>  <Compound ID>
71

>  <Name>
AT-7519

>  <Uniprot>
P49759

>  <Target>
CLK1

>  <Smiles>
O=C(NC1CCNCC1)C1=C(NC(=O)C2=C(Cl)C=CC=C2Cl)C=N[NH]1

>  <Kd (nM)>
990

>  <Assay (Kd)>
Kd was assessed by competition binding assays

>  <Ki (nM)>


>  <Assay (Ki)>


>  <IC50 (nM)>


>  <Assay (IC50)>


>  <EC50 (nM)>


>  <Assay (EC50)>


>  <Article DOI>
10.1038/nbt.1990

>  <Molecular Weight>
382.251

>  <Exact Mass>
381.0759301

>  <XLogP3>
2.59

>  <Heavy Atom Count>
25

>  <Ring Count>
3

>  <Hydrogen Bond Acceptor Count>
4

>  <Hydrogen Bond Donor Count>
4

>  <Rotatable Bond Count>
4

>  <Topological Polar Surface Area>
98.91

>  <Molecular Formula>
C16H17Cl2N5O2

>  <InChI>
InChI=1S/C16H17Cl2N5O2/c17-10-2-1-3-11(18)13(10)15(24)22-12-8-20-23-14(12)16(25)21-9-4-6-19-7-5-9/h1-3,8-9,19H,4-7H2,(H,20,23)(H,21,25)(H,22,24)

>  <InChI Key>
OVPNQJVDAFNBDN-UHFFFAOYSA-N

>  <BindingDB>
24654

>  <PubChem>
11338033

>  <ChEMBL>
CHEMBL445813

$$$$
71
Actelion Java MolfileCreator 2.0

  0  0  0  0  0  0              0 V3000
M  V30 BEGIN CTAB
M  V30 COUNTS 25 27 0 0 0
M  V30 BEGIN ATOM
M  V30 1 Cl 1.732 1.4999 0.0 0
M  V30 2 C 2.598 1.0 0.0 0
M  V30 3 C 2.598 0.0 0.0 0
M  V30 4 C 3.4641 1.4999 0.0 0
M  V30 5 C 3.4641 -0.5 0.0 0
M  V30 6 C 1.732 -0.5 0.0 0
M  V30 7 C 4.3301 1.0 0.0 0
M  V30 8 Cl 3.4641 -1.5 0.0 0
M  V30 9 C 4.3301 0.0 0.0 0
M  V30 10 O 1.732 -1.5 0.0 0
M  V30 11 N 0.866 0.0 0.0 0
M  V30 12 C 0.0 -0.5 0.0 0
M  V30 13 C -0.9135 -0.0932 0.0 0
M  V30 14 C -0.1045 -1.4945 0.0 0
M  V30 15 N -1.5826 -0.8364 0.0 0
M  V30 16 C -1.1214 0.8848 0.0 0
M  V30 17 N -1.0826 -1.7024 0.0 0
M  V30 18 O -2.0725 1.1939 0.0 0
M  V30 19 N -0.3783 1.554 0.0 0
M  V30 20 C -0.5862 2.5321 0.0 0
M  V30 21 C 0.1569 3.2012 0.0 0
M  V30 22 C -1.5372 2.8411 0.0 0
M  V30 23 C -0.0509 4.1794 0.0 0
M  V30 24 C -1.7451 3.8193 0.0 0
M  V30 25 N -1.002 4.4884 0.0 0
M  V30 END ATOM
M  V30 BEGIN BOND
M  V30 1 1 1 2
M  V30 2 2 2 3
M  V30 3 1 2 4
M  V30 4 1 3 5
M  V30 5 1 3 6
M  V30 6 2 4 7
M  V30 7 1 5 8
M  V30 8 2 5 9
M  V30 9 2 6 10
M  V30 10 1 6 11
M  V30 11 1 11 12
M  V30 12 2 12 13
M  V30 13 1 12 14
M  V30 14 1 13 15
M  V30 15 1 13 16
M  V30 16 2 14 17
M  V30 17 2 16 18
M  V30 18 1 16 19
M  V30 19 1 19 20
M  V30 20 1 20 21
M  V30 21 1 20 22
M  V30 22 1 21 23
M  V30 23 1 22 24
M  V30 24 1 23 25
M  V30 25 1 7 9
M  V30 26 1 15 17
M  V30 27 1 24 25
M  V30 END BOND
M  V30 END CTAB
M  END
>  <Molecule Name>
Compound 257

>  <Molecule Name 2>
Compound 257

>  <Compound ID>
71

>  <Name>
AT-7519

>  <Uniprot>
P48729

>  <Target>
CSNK1A1

>  <Smiles>
O=C(NC1CCNCC1)C1=C(NC(=O)C2=C(Cl)C=CC=C2Cl)C=N[NH]1

>  <Kd (nM)>
>10000

>  <Assay (Kd)>
Kd was assessed by competition binding assays

>  <Ki (nM)>


>  <Assay (Ki)>


>  <IC50 (nM)>


>  <Assay (IC50)>


>  <EC50 (nM)>


>  <Assay (EC50)>


>  <Article DOI>
10.1038/nbt.1990

>  <Molecular Weight>
382.251

>  <Exact Mass>
381.0759301

>  <XLogP3>
2.59

>  <Heavy Atom Count>
25

>  <Ring Count>
3

>  <Hydrogen Bond Acceptor Count>
4

>  <Hydrogen Bond Donor Count>
4

>  <Rotatable Bond Count>
4

>  <Topological Polar Surface Area>
98.91

>  <Molecular Formula>
C16H17Cl2N5O2

>  <InChI>
InChI=1S/C16H17Cl2N5O2/c17-10-2-1-3-11(18)13(10)15(24)22-12-8-20-23-14(12)16(25)21-9-4-6-19-7-5-9/h1-3,8-9,19H,4-7H2,(H,20,23)(H,21,25)(H,22,24)

>  <InChI Key>
OVPNQJVDAFNBDN-UHFFFAOYSA-N

>  <BindingDB>
24654

>  <PubChem>
11338033

>  <ChEMBL>
CHEMBL445813

$$$$
71
Actelion Java MolfileCreator 2.0

  0  0  0  0  0  0              0 V3000
M  V30 BEGIN CTAB
M  V30 COUNTS 25 27 0 0 0
M  V30 BEGIN ATOM
M  V30 1 Cl 1.732 1.4999 0.0 0
M  V30 2 C 2.598 1.0 0.0 0
M  V30 3 C 2.598 0.0 0.0 0
M  V30 4 C 3.4641 1.4999 0.0 0
M  V30 5 C 3.4641 -0.5 0.0 0
M  V30 6 C 1.732 -0.5 0.0 0
M  V30 7 C 4.3301 1.0 0.0 0
M  V30 8 Cl 3.4641 -1.5 0.0 0
M  V30 9 C 4.3301 0.0 0.0 0
M  V30 10 O 1.732 -1.5 0.0 0
M  V30 11 N 0.866 0.0 0.0 0
M  V30 12 C 0.0 -0.5 0.0 0
M  V30 13 C -0.9135 -0.0932 0.0 0
M  V30 14 C -0.1045 -1.4945 0.0 0
M  V30 15 N -1.5826 -0.8364 0.0 0
M  V30 16 C -1.1214 0.8848 0.0 0
M  V30 17 N -1.0826 -1.7024 0.0 0
M  V30 18 O -2.0725 1.1939 0.0 0
M  V30 19 N -0.3783 1.554 0.0 0
M  V30 20 C -0.5862 2.5321 0.0 0
M  V30 21 C 0.1569 3.2012 0.0 0
M  V30 22 C -1.5372 2.8411 0.0 0
M  V30 23 C -0.0509 4.1794 0.0 0
M  V30 24 C -1.7451 3.8193 0.0 0
M  V30 25 N -1.002 4.4884 0.0 0
M  V30 END ATOM
M  V30 BEGIN BOND
M  V30 1 1 1 2
M  V30 2 2 2 3
M  V30 3 1 2 4
M  V30 4 1 3 5
M  V30 5 1 3 6
M  V30 6 2 4 7
M  V30 7 1 5 8
M  V30 8 2 5 9
M  V30 9 2 6 10
M  V30 10 1 6 11
M  V30 11 1 11 12
M  V30 12 2 12 13
M  V30 13 1 12 14
M  V30 14 1 13 15
M  V30 15 1 13 16
M  V30 16 2 14 17
M  V30 17 2 16 18
M  V30 18 1 16 19
M  V30 19 1 19 20
M  V30 20 1 20 21
M  V30 21 1 20 22
M  V30 22 1 21 23
M  V30 23 1 22 24
M  V30 24 1 23 25
M  V30 25 1 7 9
M  V30 26 1 15 17
M  V30 27 1 24 25
M  V30 END BOND
M  V30 END CTAB
M  END
>  <Molecule Name>
Compound 258

>  <Molecule Name 2>
Compound 258

>  <Compound ID>
71

>  <Name>
AT-7519

>  <Uniprot>
P48730

>  <Target>
CSNK1D

>  <Smiles>
O=C(NC1CCNCC1)C1=C(NC(=O)C2=C(Cl)C=CC=C2Cl)C=N[NH]1

>  <Kd (nM)>
>10000

>  <Assay (Kd)>
Kd was assessed by competition binding assays

>  <Ki (nM)>


>  <Assay (Ki)>


>  <IC50 (nM)>


>  <Assay (IC50)>


>  <EC50 (nM)>


>  <Assay (EC50)>


>  <Article DOI>
10.1038/nbt.1990

>  <Molecular Weight>
382.251

>  <Exact Mass>
381.0759301

>  <XLogP3>
2.59

>  <Heavy Atom Count>
25

>  <Ring Count>
3

>  <Hydrogen Bond Acceptor Count>
4

>  <Hydrogen Bond Donor Count>
4

>  <Rotatable Bond Count>
4

>  <Topological Polar Surface Area>
98.91

>  <Molecular Formula>
C16H17Cl2N5O2

>  <InChI>
InChI=1S/C16H17Cl2N5O2/c17-10-2-1-3-11(18)13(10)15(24)22-12-8-20-23-14(12)16(25)21-9-4-6-19-7-5-9/h1-3,8-9,19H,4-7H2,(H,20,23)(H,21,25)(H,22,24)

>  <InChI Key>
OVPNQJVDAFNBDN-UHFFFAOYSA-N

>  <BindingDB>
24654

>  <PubChem>
11338033

>  <ChEMBL>
CHEMBL445813

$$$$
71
Actelion Java MolfileCreator 2.0

  0  0  0  0  0  0              0 V3000
M  V30 BEGIN CTAB
M  V30 COUNTS 25 27 0 0 0
M  V30 BEGIN ATOM
M  V30 1 Cl 1.732 1.4999 0.0 0
M  V30 2 C 2.598 1.0 0.0 0
M  V30 3 C 2.598 0.0 0.0 0
M  V30 4 C 3.4641 1.4999 0.0 0
M  V30 5 C 3.4641 -0.5 0.0 0
M  V30 6 C 1.732 -0.5 0.0 0
M  V30 7 C 4.3301 1.0 0.0 0
M  V30 8 Cl 3.4641 -1.5 0.0 0
M  V30 9 C 4.3301 0.0 0.0 0
M  V30 10 O 1.732 -1.5 0.0 0
M  V30 11 N 0.866 0.0 0.0 0
M  V30 12 C 0.0 -0.5 0.0 0
M  V30 13 C -0.9135 -0.0932 0.0 0
M  V30 14 C -0.1045 -1.4945 0.0 0
M  V30 15 N -1.5826 -0.8364 0.0 0
M  V30 16 C -1.1214 0.8848 0.0 0
M  V30 17 N -1.0826 -1.7024 0.0 0
M  V30 18 O -2.0725 1.1939 0.0 0
M  V30 19 N -0.3783 1.554 0.0 0
M  V30 20 C -0.5862 2.5321 0.0 0
M  V30 21 C 0.1569 3.2012 0.0 0
M  V30 22 C -1.5372 2.8411 0.0 0
M  V30 23 C -0.0509 4.1794 0.0 0
M  V30 24 C -1.7451 3.8193 0.0 0
M  V30 25 N -1.002 4.4884 0.0 0
M  V30 END ATOM
M  V30 BEGIN BOND
M  V30 1 1 1 2
M  V30 2 2 2 3
M  V30 3 1 2 4
M  V30 4 1 3 5
M  V30 5 1 3 6
M  V30 6 2 4 7
M  V30 7 1 5 8
M  V30 8 2 5 9
M  V30 9 2 6 10
M  V30 10 1 6 11
M  V30 11 1 11 12
M  V30 12 2 12 13
M  V30 13 1 12 14
M  V30 14 1 13 15
M  V30 15 1 13 16
M  V30 16 2 14 17
M  V30 17 2 16 18
M  V30 18 1 16 19
M  V30 19 1 19 20
M  V30 20 1 20 21
M  V30 21 1 20 22
M  V30 22 1 21 23
M  V30 23 1 22 24
M  V30 24 1 23 25
M  V30 25 1 7 9
M  V30 26 1 15 17
M  V30 27 1 24 25
M  V30 END BOND
M  V30 END CTAB
M  END
>  <Molecule Name>
Compound 259

>  <Molecule Name 2>
Compound 259

>  <Compound ID>
71

>  <Name>
AT-7519

>  <Uniprot>
P53355

>  <Target>
DAPK1

>  <Smiles>
O=C(NC1CCNCC1)C1=C(NC(=O)C2=C(Cl)C=CC=C2Cl)C=N[NH]1

>  <Kd (nM)>
>10000

>  <Assay (Kd)>
Kd was assessed by competition binding assays

>  <Ki (nM)>


>  <Assay (Ki)>


>  <IC50 (nM)>


>  <Assay (IC50)>


>  <EC50 (nM)>


>  <Assay (EC50)>


>  <Article DOI>
10.1038/nbt.1990

>  <Molecular Weight>
382.251

>  <Exact Mass>
381.0759301

>  <XLogP3>
2.59

>  <Heavy Atom Count>
25

>  <Ring Count>
3

>  <Hydrogen Bond Acceptor Count>
4

>  <Hydrogen Bond Donor Count>
4

>  <Rotatable Bond Count>
4

>  <Topological Polar Surface Area>
98.91

>  <Molecular Formula>
C16H17Cl2N5O2

>  <InChI>
InChI=1S/C16H17Cl2N5O2/c17-10-2-1-3-11(18)13(10)15(24)22-12-8-20-23-14(12)16(25)21-9-4-6-19-7-5-9/h1-3,8-9,19H,4-7H2,(H,20,23)(H,21,25)(H,22,24)

>  <InChI Key>
OVPNQJVDAFNBDN-UHFFFAOYSA-N

>  <BindingDB>
24654

>  <PubChem>
11338033

>  <ChEMBL>
CHEMBL445813

$$$$
71
Actelion Java MolfileCreator 2.0

  0  0  0  0  0  0              0 V3000
M  V30 BEGIN CTAB
M  V30 COUNTS 25 27 0 0 0
M  V30 BEGIN ATOM
M  V30 1 Cl 1.732 1.4999 0.0 0
M  V30 2 C 2.598 1.0 0.0 0
M  V30 3 C 2.598 0.0 0.0 0
M  V30 4 C 3.4641 1.4999 0.0 0
M  V30 5 C 3.4641 -0.5 0.0 0
M  V30 6 C 1.732 -0.5 0.0 0
M  V30 7 C 4.3301 1.0 0.0 0
M  V30 8 Cl 3.4641 -1.5 0.0 0
M  V30 9 C 4.3301 0.0 0.0 0
M  V30 10 O 1.732 -1.5 0.0 0
M  V30 11 N 0.866 0.0 0.0 0
M  V30 12 C 0.0 -0.5 0.0 0
M  V30 13 C -0.9135 -0.0932 0.0 0
M  V30 14 C -0.1045 -1.4945 0.0 0
M  V30 15 N -1.5826 -0.8364 0.0 0
M  V30 16 C -1.1214 0.8848 0.0 0
M  V30 17 N -1.0826 -1.7024 0.0 0
M  V30 18 O -2.0725 1.1939 0.0 0
M  V30 19 N -0.3783 1.554 0.0 0
M  V30 20 C -0.5862 2.5321 0.0 0
M  V30 21 C 0.1569 3.2012 0.0 0
M  V30 22 C -1.5372 2.8411 0.0 0
M  V30 23 C -0.0509 4.1794 0.0 0
M  V30 24 C -1.7451 3.8193 0.0 0
M  V30 25 N -1.002 4.4884 0.0 0
M  V30 END ATOM
M  V30 BEGIN BOND
M  V30 1 1 1 2
M  V30 2 2 2 3
M  V30 3 1 2 4
M  V30 4 1 3 5
M  V30 5 1 3 6
M  V30 6 2 4 7
M  V30 7 1 5 8
M  V30 8 2 5 9
M  V30 9 2 6 10
M  V30 10 1 6 11
M  V30 11 1 11 12
M  V30 12 2 12 13
M  V30 13 1 12 14
M  V30 14 1 13 15
M  V30 15 1 13 16
M  V30 16 2 14 17
M  V30 17 2 16 18
M  V30 18 1 16 19
M  V30 19 1 19 20
M  V30 20 1 20 21
M  V30 21 1 20 22
M  V30 22 1 21 23
M  V30 23 1 22 24
M  V30 24 1 23 25
M  V30 25 1 7 9
M  V30 26 1 15 17
M  V30 27 1 24 25
M  V30 END BOND
M  V30 END CTAB
M  END
>  <Molecule Name>
Compound 260

>  <Molecule Name 2>
Compound 260

>  <Compound ID>
71

>  <Name>
AT-7519

>  <Uniprot>
O75460

>  <Target>
ERN1

>  <Smiles>
O=C(NC1CCNCC1)C1=C(NC(=O)C2=C(Cl)C=CC=C2Cl)C=N[NH]1

>  <Kd (nM)>
>10000

>  <Assay (Kd)>
Kd was assessed by competition binding assays

>  <Ki (nM)>


>  <Assay (Ki)>


>  <IC50 (nM)>


>  <Assay (IC50)>


>  <EC50 (nM)>


>  <Assay (EC50)>


>  <Article DOI>
10.1038/nbt.1990

>  <Molecular Weight>
382.251

>  <Exact Mass>
381.0759301

>  <XLogP3>
2.59

>  <Heavy Atom Count>
25

>  <Ring Count>
3

>  <Hydrogen Bond Acceptor Count>
4

>  <Hydrogen Bond Donor Count>
4

>  <Rotatable Bond Count>
4

>  <Topological Polar Surface Area>
98.91

>  <Molecular Formula>
C16H17Cl2N5O2

>  <InChI>
InChI=1S/C16H17Cl2N5O2/c17-10-2-1-3-11(18)13(10)15(24)22-12-8-20-23-14(12)16(25)21-9-4-6-19-7-5-9/h1-3,8-9,19H,4-7H2,(H,20,23)(H,21,25)(H,22,24)

>  <InChI Key>
OVPNQJVDAFNBDN-UHFFFAOYSA-N

>  <BindingDB>
24654

>  <PubChem>
11338033

>  <ChEMBL>
CHEMBL445813

$$$$
71
Actelion Java MolfileCreator 2.0

  0  0  0  0  0  0              0 V3000
M  V30 BEGIN CTAB
M  V30 COUNTS 25 27 0 0 0
M  V30 BEGIN ATOM
M  V30 1 Cl 1.732 1.4999 0.0 0
M  V30 2 C 2.598 1.0 0.0 0
M  V30 3 C 2.598 0.0 0.0 0
M  V30 4 C 3.4641 1.4999 0.0 0
M  V30 5 C 3.4641 -0.5 0.0 0
M  V30 6 C 1.732 -0.5 0.0 0
M  V30 7 C 4.3301 1.0 0.0 0
M  V30 8 Cl 3.4641 -1.5 0.0 0
M  V30 9 C 4.3301 0.0 0.0 0
M  V30 10 O 1.732 -1.5 0.0 0
M  V30 11 N 0.866 0.0 0.0 0
M  V30 12 C 0.0 -0.5 0.0 0
M  V30 13 C -0.9135 -0.0932 0.0 0
M  V30 14 C -0.1045 -1.4945 0.0 0
M  V30 15 N -1.5826 -0.8364 0.0 0
M  V30 16 C -1.1214 0.8848 0.0 0
M  V30 17 N -1.0826 -1.7024 0.0 0
M  V30 18 O -2.0725 1.1939 0.0 0
M  V30 19 N -0.3783 1.554 0.0 0
M  V30 20 C -0.5862 2.5321 0.0 0
M  V30 21 C 0.1569 3.2012 0.0 0
M  V30 22 C -1.5372 2.8411 0.0 0
M  V30 23 C -0.0509 4.1794 0.0 0
M  V30 24 C -1.7451 3.8193 0.0 0
M  V30 25 N -1.002 4.4884 0.0 0
M  V30 END ATOM
M  V30 BEGIN BOND
M  V30 1 1 1 2
M  V30 2 2 2 3
M  V30 3 1 2 4
M  V30 4 1 3 5
M  V30 5 1 3 6
M  V30 6 2 4 7
M  V30 7 1 5 8
M  V30 8 2 5 9
M  V30 9 2 6 10
M  V30 10 1 6 11
M  V30 11 1 11 12
M  V30 12 2 12 13
M  V30 13 1 12 14
M  V30 14 1 13 15
M  V30 15 1 13 16
M  V30 16 2 14 17
M  V30 17 2 16 18
M  V30 18 1 16 19
M  V30 19 1 19 20
M  V30 20 1 20 21
M  V30 21 1 20 22
M  V30 22 1 21 23
M  V30 23 1 22 24
M  V30 24 1 23 25
M  V30 25 1 7 9
M  V30 26 1 15 17
M  V30 27 1 24 25
M  V30 END BOND
M  V30 END CTAB
M  END
>  <Molecule Name>
Compound 261

>  <Molecule Name 2>
Compound 261

>  <Compound ID>
71

>  <Name>
AT-7519

>  <Uniprot>
P49840

>  <Target>
GSK3A

>  <Smiles>
O=C(NC1CCNCC1)C1=C(NC(=O)C2=C(Cl)C=CC=C2Cl)C=N[NH]1

>  <Kd (nM)>
23

>  <Assay (Kd)>
Kd was assessed by competition binding assays

>  <Ki (nM)>


>  <Assay (Ki)>


>  <IC50 (nM)>


>  <Assay (IC50)>


>  <EC50 (nM)>


>  <Assay (EC50)>


>  <Article DOI>
10.1038/nbt.1990

>  <Molecular Weight>
382.251

>  <Exact Mass>
381.0759301

>  <XLogP3>
2.59

>  <Heavy Atom Count>
25

>  <Ring Count>
3

>  <Hydrogen Bond Acceptor Count>
4

>  <Hydrogen Bond Donor Count>
4

>  <Rotatable Bond Count>
4

>  <Topological Polar Surface Area>
98.91

>  <Molecular Formula>
C16H17Cl2N5O2

>  <InChI>
InChI=1S/C16H17Cl2N5O2/c17-10-2-1-3-11(18)13(10)15(24)22-12-8-20-23-14(12)16(25)21-9-4-6-19-7-5-9/h1-3,8-9,19H,4-7H2,(H,20,23)(H,21,25)(H,22,24)

>  <InChI Key>
OVPNQJVDAFNBDN-UHFFFAOYSA-N

>  <BindingDB>
24654

>  <PubChem>
11338033

>  <ChEMBL>
CHEMBL445813

$$$$
71
Actelion Java MolfileCreator 2.0

  0  0  0  0  0  0              0 V3000
M  V30 BEGIN CTAB
M  V30 COUNTS 25 27 0 0 0
M  V30 BEGIN ATOM
M  V30 1 Cl 1.732 1.4999 0.0 0
M  V30 2 C 2.598 1.0 0.0 0
M  V30 3 C 2.598 0.0 0.0 0
M  V30 4 C 3.4641 1.4999 0.0 0
M  V30 5 C 3.4641 -0.5 0.0 0
M  V30 6 C 1.732 -0.5 0.0 0
M  V30 7 C 4.3301 1.0 0.0 0
M  V30 8 Cl 3.4641 -1.5 0.0 0
M  V30 9 C 4.3301 0.0 0.0 0
M  V30 10 O 1.732 -1.5 0.0 0
M  V30 11 N 0.866 0.0 0.0 0
M  V30 12 C 0.0 -0.5 0.0 0
M  V30 13 C -0.9135 -0.0932 0.0 0
M  V30 14 C -0.1045 -1.4945 0.0 0
M  V30 15 N -1.5826 -0.8364 0.0 0
M  V30 16 C -1.1214 0.8848 0.0 0
M  V30 17 N -1.0826 -1.7024 0.0 0
M  V30 18 O -2.0725 1.1939 0.0 0
M  V30 19 N -0.3783 1.554 0.0 0
M  V30 20 C -0.5862 2.5321 0.0 0
M  V30 21 C 0.1569 3.2012 0.0 0
M  V30 22 C -1.5372 2.8411 0.0 0
M  V30 23 C -0.0509 4.1794 0.0 0
M  V30 24 C -1.7451 3.8193 0.0 0
M  V30 25 N -1.002 4.4884 0.0 0
M  V30 END ATOM
M  V30 BEGIN BOND
M  V30 1 1 1 2
M  V30 2 2 2 3
M  V30 3 1 2 4
M  V30 4 1 3 5
M  V30 5 1 3 6
M  V30 6 2 4 7
M  V30 7 1 5 8
M  V30 8 2 5 9
M  V30 9 2 6 10
M  V30 10 1 6 11
M  V30 11 1 11 12
M  V30 12 2 12 13
M  V30 13 1 12 14
M  V30 14 1 13 15
M  V30 15 1 13 16
M  V30 16 2 14 17
M  V30 17 2 16 18
M  V30 18 1 16 19
M  V30 19 1 19 20
M  V30 20 1 20 21
M  V30 21 1 20 22
M  V30 22 1 21 23
M  V30 23 1 22 24
M  V30 24 1 23 25
M  V30 25 1 7 9
M  V30 26 1 15 17
M  V30 27 1 24 25
M  V30 END BOND
M  V30 END CTAB
M  END
>  <Molecule Name>
Compound 262

>  <Molecule Name 2>
Compound 262

>  <Compound ID>
71

>  <Name>
AT-7519

>  <Uniprot>
P49841

>  <Target>
GSK-3beta

>  <Smiles>
O=C(NC1CCNCC1)C1=C(NC(=O)C2=C(Cl)C=CC=C2Cl)C=N[NH]1

>  <Kd (nM)>
11

>  <Assay (Kd)>
Kd was assessed by competition binding assays

>  <Ki (nM)>


>  <Assay (Ki)>


>  <IC50 (nM)>


>  <Assay (IC50)>


>  <EC50 (nM)>


>  <Assay (EC50)>


>  <Article DOI>
10.1038/nbt.1990

>  <Molecular Weight>
382.251

>  <Exact Mass>
381.0759301

>  <XLogP3>
2.59

>  <Heavy Atom Count>
25

>  <Ring Count>
3

>  <Hydrogen Bond Acceptor Count>
4

>  <Hydrogen Bond Donor Count>
4

>  <Rotatable Bond Count>
4

>  <Topological Polar Surface Area>
98.91

>  <Molecular Formula>
C16H17Cl2N5O2

>  <InChI>
InChI=1S/C16H17Cl2N5O2/c17-10-2-1-3-11(18)13(10)15(24)22-12-8-20-23-14(12)16(25)21-9-4-6-19-7-5-9/h1-3,8-9,19H,4-7H2,(H,20,23)(H,21,25)(H,22,24)

>  <InChI Key>
OVPNQJVDAFNBDN-UHFFFAOYSA-N

>  <BindingDB>
24654

>  <PubChem>
11338033

>  <ChEMBL>
CHEMBL445813

$$$$
71
Actelion Java MolfileCreator 2.0

  0  0  0  0  0  0              0 V3000
M  V30 BEGIN CTAB
M  V30 COUNTS 25 27 0 0 0
M  V30 BEGIN ATOM
M  V30 1 Cl 1.732 1.4999 0.0 0
M  V30 2 C 2.598 1.0 0.0 0
M  V30 3 C 2.598 0.0 0.0 0
M  V30 4 C 3.4641 1.4999 0.0 0
M  V30 5 C 3.4641 -0.5 0.0 0
M  V30 6 C 1.732 -0.5 0.0 0
M  V30 7 C 4.3301 1.0 0.0 0
M  V30 8 Cl 3.4641 -1.5 0.0 0
M  V30 9 C 4.3301 0.0 0.0 0
M  V30 10 O 1.732 -1.5 0.0 0
M  V30 11 N 0.866 0.0 0.0 0
M  V30 12 C 0.0 -0.5 0.0 0
M  V30 13 C -0.9135 -0.0932 0.0 0
M  V30 14 C -0.1045 -1.4945 0.0 0
M  V30 15 N -1.5826 -0.8364 0.0 0
M  V30 16 C -1.1214 0.8848 0.0 0
M  V30 17 N -1.0826 -1.7024 0.0 0
M  V30 18 O -2.0725 1.1939 0.0 0
M  V30 19 N -0.3783 1.554 0.0 0
M  V30 20 C -0.5862 2.5321 0.0 0
M  V30 21 C 0.1569 3.2012 0.0 0
M  V30 22 C -1.5372 2.8411 0.0 0
M  V30 23 C -0.0509 4.1794 0.0 0
M  V30 24 C -1.7451 3.8193 0.0 0
M  V30 25 N -1.002 4.4884 0.0 0
M  V30 END ATOM
M  V30 BEGIN BOND
M  V30 1 1 1 2
M  V30 2 2 2 3
M  V30 3 1 2 4
M  V30 4 1 3 5
M  V30 5 1 3 6
M  V30 6 2 4 7
M  V30 7 1 5 8
M  V30 8 2 5 9
M  V30 9 2 6 10
M  V30 10 1 6 11
M  V30 11 1 11 12
M  V30 12 2 12 13
M  V30 13 1 12 14
M  V30 14 1 13 15
M  V30 15 1 13 16
M  V30 16 2 14 17
M  V30 17 2 16 18
M  V30 18 1 16 19
M  V30 19 1 19 20
M  V30 20 1 20 21
M  V30 21 1 20 22
M  V30 22 1 21 23
M  V30 23 1 22 24
M  V30 24 1 23 25
M  V30 25 1 7 9
M  V30 26 1 15 17
M  V30 27 1 24 25
M  V30 END BOND
M  V30 END CTAB
M  END
>  <Molecule Name>
Compound 263

>  <Molecule Name 2>
Compound 263

>  <Compound ID>
71

>  <Name>
AT-7519

>  <Uniprot>
Q13233

>  <Target>
MAP3K1

>  <Smiles>
O=C(NC1CCNCC1)C1=C(NC(=O)C2=C(Cl)C=CC=C2Cl)C=N[NH]1

>  <Kd (nM)>
>10000

>  <Assay (Kd)>
Kd was assessed by competition binding assays

>  <Ki (nM)>


>  <Assay (Ki)>


>  <IC50 (nM)>


>  <Assay (IC50)>


>  <EC50 (nM)>


>  <Assay (EC50)>


>  <Article DOI>
10.1038/nbt.1990

>  <Molecular Weight>
382.251

>  <Exact Mass>
381.0759301

>  <XLogP3>
2.59

>  <Heavy Atom Count>
25

>  <Ring Count>
3

>  <Hydrogen Bond Acceptor Count>
4

>  <Hydrogen Bond Donor Count>
4

>  <Rotatable Bond Count>
4

>  <Topological Polar Surface Area>
98.91

>  <Molecular Formula>
C16H17Cl2N5O2

>  <InChI>
InChI=1S/C16H17Cl2N5O2/c17-10-2-1-3-11(18)13(10)15(24)22-12-8-20-23-14(12)16(25)21-9-4-6-19-7-5-9/h1-3,8-9,19H,4-7H2,(H,20,23)(H,21,25)(H,22,24)

>  <InChI Key>
OVPNQJVDAFNBDN-UHFFFAOYSA-N

>  <BindingDB>
24654

>  <PubChem>
11338033

>  <ChEMBL>
CHEMBL445813

$$$$
71
Actelion Java MolfileCreator 2.0

  0  0  0  0  0  0              0 V3000
M  V30 BEGIN CTAB
M  V30 COUNTS 25 27 0 0 0
M  V30 BEGIN ATOM
M  V30 1 Cl 1.732 1.4999 0.0 0
M  V30 2 C 2.598 1.0 0.0 0
M  V30 3 C 2.598 0.0 0.0 0
M  V30 4 C 3.4641 1.4999 0.0 0
M  V30 5 C 3.4641 -0.5 0.0 0
M  V30 6 C 1.732 -0.5 0.0 0
M  V30 7 C 4.3301 1.0 0.0 0
M  V30 8 Cl 3.4641 -1.5 0.0 0
M  V30 9 C 4.3301 0.0 0.0 0
M  V30 10 O 1.732 -1.5 0.0 0
M  V30 11 N 0.866 0.0 0.0 0
M  V30 12 C 0.0 -0.5 0.0 0
M  V30 13 C -0.9135 -0.0932 0.0 0
M  V30 14 C -0.1045 -1.4945 0.0 0
M  V30 15 N -1.5826 -0.8364 0.0 0
M  V30 16 C -1.1214 0.8848 0.0 0
M  V30 17 N -1.0826 -1.7024 0.0 0
M  V30 18 O -2.0725 1.1939 0.0 0
M  V30 19 N -0.3783 1.554 0.0 0
M  V30 20 C -0.5862 2.5321 0.0 0
M  V30 21 C 0.1569 3.2012 0.0 0
M  V30 22 C -1.5372 2.8411 0.0 0
M  V30 23 C -0.0509 4.1794 0.0 0
M  V30 24 C -1.7451 3.8193 0.0 0
M  V30 25 N -1.002 4.4884 0.0 0
M  V30 END ATOM
M  V30 BEGIN BOND
M  V30 1 1 1 2
M  V30 2 2 2 3
M  V30 3 1 2 4
M  V30 4 1 3 5
M  V30 5 1 3 6
M  V30 6 2 4 7
M  V30 7 1 5 8
M  V30 8 2 5 9
M  V30 9 2 6 10
M  V30 10 1 6 11
M  V30 11 1 11 12
M  V30 12 2 12 13
M  V30 13 1 12 14
M  V30 14 1 13 15
M  V30 15 1 13 16
M  V30 16 2 14 17
M  V30 17 2 16 18
M  V30 18 1 16 19
M  V30 19 1 19 20
M  V30 20 1 20 21
M  V30 21 1 20 22
M  V30 22 1 21 23
M  V30 23 1 22 24
M  V30 24 1 23 25
M  V30 25 1 7 9
M  V30 26 1 15 17
M  V30 27 1 24 25
M  V30 END BOND
M  V30 END CTAB
M  END
>  <Molecule Name>
Compound 264

>  <Molecule Name 2>
Compound 264

>  <Compound ID>
71

>  <Name>
AT-7519

>  <Uniprot>
O60285

>  <Target>
NUAK1

>  <Smiles>
O=C(NC1CCNCC1)C1=C(NC(=O)C2=C(Cl)C=CC=C2Cl)C=N[NH]1

>  <Kd (nM)>
>10000

>  <Assay (Kd)>
Kd was assessed by competition binding assays

>  <Ki (nM)>


>  <Assay (Ki)>


>  <IC50 (nM)>


>  <Assay (IC50)>


>  <EC50 (nM)>


>  <Assay (EC50)>


>  <Article DOI>
10.1038/nbt.1990

>  <Molecular Weight>
382.251

>  <Exact Mass>
381.0759301

>  <XLogP3>
2.59

>  <Heavy Atom Count>
25

>  <Ring Count>
3

>  <Hydrogen Bond Acceptor Count>
4

>  <Hydrogen Bond Donor Count>
4

>  <Rotatable Bond Count>
4

>  <Topological Polar Surface Area>
98.91

>  <Molecular Formula>
C16H17Cl2N5O2

>  <InChI>
InChI=1S/C16H17Cl2N5O2/c17-10-2-1-3-11(18)13(10)15(24)22-12-8-20-23-14(12)16(25)21-9-4-6-19-7-5-9/h1-3,8-9,19H,4-7H2,(H,20,23)(H,21,25)(H,22,24)

>  <InChI Key>
OVPNQJVDAFNBDN-UHFFFAOYSA-N

>  <BindingDB>
24654

>  <PubChem>
11338033

>  <ChEMBL>
CHEMBL445813

$$$$
71
Actelion Java MolfileCreator 2.0

  0  0  0  0  0  0              0 V3000
M  V30 BEGIN CTAB
M  V30 COUNTS 25 27 0 0 0
M  V30 BEGIN ATOM
M  V30 1 Cl 1.732 1.4999 0.0 0
M  V30 2 C 2.598 1.0 0.0 0
M  V30 3 C 2.598 0.0 0.0 0
M  V30 4 C 3.4641 1.4999 0.0 0
M  V30 5 C 3.4641 -0.5 0.0 0
M  V30 6 C 1.732 -0.5 0.0 0
M  V30 7 C 4.3301 1.0 0.0 0
M  V30 8 Cl 3.4641 -1.5 0.0 0
M  V30 9 C 4.3301 0.0 0.0 0
M  V30 10 O 1.732 -1.5 0.0 0
M  V30 11 N 0.866 0.0 0.0 0
M  V30 12 C 0.0 -0.5 0.0 0
M  V30 13 C -0.9135 -0.0932 0.0 0
M  V30 14 C -0.1045 -1.4945 0.0 0
M  V30 15 N -1.5826 -0.8364 0.0 0
M  V30 16 C -1.1214 0.8848 0.0 0
M  V30 17 N -1.0826 -1.7024 0.0 0
M  V30 18 O -2.0725 1.1939 0.0 0
M  V30 19 N -0.3783 1.554 0.0 0
M  V30 20 C -0.5862 2.5321 0.0 0
M  V30 21 C 0.1569 3.2012 0.0 0
M  V30 22 C -1.5372 2.8411 0.0 0
M  V30 23 C -0.0509 4.1794 0.0 0
M  V30 24 C -1.7451 3.8193 0.0 0
M  V30 25 N -1.002 4.4884 0.0 0
M  V30 END ATOM
M  V30 BEGIN BOND
M  V30 1 1 1 2
M  V30 2 2 2 3
M  V30 3 1 2 4
M  V30 4 1 3 5
M  V30 5 1 3 6
M  V30 6 2 4 7
M  V30 7 1 5 8
M  V30 8 2 5 9
M  V30 9 2 6 10
M  V30 10 1 6 11
M  V30 11 1 11 12
M  V30 12 2 12 13
M  V30 13 1 12 14
M  V30 14 1 13 15
M  V30 15 1 13 16
M  V30 16 2 14 17
M  V30 17 2 16 18
M  V30 18 1 16 19
M  V30 19 1 19 20
M  V30 20 1 20 21
M  V30 21 1 20 22
M  V30 22 1 21 23
M  V30 23 1 22 24
M  V30 24 1 23 25
M  V30 25 1 7 9
M  V30 26 1 15 17
M  V30 27 1 24 25
M  V30 END BOND
M  V30 END CTAB
M  END
>  <Molecule Name>
Compound 265

>  <Molecule Name 2>
Compound 265

>  <Compound ID>
71

>  <Name>
AT-7519

>  <Uniprot>
P48736

>  <Target>
PIK3CG

>  <Smiles>
O=C(NC1CCNCC1)C1=C(NC(=O)C2=C(Cl)C=CC=C2Cl)C=N[NH]1

>  <Kd (nM)>
>10000

>  <Assay (Kd)>
Kd was assessed by competition binding assays

>  <Ki (nM)>


>  <Assay (Ki)>


>  <IC50 (nM)>


>  <Assay (IC50)>


>  <EC50 (nM)>


>  <Assay (EC50)>


>  <Article DOI>
10.1038/nbt.1990

>  <Molecular Weight>
382.251

>  <Exact Mass>
381.0759301

>  <XLogP3>
2.59

>  <Heavy Atom Count>
25

>  <Ring Count>
3

>  <Hydrogen Bond Acceptor Count>
4

>  <Hydrogen Bond Donor Count>
4

>  <Rotatable Bond Count>
4

>  <Topological Polar Surface Area>
98.91

>  <Molecular Formula>
C16H17Cl2N5O2

>  <InChI>
InChI=1S/C16H17Cl2N5O2/c17-10-2-1-3-11(18)13(10)15(24)22-12-8-20-23-14(12)16(25)21-9-4-6-19-7-5-9/h1-3,8-9,19H,4-7H2,(H,20,23)(H,21,25)(H,22,24)

>  <InChI Key>
OVPNQJVDAFNBDN-UHFFFAOYSA-N

>  <BindingDB>
24654

>  <PubChem>
11338033

>  <ChEMBL>
CHEMBL445813

$$$$
71
Actelion Java MolfileCreator 2.0

  0  0  0  0  0  0              0 V3000
M  V30 BEGIN CTAB
M  V30 COUNTS 25 27 0 0 0
M  V30 BEGIN ATOM
M  V30 1 Cl 1.732 1.4999 0.0 0
M  V30 2 C 2.598 1.0 0.0 0
M  V30 3 C 2.598 0.0 0.0 0
M  V30 4 C 3.4641 1.4999 0.0 0
M  V30 5 C 3.4641 -0.5 0.0 0
M  V30 6 C 1.732 -0.5 0.0 0
M  V30 7 C 4.3301 1.0 0.0 0
M  V30 8 Cl 3.4641 -1.5 0.0 0
M  V30 9 C 4.3301 0.0 0.0 0
M  V30 10 O 1.732 -1.5 0.0 0
M  V30 11 N 0.866 0.0 0.0 0
M  V30 12 C 0.0 -0.5 0.0 0
M  V30 13 C -0.9135 -0.0932 0.0 0
M  V30 14 C -0.1045 -1.4945 0.0 0
M  V30 15 N -1.5826 -0.8364 0.0 0
M  V30 16 C -1.1214 0.8848 0.0 0
M  V30 17 N -1.0826 -1.7024 0.0 0
M  V30 18 O -2.0725 1.1939 0.0 0
M  V30 19 N -0.3783 1.554 0.0 0
M  V30 20 C -0.5862 2.5321 0.0 0
M  V30 21 C 0.1569 3.2012 0.0 0
M  V30 22 C -1.5372 2.8411 0.0 0
M  V30 23 C -0.0509 4.1794 0.0 0
M  V30 24 C -1.7451 3.8193 0.0 0
M  V30 25 N -1.002 4.4884 0.0 0
M  V30 END ATOM
M  V30 BEGIN BOND
M  V30 1 1 1 2
M  V30 2 2 2 3
M  V30 3 1 2 4
M  V30 4 1 3 5
M  V30 5 1 3 6
M  V30 6 2 4 7
M  V30 7 1 5 8
M  V30 8 2 5 9
M  V30 9 2 6 10
M  V30 10 1 6 11
M  V30 11 1 11 12
M  V30 12 2 12 13
M  V30 13 1 12 14
M  V30 14 1 13 15
M  V30 15 1 13 16
M  V30 16 2 14 17
M  V30 17 2 16 18
M  V30 18 1 16 19
M  V30 19 1 19 20
M  V30 20 1 20 21
M  V30 21 1 20 22
M  V30 22 1 21 23
M  V30 23 1 22 24
M  V30 24 1 23 25
M  V30 25 1 7 9
M  V30 26 1 15 17
M  V30 27 1 24 25
M  V30 END BOND
M  V30 END CTAB
M  END
>  <Molecule Name>
Compound 266

>  <Molecule Name 2>
Compound 266

>  <Compound ID>
71

>  <Name>
AT-7519

>  <Uniprot>
Q9P1W9

>  <Target>
PIM2

>  <Smiles>
O=C(NC1CCNCC1)C1=C(NC(=O)C2=C(Cl)C=CC=C2Cl)C=N[NH]1

>  <Kd (nM)>
>10000

>  <Assay (Kd)>
Kd was assessed by competition binding assays

>  <Ki (nM)>


>  <Assay (Ki)>


>  <IC50 (nM)>


>  <Assay (IC50)>


>  <EC50 (nM)>


>  <Assay (EC50)>


>  <Article DOI>
10.1038/nbt.1990

>  <Molecular Weight>
382.251

>  <Exact Mass>
381.0759301

>  <XLogP3>
2.59

>  <Heavy Atom Count>
25

>  <Ring Count>
3

>  <Hydrogen Bond Acceptor Count>
4

>  <Hydrogen Bond Donor Count>
4

>  <Rotatable Bond Count>
4

>  <Topological Polar Surface Area>
98.91

>  <Molecular Formula>
C16H17Cl2N5O2

>  <InChI>
InChI=1S/C16H17Cl2N5O2/c17-10-2-1-3-11(18)13(10)15(24)22-12-8-20-23-14(12)16(25)21-9-4-6-19-7-5-9/h1-3,8-9,19H,4-7H2,(H,20,23)(H,21,25)(H,22,24)

>  <InChI Key>
OVPNQJVDAFNBDN-UHFFFAOYSA-N

>  <BindingDB>
24654

>  <PubChem>
11338033

>  <ChEMBL>
CHEMBL445813

$$$$
71
Actelion Java MolfileCreator 2.0

  0  0  0  0  0  0              0 V3000
M  V30 BEGIN CTAB
M  V30 COUNTS 25 27 0 0 0
M  V30 BEGIN ATOM
M  V30 1 Cl 1.732 1.4999 0.0 0
M  V30 2 C 2.598 1.0 0.0 0
M  V30 3 C 2.598 0.0 0.0 0
M  V30 4 C 3.4641 1.4999 0.0 0
M  V30 5 C 3.4641 -0.5 0.0 0
M  V30 6 C 1.732 -0.5 0.0 0
M  V30 7 C 4.3301 1.0 0.0 0
M  V30 8 Cl 3.4641 -1.5 0.0 0
M  V30 9 C 4.3301 0.0 0.0 0
M  V30 10 O 1.732 -1.5 0.0 0
M  V30 11 N 0.866 0.0 0.0 0
M  V30 12 C 0.0 -0.5 0.0 0
M  V30 13 C -0.9135 -0.0932 0.0 0
M  V30 14 C -0.1045 -1.4945 0.0 0
M  V30 15 N -1.5826 -0.8364 0.0 0
M  V30 16 C -1.1214 0.8848 0.0 0
M  V30 17 N -1.0826 -1.7024 0.0 0
M  V30 18 O -2.0725 1.1939 0.0 0
M  V30 19 N -0.3783 1.554 0.0 0
M  V30 20 C -0.5862 2.5321 0.0 0
M  V30 21 C 0.1569 3.2012 0.0 0
M  V30 22 C -1.5372 2.8411 0.0 0
M  V30 23 C -0.0509 4.1794 0.0 0
M  V30 24 C -1.7451 3.8193 0.0 0
M  V30 25 N -1.002 4.4884 0.0 0
M  V30 END ATOM
M  V30 BEGIN BOND
M  V30 1 1 1 2
M  V30 2 2 2 3
M  V30 3 1 2 4
M  V30 4 1 3 5
M  V30 5 1 3 6
M  V30 6 2 4 7
M  V30 7 1 5 8
M  V30 8 2 5 9
M  V30 9 2 6 10
M  V30 10 1 6 11
M  V30 11 1 11 12
M  V30 12 2 12 13
M  V30 13 1 12 14
M  V30 14 1 13 15
M  V30 15 1 13 16
M  V30 16 2 14 17
M  V30 17 2 16 18
M  V30 18 1 16 19
M  V30 19 1 19 20
M  V30 20 1 20 21
M  V30 21 1 20 22
M  V30 22 1 21 23
M  V30 23 1 22 24
M  V30 24 1 23 25
M  V30 25 1 7 9
M  V30 26 1 15 17
M  V30 27 1 24 25
M  V30 END BOND
M  V30 END CTAB
M  END
>  <Molecule Name>
Compound 267

>  <Molecule Name 2>
Compound 267

>  <Compound ID>
71

>  <Name>
AT-7519

>  <Uniprot>
P53350

>  <Target>
PLK1

>  <Smiles>
O=C(NC1CCNCC1)C1=C(NC(=O)C2=C(Cl)C=CC=C2Cl)C=N[NH]1

>  <Kd (nM)>
>10000

>  <Assay (Kd)>
Kd was assessed by competition binding assays

>  <Ki (nM)>


>  <Assay (Ki)>


>  <IC50 (nM)>


>  <Assay (IC50)>


>  <EC50 (nM)>


>  <Assay (EC50)>


>  <Article DOI>
10.1038/nbt.1990

>  <Molecular Weight>
382.251

>  <Exact Mass>
381.0759301

>  <XLogP3>
2.59

>  <Heavy Atom Count>
25

>  <Ring Count>
3

>  <Hydrogen Bond Acceptor Count>
4

>  <Hydrogen Bond Donor Count>
4

>  <Rotatable Bond Count>
4

>  <Topological Polar Surface Area>
98.91

>  <Molecular Formula>
C16H17Cl2N5O2

>  <InChI>
InChI=1S/C16H17Cl2N5O2/c17-10-2-1-3-11(18)13(10)15(24)22-12-8-20-23-14(12)16(25)21-9-4-6-19-7-5-9/h1-3,8-9,19H,4-7H2,(H,20,23)(H,21,25)(H,22,24)

>  <InChI Key>
OVPNQJVDAFNBDN-UHFFFAOYSA-N

>  <BindingDB>
24654

>  <PubChem>
11338033

>  <ChEMBL>
CHEMBL445813

$$$$
71
Actelion Java MolfileCreator 2.0

  0  0  0  0  0  0              0 V3000
M  V30 BEGIN CTAB
M  V30 COUNTS 25 27 0 0 0
M  V30 BEGIN ATOM
M  V30 1 Cl 1.732 1.4999 0.0 0
M  V30 2 C 2.598 1.0 0.0 0
M  V30 3 C 2.598 0.0 0.0 0
M  V30 4 C 3.4641 1.4999 0.0 0
M  V30 5 C 3.4641 -0.5 0.0 0
M  V30 6 C 1.732 -0.5 0.0 0
M  V30 7 C 4.3301 1.0 0.0 0
M  V30 8 Cl 3.4641 -1.5 0.0 0
M  V30 9 C 4.3301 0.0 0.0 0
M  V30 10 O 1.732 -1.5 0.0 0
M  V30 11 N 0.866 0.0 0.0 0
M  V30 12 C 0.0 -0.5 0.0 0
M  V30 13 C -0.9135 -0.0932 0.0 0
M  V30 14 C -0.1045 -1.4945 0.0 0
M  V30 15 N -1.5826 -0.8364 0.0 0
M  V30 16 C -1.1214 0.8848 0.0 0
M  V30 17 N -1.0826 -1.7024 0.0 0
M  V30 18 O -2.0725 1.1939 0.0 0
M  V30 19 N -0.3783 1.554 0.0 0
M  V30 20 C -0.5862 2.5321 0.0 0
M  V30 21 C 0.1569 3.2012 0.0 0
M  V30 22 C -1.5372 2.8411 0.0 0
M  V30 23 C -0.0509 4.1794 0.0 0
M  V30 24 C -1.7451 3.8193 0.0 0
M  V30 25 N -1.002 4.4884 0.0 0
M  V30 END ATOM
M  V30 BEGIN BOND
M  V30 1 1 1 2
M  V30 2 2 2 3
M  V30 3 1 2 4
M  V30 4 1 3 5
M  V30 5 1 3 6
M  V30 6 2 4 7
M  V30 7 1 5 8
M  V30 8 2 5 9
M  V30 9 2 6 10
M  V30 10 1 6 11
M  V30 11 1 11 12
M  V30 12 2 12 13
M  V30 13 1 12 14
M  V30 14 1 13 15
M  V30 15 1 13 16
M  V30 16 2 14 17
M  V30 17 2 16 18
M  V30 18 1 16 19
M  V30 19 1 19 20
M  V30 20 1 20 21
M  V30 21 1 20 22
M  V30 22 1 21 23
M  V30 23 1 22 24
M  V30 24 1 23 25
M  V30 25 1 7 9
M  V30 26 1 15 17
M  V30 27 1 24 25
M  V30 END BOND
M  V30 END CTAB
M  END
>  <Molecule Name>
Compound 268

>  <Molecule Name 2>
Compound 268

>  <Compound ID>
71

>  <Name>
AT-7519

>  <Uniprot>
Q9BVS4

>  <Target>
RIOK2

>  <Smiles>
O=C(NC1CCNCC1)C1=C(NC(=O)C2=C(Cl)C=CC=C2Cl)C=N[NH]1

>  <Kd (nM)>
>10000

>  <Assay (Kd)>
Kd was assessed by competition binding assays

>  <Ki (nM)>


>  <Assay (Ki)>


>  <IC50 (nM)>


>  <Assay (IC50)>


>  <EC50 (nM)>


>  <Assay (EC50)>


>  <Article DOI>
10.1038/nbt.1990

>  <Molecular Weight>
382.251

>  <Exact Mass>
381.0759301

>  <XLogP3>
2.59

>  <Heavy Atom Count>
25

>  <Ring Count>
3

>  <Hydrogen Bond Acceptor Count>
4

>  <Hydrogen Bond Donor Count>
4

>  <Rotatable Bond Count>
4

>  <Topological Polar Surface Area>
98.91

>  <Molecular Formula>
C16H17Cl2N5O2

>  <InChI>
InChI=1S/C16H17Cl2N5O2/c17-10-2-1-3-11(18)13(10)15(24)22-12-8-20-23-14(12)16(25)21-9-4-6-19-7-5-9/h1-3,8-9,19H,4-7H2,(H,20,23)(H,21,25)(H,22,24)

>  <InChI Key>
OVPNQJVDAFNBDN-UHFFFAOYSA-N

>  <BindingDB>
24654

>  <PubChem>
11338033

>  <ChEMBL>
CHEMBL445813

$$$$
71
Actelion Java MolfileCreator 2.0

  0  0  0  0  0  0              0 V3000
M  V30 BEGIN CTAB
M  V30 COUNTS 25 27 0 0 0
M  V30 BEGIN ATOM
M  V30 1 Cl 1.732 1.4999 0.0 0
M  V30 2 C 2.598 1.0 0.0 0
M  V30 3 C 2.598 0.0 0.0 0
M  V30 4 C 3.4641 1.4999 0.0 0
M  V30 5 C 3.4641 -0.5 0.0 0
M  V30 6 C 1.732 -0.5 0.0 0
M  V30 7 C 4.3301 1.0 0.0 0
M  V30 8 Cl 3.4641 -1.5 0.0 0
M  V30 9 C 4.3301 0.0 0.0 0
M  V30 10 O 1.732 -1.5 0.0 0
M  V30 11 N 0.866 0.0 0.0 0
M  V30 12 C 0.0 -0.5 0.0 0
M  V30 13 C -0.9135 -0.0932 0.0 0
M  V30 14 C -0.1045 -1.4945 0.0 0
M  V30 15 N -1.5826 -0.8364 0.0 0
M  V30 16 C -1.1214 0.8848 0.0 0
M  V30 17 N -1.0826 -1.7024 0.0 0
M  V30 18 O -2.0725 1.1939 0.0 0
M  V30 19 N -0.3783 1.554 0.0 0
M  V30 20 C -0.5862 2.5321 0.0 0
M  V30 21 C 0.1569 3.2012 0.0 0
M  V30 22 C -1.5372 2.8411 0.0 0
M  V30 23 C -0.0509 4.1794 0.0 0
M  V30 24 C -1.7451 3.8193 0.0 0
M  V30 25 N -1.002 4.4884 0.0 0
M  V30 END ATOM
M  V30 BEGIN BOND
M  V30 1 1 1 2
M  V30 2 2 2 3
M  V30 3 1 2 4
M  V30 4 1 3 5
M  V30 5 1 3 6
M  V30 6 2 4 7
M  V30 7 1 5 8
M  V30 8 2 5 9
M  V30 9 2 6 10
M  V30 10 1 6 11
M  V30 11 1 11 12
M  V30 12 2 12 13
M  V30 13 1 12 14
M  V30 14 1 13 15
M  V30 15 1 13 16
M  V30 16 2 14 17
M  V30 17 2 16 18
M  V30 18 1 16 19
M  V30 19 1 19 20
M  V30 20 1 20 21
M  V30 21 1 20 22
M  V30 22 1 21 23
M  V30 23 1 22 24
M  V30 24 1 23 25
M  V30 25 1 7 9
M  V30 26 1 15 17
M  V30 27 1 24 25
M  V30 END BOND
M  V30 END CTAB
M  END
>  <Molecule Name>
Compound 269

>  <Molecule Name 2>
Compound 269

>  <Compound ID>
71

>  <Name>
AT-7519

>  <Uniprot>
Q96BR1

>  <Target>
SGK3

>  <Smiles>
O=C(NC1CCNCC1)C1=C(NC(=O)C2=C(Cl)C=CC=C2Cl)C=N[NH]1

>  <Kd (nM)>
>10000

>  <Assay (Kd)>
Kd was assessed by competition binding assays

>  <Ki (nM)>


>  <Assay (Ki)>


>  <IC50 (nM)>


>  <Assay (IC50)>


>  <EC50 (nM)>


>  <Assay (EC50)>


>  <Article DOI>
10.1038/nbt.1990

>  <Molecular Weight>
382.251

>  <Exact Mass>
381.0759301

>  <XLogP3>
2.59

>  <Heavy Atom Count>
25

>  <Ring Count>
3

>  <Hydrogen Bond Acceptor Count>
4

>  <Hydrogen Bond Donor Count>
4

>  <Rotatable Bond Count>
4

>  <Topological Polar Surface Area>
98.91

>  <Molecular Formula>
C16H17Cl2N5O2

>  <InChI>
InChI=1S/C16H17Cl2N5O2/c17-10-2-1-3-11(18)13(10)15(24)22-12-8-20-23-14(12)16(25)21-9-4-6-19-7-5-9/h1-3,8-9,19H,4-7H2,(H,20,23)(H,21,25)(H,22,24)

>  <InChI Key>
OVPNQJVDAFNBDN-UHFFFAOYSA-N

>  <BindingDB>
24654

>  <PubChem>
11338033

>  <ChEMBL>
CHEMBL445813

$$$$
71
Actelion Java MolfileCreator 2.0

  0  0  0  0  0  0              0 V3000
M  V30 BEGIN CTAB
M  V30 COUNTS 25 27 0 0 0
M  V30 BEGIN ATOM
M  V30 1 Cl 1.732 1.4999 0.0 0
M  V30 2 C 2.598 1.0 0.0 0
M  V30 3 C 2.598 0.0 0.0 0
M  V30 4 C 3.4641 1.4999 0.0 0
M  V30 5 C 3.4641 -0.5 0.0 0
M  V30 6 C 1.732 -0.5 0.0 0
M  V30 7 C 4.3301 1.0 0.0 0
M  V30 8 Cl 3.4641 -1.5 0.0 0
M  V30 9 C 4.3301 0.0 0.0 0
M  V30 10 O 1.732 -1.5 0.0 0
M  V30 11 N 0.866 0.0 0.0 0
M  V30 12 C 0.0 -0.5 0.0 0
M  V30 13 C -0.9135 -0.0932 0.0 0
M  V30 14 C -0.1045 -1.4945 0.0 0
M  V30 15 N -1.5826 -0.8364 0.0 0
M  V30 16 C -1.1214 0.8848 0.0 0
M  V30 17 N -1.0826 -1.7024 0.0 0
M  V30 18 O -2.0725 1.1939 0.0 0
M  V30 19 N -0.3783 1.554 0.0 0
M  V30 20 C -0.5862 2.5321 0.0 0
M  V30 21 C 0.1569 3.2012 0.0 0
M  V30 22 C -1.5372 2.8411 0.0 0
M  V30 23 C -0.0509 4.1794 0.0 0
M  V30 24 C -1.7451 3.8193 0.0 0
M  V30 25 N -1.002 4.4884 0.0 0
M  V30 END ATOM
M  V30 BEGIN BOND
M  V30 1 1 1 2
M  V30 2 2 2 3
M  V30 3 1 2 4
M  V30 4 1 3 5
M  V30 5 1 3 6
M  V30 6 2 4 7
M  V30 7 1 5 8
M  V30 8 2 5 9
M  V30 9 2 6 10
M  V30 10 1 6 11
M  V30 11 1 11 12
M  V30 12 2 12 13
M  V30 13 1 12 14
M  V30 14 1 13 15
M  V30 15 1 13 16
M  V30 16 2 14 17
M  V30 17 2 16 18
M  V30 18 1 16 19
M  V30 19 1 19 20
M  V30 20 1 20 21
M  V30 21 1 20 22
M  V30 22 1 21 23
M  V30 23 1 22 24
M  V30 24 1 23 25
M  V30 25 1 7 9
M  V30 26 1 15 17
M  V30 27 1 24 25
M  V30 END BOND
M  V30 END CTAB
M  END
>  <Molecule Name>
Compound 270

>  <Molecule Name 2>
Compound 270

>  <Compound ID>
71

>  <Name>
AT-7519

>  <Uniprot>
Q9UEE5

>  <Target>
STK17A

>  <Smiles>
O=C(NC1CCNCC1)C1=C(NC(=O)C2=C(Cl)C=CC=C2Cl)C=N[NH]1

>  <Kd (nM)>
>10000

>  <Assay (Kd)>
Kd was assessed by competition binding assays

>  <Ki (nM)>


>  <Assay (Ki)>


>  <IC50 (nM)>


>  <Assay (IC50)>


>  <EC50 (nM)>


>  <Assay (EC50)>


>  <Article DOI>
10.1038/nbt.1990

>  <Molecular Weight>
382.251

>  <Exact Mass>
381.0759301

>  <XLogP3>
2.59

>  <Heavy Atom Count>
25

>  <Ring Count>
3

>  <Hydrogen Bond Acceptor Count>
4

>  <Hydrogen Bond Donor Count>
4

>  <Rotatable Bond Count>
4

>  <Topological Polar Surface Area>
98.91

>  <Molecular Formula>
C16H17Cl2N5O2

>  <InChI>
InChI=1S/C16H17Cl2N5O2/c17-10-2-1-3-11(18)13(10)15(24)22-12-8-20-23-14(12)16(25)21-9-4-6-19-7-5-9/h1-3,8-9,19H,4-7H2,(H,20,23)(H,21,25)(H,22,24)

>  <InChI Key>
OVPNQJVDAFNBDN-UHFFFAOYSA-N

>  <BindingDB>
24654

>  <PubChem>
11338033

>  <ChEMBL>
CHEMBL445813

$$$$
71
Actelion Java MolfileCreator 2.0

  0  0  0  0  0  0              0 V3000
M  V30 BEGIN CTAB
M  V30 COUNTS 25 27 0 0 0
M  V30 BEGIN ATOM
M  V30 1 Cl 1.732 1.4999 0.0 0
M  V30 2 C 2.598 1.0 0.0 0
M  V30 3 C 2.598 0.0 0.0 0
M  V30 4 C 3.4641 1.4999 0.0 0
M  V30 5 C 3.4641 -0.5 0.0 0
M  V30 6 C 1.732 -0.5 0.0 0
M  V30 7 C 4.3301 1.0 0.0 0
M  V30 8 Cl 3.4641 -1.5 0.0 0
M  V30 9 C 4.3301 0.0 0.0 0
M  V30 10 O 1.732 -1.5 0.0 0
M  V30 11 N 0.866 0.0 0.0 0
M  V30 12 C 0.0 -0.5 0.0 0
M  V30 13 C -0.9135 -0.0932 0.0 0
M  V30 14 C -0.1045 -1.4945 0.0 0
M  V30 15 N -1.5826 -0.8364 0.0 0
M  V30 16 C -1.1214 0.8848 0.0 0
M  V30 17 N -1.0826 -1.7024 0.0 0
M  V30 18 O -2.0725 1.1939 0.0 0
M  V30 19 N -0.3783 1.554 0.0 0
M  V30 20 C -0.5862 2.5321 0.0 0
M  V30 21 C 0.1569 3.2012 0.0 0
M  V30 22 C -1.5372 2.8411 0.0 0
M  V30 23 C -0.0509 4.1794 0.0 0
M  V30 24 C -1.7451 3.8193 0.0 0
M  V30 25 N -1.002 4.4884 0.0 0
M  V30 END ATOM
M  V30 BEGIN BOND
M  V30 1 1 1 2
M  V30 2 2 2 3
M  V30 3 1 2 4
M  V30 4 1 3 5
M  V30 5 1 3 6
M  V30 6 2 4 7
M  V30 7 1 5 8
M  V30 8 2 5 9
M  V30 9 2 6 10
M  V30 10 1 6 11
M  V30 11 1 11 12
M  V30 12 2 12 13
M  V30 13 1 12 14
M  V30 14 1 13 15
M  V30 15 1 13 16
M  V30 16 2 14 17
M  V30 17 2 16 18
M  V30 18 1 16 19
M  V30 19 1 19 20
M  V30 20 1 20 21
M  V30 21 1 20 22
M  V30 22 1 21 23
M  V30 23 1 22 24
M  V30 24 1 23 25
M  V30 25 1 7 9
M  V30 26 1 15 17
M  V30 27 1 24 25
M  V30 END BOND
M  V30 END CTAB
M  END
>  <Molecule Name>
Compound 271

>  <Molecule Name 2>
Compound 271

>  <Compound ID>
71

>  <Name>
AT-7519

>  <Uniprot>
O94768

>  <Target>
STK17B

>  <Smiles>
O=C(NC1CCNCC1)C1=C(NC(=O)C2=C(Cl)C=CC=C2Cl)C=N[NH]1

>  <Kd (nM)>
>10000

>  <Assay (Kd)>
Kd was assessed by competition binding assays

>  <Ki (nM)>


>  <Assay (Ki)>


>  <IC50 (nM)>


>  <Assay (IC50)>


>  <EC50 (nM)>


>  <Assay (EC50)>


>  <Article DOI>
10.1038/nbt.1990

>  <Molecular Weight>
382.251

>  <Exact Mass>
381.0759301

>  <XLogP3>
2.59

>  <Heavy Atom Count>
25

>  <Ring Count>
3

>  <Hydrogen Bond Acceptor Count>
4

>  <Hydrogen Bond Donor Count>
4

>  <Rotatable Bond Count>
4

>  <Topological Polar Surface Area>
98.91

>  <Molecular Formula>
C16H17Cl2N5O2

>  <InChI>
InChI=1S/C16H17Cl2N5O2/c17-10-2-1-3-11(18)13(10)15(24)22-12-8-20-23-14(12)16(25)21-9-4-6-19-7-5-9/h1-3,8-9,19H,4-7H2,(H,20,23)(H,21,25)(H,22,24)

>  <InChI Key>
OVPNQJVDAFNBDN-UHFFFAOYSA-N

>  <BindingDB>
24654

>  <PubChem>
11338033

>  <ChEMBL>
CHEMBL445813

$$$$
71
Actelion Java MolfileCreator 2.0

  0  0  0  0  0  0              0 V3000
M  V30 BEGIN CTAB
M  V30 COUNTS 25 27 0 0 0
M  V30 BEGIN ATOM
M  V30 1 Cl 1.732 1.4999 0.0 0
M  V30 2 C 2.598 1.0 0.0 0
M  V30 3 C 2.598 0.0 0.0 0
M  V30 4 C 3.4641 1.4999 0.0 0
M  V30 5 C 3.4641 -0.5 0.0 0
M  V30 6 C 1.732 -0.5 0.0 0
M  V30 7 C 4.3301 1.0 0.0 0
M  V30 8 Cl 3.4641 -1.5 0.0 0
M  V30 9 C 4.3301 0.0 0.0 0
M  V30 10 O 1.732 -1.5 0.0 0
M  V30 11 N 0.866 0.0 0.0 0
M  V30 12 C 0.0 -0.5 0.0 0
M  V30 13 C -0.9135 -0.0932 0.0 0
M  V30 14 C -0.1045 -1.4945 0.0 0
M  V30 15 N -1.5826 -0.8364 0.0 0
M  V30 16 C -1.1214 0.8848 0.0 0
M  V30 17 N -1.0826 -1.7024 0.0 0
M  V30 18 O -2.0725 1.1939 0.0 0
M  V30 19 N -0.3783 1.554 0.0 0
M  V30 20 C -0.5862 2.5321 0.0 0
M  V30 21 C 0.1569 3.2012 0.0 0
M  V30 22 C -1.5372 2.8411 0.0 0
M  V30 23 C -0.0509 4.1794 0.0 0
M  V30 24 C -1.7451 3.8193 0.0 0
M  V30 25 N -1.002 4.4884 0.0 0
M  V30 END ATOM
M  V30 BEGIN BOND
M  V30 1 1 1 2
M  V30 2 2 2 3
M  V30 3 1 2 4
M  V30 4 1 3 5
M  V30 5 1 3 6
M  V30 6 2 4 7
M  V30 7 1 5 8
M  V30 8 2 5 9
M  V30 9 2 6 10
M  V30 10 1 6 11
M  V30 11 1 11 12
M  V30 12 2 12 13
M  V30 13 1 12 14
M  V30 14 1 13 15
M  V30 15 1 13 16
M  V30 16 2 14 17
M  V30 17 2 16 18
M  V30 18 1 16 19
M  V30 19 1 19 20
M  V30 20 1 20 21
M  V30 21 1 20 22
M  V30 22 1 21 23
M  V30 23 1 22 24
M  V30 24 1 23 25
M  V30 25 1 7 9
M  V30 26 1 15 17
M  V30 27 1 24 25
M  V30 END BOND
M  V30 END CTAB
M  END
>  <Molecule Name>
Compound 272

>  <Molecule Name 2>
Compound 272

>  <Compound ID>
71

>  <Name>
AT-7519

>  <Uniprot>
P33981

>  <Target>
TTK

>  <Smiles>
O=C(NC1CCNCC1)C1=C(NC(=O)C2=C(Cl)C=CC=C2Cl)C=N[NH]1

>  <Kd (nM)>
>10000

>  <Assay (Kd)>
Kd was assessed by competition binding assays

>  <Ki (nM)>


>  <Assay (Ki)>


>  <IC50 (nM)>


>  <Assay (IC50)>


>  <EC50 (nM)>


>  <Assay (EC50)>


>  <Article DOI>
10.1038/nbt.1990

>  <Molecular Weight>
382.251

>  <Exact Mass>
381.0759301

>  <XLogP3>
2.59

>  <Heavy Atom Count>
25

>  <Ring Count>
3

>  <Hydrogen Bond Acceptor Count>
4

>  <Hydrogen Bond Donor Count>
4

>  <Rotatable Bond Count>
4

>  <Topological Polar Surface Area>
98.91

>  <Molecular Formula>
C16H17Cl2N5O2

>  <InChI>
InChI=1S/C16H17Cl2N5O2/c17-10-2-1-3-11(18)13(10)15(24)22-12-8-20-23-14(12)16(25)21-9-4-6-19-7-5-9/h1-3,8-9,19H,4-7H2,(H,20,23)(H,21,25)(H,22,24)

>  <InChI Key>
OVPNQJVDAFNBDN-UHFFFAOYSA-N

>  <BindingDB>
24654

>  <PubChem>
11338033

>  <ChEMBL>
CHEMBL445813

$$$$
71
Actelion Java MolfileCreator 2.0

  0  0  0  0  0  0              0 V3000
M  V30 BEGIN CTAB
M  V30 COUNTS 25 27 0 0 0
M  V30 BEGIN ATOM
M  V30 1 Cl 1.732 1.4999 0.0 0
M  V30 2 C 2.598 1.0 0.0 0
M  V30 3 C 2.598 0.0 0.0 0
M  V30 4 C 3.4641 1.4999 0.0 0
M  V30 5 C 3.4641 -0.5 0.0 0
M  V30 6 C 1.732 -0.5 0.0 0
M  V30 7 C 4.3301 1.0 0.0 0
M  V30 8 Cl 3.4641 -1.5 0.0 0
M  V30 9 C 4.3301 0.0 0.0 0
M  V30 10 O 1.732 -1.5 0.0 0
M  V30 11 N 0.866 0.0 0.0 0
M  V30 12 C 0.0 -0.5 0.0 0
M  V30 13 C -0.9135 -0.0932 0.0 0
M  V30 14 C -0.1045 -1.4945 0.0 0
M  V30 15 N -1.5826 -0.8364 0.0 0
M  V30 16 C -1.1214 0.8848 0.0 0
M  V30 17 N -1.0826 -1.7024 0.0 0
M  V30 18 O -2.0725 1.1939 0.0 0
M  V30 19 N -0.3783 1.554 0.0 0
M  V30 20 C -0.5862 2.5321 0.0 0
M  V30 21 C 0.1569 3.2012 0.0 0
M  V30 22 C -1.5372 2.8411 0.0 0
M  V30 23 C -0.0509 4.1794 0.0 0
M  V30 24 C -1.7451 3.8193 0.0 0
M  V30 25 N -1.002 4.4884 0.0 0
M  V30 END ATOM
M  V30 BEGIN BOND
M  V30 1 1 1 2
M  V30 2 2 2 3
M  V30 3 1 2 4
M  V30 4 1 3 5
M  V30 5 1 3 6
M  V30 6 2 4 7
M  V30 7 1 5 8
M  V30 8 2 5 9
M  V30 9 2 6 10
M  V30 10 1 6 11
M  V30 11 1 11 12
M  V30 12 2 12 13
M  V30 13 1 12 14
M  V30 14 1 13 15
M  V30 15 1 13 16
M  V30 16 2 14 17
M  V30 17 2 16 18
M  V30 18 1 16 19
M  V30 19 1 19 20
M  V30 20 1 20 21
M  V30 21 1 20 22
M  V30 22 1 21 23
M  V30 23 1 22 24
M  V30 24 1 23 25
M  V30 25 1 7 9
M  V30 26 1 15 17
M  V30 27 1 24 25
M  V30 END BOND
M  V30 END CTAB
M  END
>  <Molecule Name>
Compound 273

>  <Molecule Name 2>
Compound 273

>  <Compound ID>
71

>  <Name>
AT-7519

>  <Uniprot>
Q8TAS1

>  <Target>
UHMK1

>  <Smiles>
O=C(NC1CCNCC1)C1=C(NC(=O)C2=C(Cl)C=CC=C2Cl)C=N[NH]1

>  <Kd (nM)>


>  <Assay (Kd)>


>  <Ki (nM)>


>  <Assay (Ki)>


>  <IC50 (nM)>


>  <Assay (IC50)>


>  <EC50 (nM)>


>  <Assay (EC50)>


>  <Article DOI>
10.1016/j.cell.2020.10.038

>  <Molecular Weight>
382.251

>  <Exact Mass>
381.0759301

>  <XLogP3>
2.59

>  <Heavy Atom Count>
25

>  <Ring Count>
3

>  <Hydrogen Bond Acceptor Count>
4

>  <Hydrogen Bond Donor Count>
4

>  <Rotatable Bond Count>
4

>  <Topological Polar Surface Area>
98.91

>  <Molecular Formula>
C16H17Cl2N5O2

>  <InChI>
InChI=1S/C16H17Cl2N5O2/c17-10-2-1-3-11(18)13(10)15(24)22-12-8-20-23-14(12)16(25)21-9-4-6-19-7-5-9/h1-3,8-9,19H,4-7H2,(H,20,23)(H,21,25)(H,22,24)

>  <InChI Key>
OVPNQJVDAFNBDN-UHFFFAOYSA-N

>  <BindingDB>
24654

>  <PubChem>
11338033

>  <ChEMBL>
CHEMBL445813

$$$$
71
Actelion Java MolfileCreator 2.0

  0  0  0  0  0  0              0 V3000
M  V30 BEGIN CTAB
M  V30 COUNTS 25 27 0 0 0
M  V30 BEGIN ATOM
M  V30 1 Cl 1.732 1.4999 0.0 0
M  V30 2 C 2.598 1.0 0.0 0
M  V30 3 C 2.598 0.0 0.0 0
M  V30 4 C 3.4641 1.4999 0.0 0
M  V30 5 C 3.4641 -0.5 0.0 0
M  V30 6 C 1.732 -0.5 0.0 0
M  V30 7 C 4.3301 1.0 0.0 0
M  V30 8 Cl 3.4641 -1.5 0.0 0
M  V30 9 C 4.3301 0.0 0.0 0
M  V30 10 O 1.732 -1.5 0.0 0
M  V30 11 N 0.866 0.0 0.0 0
M  V30 12 C 0.0 -0.5 0.0 0
M  V30 13 C -0.9135 -0.0932 0.0 0
M  V30 14 C -0.1045 -1.4945 0.0 0
M  V30 15 N -1.5826 -0.8364 0.0 0
M  V30 16 C -1.1214 0.8848 0.0 0
M  V30 17 N -1.0826 -1.7024 0.0 0
M  V30 18 O -2.0725 1.1939 0.0 0
M  V30 19 N -0.3783 1.554 0.0 0
M  V30 20 C -0.5862 2.5321 0.0 0
M  V30 21 C 0.1569 3.2012 0.0 0
M  V30 22 C -1.5372 2.8411 0.0 0
M  V30 23 C -0.0509 4.1794 0.0 0
M  V30 24 C -1.7451 3.8193 0.0 0
M  V30 25 N -1.002 4.4884 0.0 0
M  V30 END ATOM
M  V30 BEGIN BOND
M  V30 1 1 1 2
M  V30 2 2 2 3
M  V30 3 1 2 4
M  V30 4 1 3 5
M  V30 5 1 3 6
M  V30 6 2 4 7
M  V30 7 1 5 8
M  V30 8 2 5 9
M  V30 9 2 6 10
M  V30 10 1 6 11
M  V30 11 1 11 12
M  V30 12 2 12 13
M  V30 13 1 12 14
M  V30 14 1 13 15
M  V30 15 1 13 16
M  V30 16 2 14 17
M  V30 17 2 16 18
M  V30 18 1 16 19
M  V30 19 1 19 20
M  V30 20 1 20 21
M  V30 21 1 20 22
M  V30 22 1 21 23
M  V30 23 1 22 24
M  V30 24 1 23 25
M  V30 25 1 7 9
M  V30 26 1 15 17
M  V30 27 1 24 25
M  V30 END BOND
M  V30 END CTAB
M  END
>  <Molecule Name>
Compound 274

>  <Molecule Name 2>
Compound 274

>  <Compound ID>
71

>  <Name>
AT-7519

>  <Uniprot>
P30291

>  <Target>
Wee1

>  <Smiles>
O=C(NC1CCNCC1)C1=C(NC(=O)C2=C(Cl)C=CC=C2Cl)C=N[NH]1

>  <Kd (nM)>
>10000

>  <Assay (Kd)>
Kd was assessed by competition binding assays

>  <Ki (nM)>


>  <Assay (Ki)>


>  <IC50 (nM)>


>  <Assay (IC50)>


>  <EC50 (nM)>


>  <Assay (EC50)>


>  <Article DOI>
10.1038/nbt.1990

>  <Molecular Weight>
382.251

>  <Exact Mass>
381.0759301

>  <XLogP3>
2.59

>  <Heavy Atom Count>
25

>  <Ring Count>
3

>  <Hydrogen Bond Acceptor Count>
4

>  <Hydrogen Bond Donor Count>
4

>  <Rotatable Bond Count>
4

>  <Topological Polar Surface Area>
98.91

>  <Molecular Formula>
C16H17Cl2N5O2

>  <InChI>
InChI=1S/C16H17Cl2N5O2/c17-10-2-1-3-11(18)13(10)15(24)22-12-8-20-23-14(12)16(25)21-9-4-6-19-7-5-9/h1-3,8-9,19H,4-7H2,(H,20,23)(H,21,25)(H,22,24)

>  <InChI Key>
OVPNQJVDAFNBDN-UHFFFAOYSA-N

>  <BindingDB>
24654

>  <PubChem>
11338033

>  <ChEMBL>
CHEMBL445813

$$$$
72
Actelion Java MolfileCreator 2.0

  0  0  0  0  0  0              0 V3000
M  V30 BEGIN CTAB
M  V30 COUNTS 32 36 0 0 0
M  V30 BEGIN ATOM
M  V30 1 O 3.8971 0.0 0.0 0
M  V30 2 C 2.598 -0.75 0.0 0
M  V30 3 N 1.299 0.0 0.0 0
M  V30 4 C 2.598 -2.25 0.0 0
M  V30 5 C 0.0 -0.75 0.0 0
M  V30 6 N 1.3845 -3.1316 0.0 0
M  V30 7 C 3.8116 -3.1316 0.0 0
M  V30 8 C -1.299 0.0 0.0 0
M  V30 9 C 0.0 -2.25 0.0 0
M  V30 10 N 1.848 -4.5582 0.0 0
M  V30 11 N 5.2381 -2.6681 0.0 0
M  V30 12 C 3.348 -4.5582 0.0 0
M  V30 13 C -2.598 -0.7499 0.0 0
M  V30 14 C -1.299 -2.9999 0.0 0
M  V30 15 C 6.3529 -3.6718 0.0 0
M  V30 16 C -2.598 -2.2499 0.0 0
M  V30 17 N 7.7794 -3.2083 0.0 0
M  V30 18 C 6.041 -5.139 0.0 0
M  V30 19 C -3.8971 -2.9999 0.0 0
M  V30 20 C 8.8942 -4.212 0.0 0
M  V30 21 C 7.1557 -6.1427 0.0 0
M  V30 22 C 4.7419 -5.889 0.0 0
M  V30 23 N -3.8971 -4.4999 0.0 0
M  V30 24 N 8.5823 -5.6792 0.0 0
M  V30 25 N 6.5456 -7.513 0.0 0
M  V30 26 C 5.0538 -7.3562 0.0 0
M  V30 27 C -5.1961 -5.2499 0.0 0
M  V30 28 C -2.598 -5.25 0.0 0
M  V30 29 C -5.1961 -6.75 0.0 0
M  V30 30 C -2.598 -6.75 0.0 0
M  V30 31 N -3.8971 -7.5 0.0 0
M  V30 32 C -3.8971 -9.0 0.0 0
M  V30 END ATOM
M  V30 BEGIN BOND
M  V30 1 2 1 2
M  V30 2 1 2 3
M  V30 3 1 2 4
M  V30 4 1 3 5
M  V30 5 1 4 6
M  V30 6 2 4 7
M  V30 7 2 5 8
M  V30 8 1 5 9
M  V30 9 1 6 10
M  V30 10 1 7 11
M  V30 11 1 7 12
M  V30 12 1 8 13
M  V30 13 2 9 14
M  V30 14 1 11 15
M  V30 15 2 13 16
M  V30 16 2 15 17
M  V30 17 1 15 18
M  V30 18 1 16 19
M  V30 19 1 17 20
M  V30 20 2 18 21
M  V30 21 1 18 22
M  V30 22 1 19 23
M  V30 23 2 20 24
M  V30 24 1 21 25
M  V30 25 2 22 26
M  V30 26 1 23 27
M  V30 27 1 23 28
M  V30 28 1 27 29
M  V30 29 1 28 30
M  V30 30 1 29 31
M  V30 31 1 31 32
M  V30 32 2 10 12
M  V30 33 1 14 16
M  V30 34 1 21 24
M  V30 35 1 25 26
M  V30 36 1 30 31
M  V30 END BOND
M  V30 END CTAB
M  END
>  <Molecule Name>
Compound 275

>  <Molecule Name 2>
Compound 275

>  <Compound ID>
72

>  <Name>
FN-1501

>  <Uniprot>
P24941

>  <Target>
CDK2

>  <Smiles>
CN1CCN(CC2=CC=C(NC(=O)C3=C(NC4=NC=NC5=C4C=C[NH]5)C=N[NH]3)C=C2)CC1

>  <Kd (nM)>


>  <Assay (Kd)>


>  <Ki (nM)>


>  <Assay (Ki)>


>  <IC50 (nM)>
2.47

>  <Assay (IC50)>
IC50 of CDK2 was determined by using a Hot-SpotSM kinase assay

>  <EC50 (nM)>


>  <Assay (EC50)>


>  <Article DOI>
10.1021/acs.jmedchem.7b01261

>  <Molecular Weight>
431.504

>  <Exact Mass>
431.2182064

>  <XLogP3>
2.2

>  <Heavy Atom Count>
32

>  <Ring Count>
5

>  <Hydrogen Bond Acceptor Count>
7

>  <Hydrogen Bond Donor Count>
4

>  <Rotatable Bond Count>
6

>  <Topological Polar Surface Area>
117.86

>  <Molecular Formula>
C22H25N9O

>  <InChI>
InChI=1S/C22H25N9O/c1-30-8-10-31(11-9-30)13-15-2-4-16(5-3-15)27-22(32)19-18(12-26-29-19)28-21-17-6-7-23-20(17)24-14-25-21/h2-7,12,14H,8-11,13H2,1H3,(H,26,29)(H,27,32)(H2,23,24,25,28)

>  <InChI Key>
VXLAKHWYGRKCGI-UHFFFAOYSA-N

>  <BindingDB>
50270304

>  <PubChem>
72195175

>  <ChEMBL>
CHEMBL4077071

$$$$
72
Actelion Java MolfileCreator 2.0

  0  0  0  0  0  0              0 V3000
M  V30 BEGIN CTAB
M  V30 COUNTS 32 36 0 0 0
M  V30 BEGIN ATOM
M  V30 1 O 3.8971 0.0 0.0 0
M  V30 2 C 2.598 -0.75 0.0 0
M  V30 3 N 1.299 0.0 0.0 0
M  V30 4 C 2.598 -2.25 0.0 0
M  V30 5 C 0.0 -0.75 0.0 0
M  V30 6 N 1.3845 -3.1316 0.0 0
M  V30 7 C 3.8116 -3.1316 0.0 0
M  V30 8 C -1.299 0.0 0.0 0
M  V30 9 C 0.0 -2.25 0.0 0
M  V30 10 N 1.848 -4.5582 0.0 0
M  V30 11 N 5.2381 -2.6681 0.0 0
M  V30 12 C 3.348 -4.5582 0.0 0
M  V30 13 C -2.598 -0.7499 0.0 0
M  V30 14 C -1.299 -2.9999 0.0 0
M  V30 15 C 6.3529 -3.6718 0.0 0
M  V30 16 C -2.598 -2.2499 0.0 0
M  V30 17 N 7.7794 -3.2083 0.0 0
M  V30 18 C 6.041 -5.139 0.0 0
M  V30 19 C -3.8971 -2.9999 0.0 0
M  V30 20 C 8.8942 -4.212 0.0 0
M  V30 21 C 7.1557 -6.1427 0.0 0
M  V30 22 C 4.7419 -5.889 0.0 0
M  V30 23 N -3.8971 -4.4999 0.0 0
M  V30 24 N 8.5823 -5.6792 0.0 0
M  V30 25 N 6.5456 -7.513 0.0 0
M  V30 26 C 5.0538 -7.3562 0.0 0
M  V30 27 C -5.1961 -5.2499 0.0 0
M  V30 28 C -2.598 -5.25 0.0 0
M  V30 29 C -5.1961 -6.75 0.0 0
M  V30 30 C -2.598 -6.75 0.0 0
M  V30 31 N -3.8971 -7.5 0.0 0
M  V30 32 C -3.8971 -9.0 0.0 0
M  V30 END ATOM
M  V30 BEGIN BOND
M  V30 1 2 1 2
M  V30 2 1 2 3
M  V30 3 1 2 4
M  V30 4 1 3 5
M  V30 5 1 4 6
M  V30 6 2 4 7
M  V30 7 2 5 8
M  V30 8 1 5 9
M  V30 9 1 6 10
M  V30 10 1 7 11
M  V30 11 1 7 12
M  V30 12 1 8 13
M  V30 13 2 9 14
M  V30 14 1 11 15
M  V30 15 2 13 16
M  V30 16 2 15 17
M  V30 17 1 15 18
M  V30 18 1 16 19
M  V30 19 1 17 20
M  V30 20 2 18 21
M  V30 21 1 18 22
M  V30 22 1 19 23
M  V30 23 2 20 24
M  V30 24 1 21 25
M  V30 25 2 22 26
M  V30 26 1 23 27
M  V30 27 1 23 28
M  V30 28 1 27 29
M  V30 29 1 28 30
M  V30 30 1 29 31
M  V30 31 1 31 32
M  V30 32 2 10 12
M  V30 33 1 14 16
M  V30 34 1 21 24
M  V30 35 1 25 26
M  V30 36 1 30 31
M  V30 END BOND
M  V30 END CTAB
M  END
>  <Molecule Name>
Compound 276

>  <Molecule Name 2>
Compound 276

>  <Compound ID>
72

>  <Name>
FN-1501

>  <Uniprot>
P50750

>  <Target>
CDK9

>  <Smiles>
CN1CCN(CC2=CC=C(NC(=O)C3=C(NC4=NC=NC5=C4C=C[NH]5)C=N[NH]3)C=C2)CC1

>  <Kd (nM)>


>  <Assay (Kd)>


>  <Ki (nM)>


>  <Assay (Ki)>


>  <IC50 (nM)>


>  <Assay (IC50)>


>  <EC50 (nM)>


>  <Assay (EC50)>


>  <Article DOI>
10.1021/acs.jmedchem.7b01261

>  <Molecular Weight>
431.504

>  <Exact Mass>
431.2182064

>  <XLogP3>
2.2

>  <Heavy Atom Count>
32

>  <Ring Count>
5

>  <Hydrogen Bond Acceptor Count>
7

>  <Hydrogen Bond Donor Count>
4

>  <Rotatable Bond Count>
6

>  <Topological Polar Surface Area>
117.86

>  <Molecular Formula>
C22H25N9O

>  <InChI>
InChI=1S/C22H25N9O/c1-30-8-10-31(11-9-30)13-15-2-4-16(5-3-15)27-22(32)19-18(12-26-29-19)28-21-17-6-7-23-20(17)24-14-25-21/h2-7,12,14H,8-11,13H2,1H3,(H,26,29)(H,27,32)(H2,23,24,25,28)

>  <InChI Key>
VXLAKHWYGRKCGI-UHFFFAOYSA-N

>  <BindingDB>
50270304

>  <PubChem>
72195175

>  <ChEMBL>
CHEMBL4077071

$$$$
73
Actelion Java MolfileCreator 2.0

  0  0  0  0  0  0              0 V3000
M  V30 BEGIN CTAB
M  V30 COUNTS 65 71 0 0 0
M  V30 BEGIN ATOM
M  V30 1 Cl 27.2798 0.0 0.0 0
M  V30 2 C 25.9808 -0.75 0.0 0
M  V30 3 C 24.6817 0.0 0.0 0
M  V30 4 C 25.9808 -2.25 0.0 0
M  V30 5 C 23.3827 -0.75 0.0 0
M  V30 6 C 24.6817 -3.0 0.0 0
M  V30 7 C 23.3827 -2.25 0.0 0
M  V30 8 C 22.0836 -3.0 0.0 0
M  V30 9 C 20.7846 -2.25 0.0 0
M  V30 10 C 22.0836 -4.5 0.0 0
M  V30 11 C 19.4856 -3.0 0.0 0
M  V30 12 C 20.7846 -0.75 0.0 0
M  V30 13 C 20.7846 -5.25 0.0 0
M  V30 14 C 19.4856 -4.5 0.0 0
M  V30 15 N 19.4856 0.0 0.0 0
M  V30 16 C 17.9856 -4.4999 0.0 0
M  V30 17 C 18.7356 -5.799 0.0 0
M  V30 18 C 19.4856 1.5 0.0 0
M  V30 19 C 18.1865 -0.75 0.0 0
M  V30 20 C 18.1865 2.25 0.0 0
M  V30 21 C 16.8875 0.0 0.0 0
M  V30 22 N 16.8875 1.5 0.0 0
M  V30 23 C 15.5884 2.25 0.0 0
M  V30 24 C 15.5884 3.75 0.0 0
M  V30 25 C 14.2894 1.5 0.0 0
M  V30 26 C 14.2894 4.5 0.0 0
M  V30 27 C 12.9904 2.25 0.0 0
M  V30 28 C 12.9904 3.75 0.0 0
M  V30 29 C 11.6913 4.5 0.0 0
M  V30 30 O 11.6913 6.0 0.0 0
M  V30 31 N 10.3923 3.75 0.0 0
M  V30 32 S 9.0932 4.5 0.0 0
M  V30 33 O 9.8432 5.799 0.0 0
M  V30 34 O 8.3432 5.799 0.0 0
M  V30 35 C 7.7942 3.75 0.0 0
M  V30 36 C 6.4952 4.5 0.0 0
M  V30 37 C 7.7942 2.25 0.0 0
M  V30 38 C 5.1961 3.75 0.0 0
M  V30 39 C 6.4952 1.5 0.0 0
M  V30 40 S 3.8971 4.5 0.0 0
M  V30 41 C 5.1961 2.25 0.0 0
M  V30 42 O 3.1471 3.2009 0.0 0
M  V30 43 O 2.3971 4.5 0.0 0
M  V30 44 C 3.8971 6.0 0.0 0
M  V30 45 N 3.8971 1.5 0.0 0
M  V30 46 F 5.3971 6.0 0.0 0
M  V30 47 F 3.8971 7.5 0.0 0
M  V30 48 F 2.3971 6.0 0.0 0
M  V30 49 C 3.8971 0.0 0.0 0 CFG=1
M  V30 50 C 5.1961 -0.75 0.0 0
M  V30 51 C 2.598 -0.75 0.0 0
M  V30 52 S 6.4952 0.0 0.0 0
M  V30 53 C 1.299 0.0 0.0 0
M  V30 54 C 7.7942 -0.75 0.0 0
M  V30 55 N 0.0 -0.75 0.0 0
M  V30 56 C 7.7942 -2.25 0.0 0
M  V30 57 C 9.0932 0.0 0.0 0
M  V30 58 C -1.299 0.0 0.0 0
M  V30 59 C 0.0 -2.25 0.0 0
M  V30 60 C 9.0932 -3.0 0.0 0
M  V30 61 C 10.3923 -0.75 0.0 0
M  V30 62 C -2.598 -0.75 0.0 0
M  V30 63 C -1.299 -3.0 0.0 0
M  V30 64 C 10.3923 -2.25 0.0 0
M  V30 65 O -2.598 -2.25 0.0 0
M  V30 END ATOM
M  V30 BEGIN BOND
M  V30 1 1 1 2
M  V30 2 2 2 3
M  V30 3 1 2 4
M  V30 4 1 3 5
M  V30 5 2 4 6
M  V30 6 2 5 7
M  V30 7 1 7 8
M  V30 8 2 8 9
M  V30 9 1 8 10
M  V30 10 1 9 11
M  V30 11 1 9 12
M  V30 12 1 10 13
M  V30 13 1 11 14
M  V30 14 1 12 15
M  V30 15 1 14 16
M  V30 16 1 14 17
M  V30 17 1 15 18
M  V30 18 1 15 19
M  V30 19 1 18 20
M  V30 20 1 19 21
M  V30 21 1 20 22
M  V30 22 1 22 23
M  V30 23 2 23 24
M  V30 24 1 23 25
M  V30 25 1 24 26
M  V30 26 2 25 27
M  V30 27 2 26 28
M  V30 28 1 28 29
M  V30 29 2 29 30
M  V30 30 1 29 31
M  V30 31 1 31 32
M  V30 32 2 32 33
M  V30 33 2 32 34
M  V30 34 1 32 35
M  V30 35 2 35 36
M  V30 36 1 35 37
M  V30 37 1 36 38
M  V30 38 2 37 39
M  V30 39 1 38 40
M  V30 40 2 38 41
M  V30 41 2 40 42
M  V30 42 2 40 43
M  V30 43 1 40 44
M  V30 44 1 41 45
M  V30 45 1 44 46
M  V30 46 1 44 47
M  V30 47 1 44 48
M  V30 48 1 49 45 CFG=1
M  V30 49 1 49 50
M  V30 50 1 49 51
M  V30 51 1 50 52
M  V30 52 1 51 53
M  V30 53 1 52 54
M  V30 54 1 53 55
M  V30 55 2 54 56
M  V30 56 1 54 57
M  V30 57 1 55 58
M  V30 58 1 55 59
M  V30 59 1 56 60
M  V30 60 2 57 61
M  V30 61 1 58 62
M  V30 62 1 59 63
M  V30 63 2 60 64
M  V30 64 1 62 65
M  V30 65 1 6 7
M  V30 66 1 13 14
M  V30 67 1 21 22
M  V30 68 1 27 28
M  V30 69 1 39 41
M  V30 70 1 61 64
M  V30 71 1 63 65
M  V30 END BOND
M  V30 BEGIN COLLECTION
M  V30 MDLV30/STEABS ATOMS=(1 49)
M  V30 END COLLECTION
M  V30 END CTAB
M  END
>  <Molecule Name>
Compound 277

>  <Molecule Name 2>
Compound 277

>  <Compound ID>
73

>  <Name>
ABT-263

>  <Uniprot>
P10415

>  <Target>
BCL2

>  <Smiles>
CC1(C)CCC(C2=CC=C(Cl)C=C2)=C(CN2CCN(C3=CC=C(C(=O)NS(=O)(=O)C4=CC=C(N[C@H](CCN5CCOCC5)CSC5=CC=CC=C5)C(S(=O)(=O)C(F)(F)F)=C4)C=C3)CC2)C1

>  <Kd (nM)>


>  <Assay (Kd)>


>  <Ki (nM)>
1.03

>  <Assay (Ki)>
Ki was tested by the AlphaScreen competitive binding assay

>  <IC50 (nM)>


>  <Assay (IC50)>


>  <EC50 (nM)>


>  <Assay (EC50)>


>  <Article DOI>
10.1038/s41467-020-15838-0

>  <Molecular Weight>
974.634

>  <Exact Mass>
973.2955098

>  <XLogP3>
9.58

>  <Heavy Atom Count>
65

>  <Ring Count>
7

>  <Hydrogen Bond Acceptor Count>
11

>  <Hydrogen Bond Donor Count>
2

>  <Rotatable Bond Count>
16

>  <Topological Polar Surface Area>
128.36

>  <Molecular Formula>
C47H55ClF3N5O6S3

>  <InChI>
InChI=1S/C47H55ClF3N5O6S3/c1-46(2)20-18-42(34-8-12-37(48)13-9-34)36(31-46)32-55-22-24-56(25-23-55)39-14-10-35(11-15-39)45(57)53-65(60,61)41-16-17-43(44(30-41)64(58,59)47(49,50)51)52-38(19-21-54-26-28-62-29-27-54)33-63-40-6-4-3-5-7-40/h3-17,30,38,52H,18-29,31-33H2,1-2H3,(H,53,57)/t38-/m1/s1

>  <InChI Key>
JLYAXFNOILIKPP-KXQOOQHDSA-N

>  <BindingDB>
50270877

>  <PubChem>
24978538

>  <ChEMBL>
CHEMBL443684

$$$$
73
Actelion Java MolfileCreator 2.0

  0  0  0  0  0  0              0 V3000
M  V30 BEGIN CTAB
M  V30 COUNTS 65 71 0 0 0
M  V30 BEGIN ATOM
M  V30 1 Cl 27.2798 0.0 0.0 0
M  V30 2 C 25.9808 -0.75 0.0 0
M  V30 3 C 24.6817 0.0 0.0 0
M  V30 4 C 25.9808 -2.25 0.0 0
M  V30 5 C 23.3827 -0.75 0.0 0
M  V30 6 C 24.6817 -3.0 0.0 0
M  V30 7 C 23.3827 -2.25 0.0 0
M  V30 8 C 22.0836 -3.0 0.0 0
M  V30 9 C 20.7846 -2.25 0.0 0
M  V30 10 C 22.0836 -4.5 0.0 0
M  V30 11 C 19.4856 -3.0 0.0 0
M  V30 12 C 20.7846 -0.75 0.0 0
M  V30 13 C 20.7846 -5.25 0.0 0
M  V30 14 C 19.4856 -4.5 0.0 0
M  V30 15 N 19.4856 0.0 0.0 0
M  V30 16 C 17.9856 -4.4999 0.0 0
M  V30 17 C 18.7356 -5.799 0.0 0
M  V30 18 C 19.4856 1.5 0.0 0
M  V30 19 C 18.1865 -0.75 0.0 0
M  V30 20 C 18.1865 2.25 0.0 0
M  V30 21 C 16.8875 0.0 0.0 0
M  V30 22 N 16.8875 1.5 0.0 0
M  V30 23 C 15.5884 2.25 0.0 0
M  V30 24 C 15.5884 3.75 0.0 0
M  V30 25 C 14.2894 1.5 0.0 0
M  V30 26 C 14.2894 4.5 0.0 0
M  V30 27 C 12.9904 2.25 0.0 0
M  V30 28 C 12.9904 3.75 0.0 0
M  V30 29 C 11.6913 4.5 0.0 0
M  V30 30 O 11.6913 6.0 0.0 0
M  V30 31 N 10.3923 3.75 0.0 0
M  V30 32 S 9.0932 4.5 0.0 0
M  V30 33 O 9.8432 5.799 0.0 0
M  V30 34 O 8.3432 5.799 0.0 0
M  V30 35 C 7.7942 3.75 0.0 0
M  V30 36 C 6.4952 4.5 0.0 0
M  V30 37 C 7.7942 2.25 0.0 0
M  V30 38 C 5.1961 3.75 0.0 0
M  V30 39 C 6.4952 1.5 0.0 0
M  V30 40 S 3.8971 4.5 0.0 0
M  V30 41 C 5.1961 2.25 0.0 0
M  V30 42 O 3.1471 3.2009 0.0 0
M  V30 43 O 2.3971 4.5 0.0 0
M  V30 44 C 3.8971 6.0 0.0 0
M  V30 45 N 3.8971 1.5 0.0 0
M  V30 46 F 5.3971 6.0 0.0 0
M  V30 47 F 3.8971 7.5 0.0 0
M  V30 48 F 2.3971 6.0 0.0 0
M  V30 49 C 3.8971 0.0 0.0 0 CFG=1
M  V30 50 C 5.1961 -0.75 0.0 0
M  V30 51 C 2.598 -0.75 0.0 0
M  V30 52 S 6.4952 0.0 0.0 0
M  V30 53 C 1.299 0.0 0.0 0
M  V30 54 C 7.7942 -0.75 0.0 0
M  V30 55 N 0.0 -0.75 0.0 0
M  V30 56 C 7.7942 -2.25 0.0 0
M  V30 57 C 9.0932 0.0 0.0 0
M  V30 58 C -1.299 0.0 0.0 0
M  V30 59 C 0.0 -2.25 0.0 0
M  V30 60 C 9.0932 -3.0 0.0 0
M  V30 61 C 10.3923 -0.75 0.0 0
M  V30 62 C -2.598 -0.75 0.0 0
M  V30 63 C -1.299 -3.0 0.0 0
M  V30 64 C 10.3923 -2.25 0.0 0
M  V30 65 O -2.598 -2.25 0.0 0
M  V30 END ATOM
M  V30 BEGIN BOND
M  V30 1 1 1 2
M  V30 2 2 2 3
M  V30 3 1 2 4
M  V30 4 1 3 5
M  V30 5 2 4 6
M  V30 6 2 5 7
M  V30 7 1 7 8
M  V30 8 2 8 9
M  V30 9 1 8 10
M  V30 10 1 9 11
M  V30 11 1 9 12
M  V30 12 1 10 13
M  V30 13 1 11 14
M  V30 14 1 12 15
M  V30 15 1 14 16
M  V30 16 1 14 17
M  V30 17 1 15 18
M  V30 18 1 15 19
M  V30 19 1 18 20
M  V30 20 1 19 21
M  V30 21 1 20 22
M  V30 22 1 22 23
M  V30 23 2 23 24
M  V30 24 1 23 25
M  V30 25 1 24 26
M  V30 26 2 25 27
M  V30 27 2 26 28
M  V30 28 1 28 29
M  V30 29 2 29 30
M  V30 30 1 29 31
M  V30 31 1 31 32
M  V30 32 2 32 33
M  V30 33 2 32 34
M  V30 34 1 32 35
M  V30 35 2 35 36
M  V30 36 1 35 37
M  V30 37 1 36 38
M  V30 38 2 37 39
M  V30 39 1 38 40
M  V30 40 2 38 41
M  V30 41 2 40 42
M  V30 42 2 40 43
M  V30 43 1 40 44
M  V30 44 1 41 45
M  V30 45 1 44 46
M  V30 46 1 44 47
M  V30 47 1 44 48
M  V30 48 1 49 45 CFG=1
M  V30 49 1 49 50
M  V30 50 1 49 51
M  V30 51 1 50 52
M  V30 52 1 51 53
M  V30 53 1 52 54
M  V30 54 1 53 55
M  V30 55 2 54 56
M  V30 56 1 54 57
M  V30 57 1 55 58
M  V30 58 1 55 59
M  V30 59 1 56 60
M  V30 60 2 57 61
M  V30 61 1 58 62
M  V30 62 1 59 63
M  V30 63 2 60 64
M  V30 64 1 62 65
M  V30 65 1 6 7
M  V30 66 1 13 14
M  V30 67 1 21 22
M  V30 68 1 27 28
M  V30 69 1 39 41
M  V30 70 1 61 64
M  V30 71 1 63 65
M  V30 END BOND
M  V30 BEGIN COLLECTION
M  V30 MDLV30/STEABS ATOMS=(1 49)
M  V30 END COLLECTION
M  V30 END CTAB
M  END
>  <Molecule Name>
Compound 278

>  <Molecule Name 2>
Compound 278

>  <Compound ID>
73

>  <Name>
ABT-263

>  <Uniprot>
Q07817

>  <Target>
BCL-xL

>  <Smiles>
CC1(C)CCC(C2=CC=C(Cl)C=C2)=C(CN2CCN(C3=CC=C(C(=O)NS(=O)(=O)C4=CC=C(N[C@H](CCN5CCOCC5)CSC5=CC=CC=C5)C(S(=O)(=O)C(F)(F)F)=C4)C=C3)CC2)C1

>  <Kd (nM)>


>  <Assay (Kd)>


>  <Ki (nM)>
1.53

>  <Assay (Ki)>
Ki was tested by the AlphaScreen competitive binding assay

>  <IC50 (nM)>


>  <Assay (IC50)>


>  <EC50 (nM)>


>  <Assay (EC50)>


>  <Article DOI>
10.1038/s41467-020-15838-0

>  <Molecular Weight>
974.634

>  <Exact Mass>
973.2955098

>  <XLogP3>
9.58

>  <Heavy Atom Count>
65

>  <Ring Count>
7

>  <Hydrogen Bond Acceptor Count>
11

>  <Hydrogen Bond Donor Count>
2

>  <Rotatable Bond Count>
16

>  <Topological Polar Surface Area>
128.36

>  <Molecular Formula>
C47H55ClF3N5O6S3

>  <InChI>
InChI=1S/C47H55ClF3N5O6S3/c1-46(2)20-18-42(34-8-12-37(48)13-9-34)36(31-46)32-55-22-24-56(25-23-55)39-14-10-35(11-15-39)45(57)53-65(60,61)41-16-17-43(44(30-41)64(58,59)47(49,50)51)52-38(19-21-54-26-28-62-29-27-54)33-63-40-6-4-3-5-7-40/h3-17,30,38,52H,18-29,31-33H2,1-2H3,(H,53,57)/t38-/m1/s1

>  <InChI Key>
JLYAXFNOILIKPP-KXQOOQHDSA-N

>  <BindingDB>
50270877

>  <PubChem>
24978538

>  <ChEMBL>
CHEMBL443684

$$$$
74
Actelion Java MolfileCreator 2.0

  0  0  0  0  0  0              0 V3000
M  V30 BEGIN CTAB
M  V30 COUNTS 46 51 0 0 0
M  V30 BEGIN ATOM
M  V30 1 Cl 1.732 1.4999 0.0 0
M  V30 2 C 2.598 1.0 0.0 0
M  V30 3 C 2.598 0.0 0.0 0
M  V30 4 C 3.4641 1.4999 0.0 0
M  V30 5 O 1.732 -0.5 0.0 0
M  V30 6 C 3.4641 -0.5 0.0 0
M  V30 7 C 4.3301 1.0 0.0 0
M  V30 8 C 0.866 0.0 0.0 0
M  V30 9 C 4.3301 0.0 0.0 0
M  V30 10 C 5.1961 1.5 0.0 0
M  V30 11 C 0.0 -0.5 0.0 0
M  V30 12 O 5.1961 -0.5 0.0 0
M  V30 13 N 5.1961 2.5 0.0 0
M  V30 14 C -0.866 0.0 0.0 0
M  V30 15 C 0.0 -1.4999 0.0 0
M  V30 16 C 5.1961 -1.5 0.0 0
M  V30 17 C 6.0621 3.0 0.0 0 CFG=2
M  V30 18 C 4.3301 3.0 0.0 0
M  V30 19 C -1.732 -0.4999 0.0 0
M  V30 20 C -0.866 1.0 0.0 0
M  V30 21 C -0.866 -1.9999 0.0 0
M  V30 22 C 6.0621 -2.0 0.0 0
M  V30 23 C 6.9282 2.4999 0.0 0
M  V30 24 C 6.0621 4.0 0.0 0
M  V30 25 C 4.3301 4.0 0.0 0
M  V30 26 C -2.598 0.0 0.0 0
M  V30 27 C -1.732 -1.4999 0.0 0
M  V30 28 C 6.0621 -3.0 0.0 0
M  V30 29 C 6.9282 -1.5 0.0 0
M  V30 30 O 6.9282 1.4999 0.0 0
M  V30 31 O 7.7942 2.9999 0.0 0
M  V30 32 C 5.1961 4.5 0.0 0
M  V30 33 C -2.598 1.0 0.0 0
M  V30 34 C -3.4641 -0.4999 0.0 0
M  V30 35 C 6.9282 -3.5 0.0 0
M  V30 36 C 7.7942 -2.0 0.0 0
M  V30 37 C -3.4641 1.5 0.0 0
M  V30 38 C -4.3301 0.0 0.0 0
M  V30 39 C 6.9282 -4.5 0.0 0
M  V30 40 C 7.7942 -3.0 0.0 0
M  V30 41 O -3.4641 2.5 0.0 0
M  V30 42 C -4.3301 1.0 0.0 0
M  V30 43 N 6.9282 -5.5 0.0 0
M  V30 44 C -4.3301 3.0 0.0 0
M  V30 45 O -5.1961 1.5 0.0 0
M  V30 46 C -5.1961 2.5 0.0 0
M  V30 END ATOM
M  V30 BEGIN BOND
M  V30 1 1 1 2
M  V30 2 2 2 3
M  V30 3 1 2 4
M  V30 4 1 3 5
M  V30 5 1 3 6
M  V30 6 2 4 7
M  V30 7 1 5 8
M  V30 8 2 6 9
M  V30 9 1 7 10
M  V30 10 1 8 11
M  V30 11 1 9 12
M  V30 12 1 10 13
M  V30 13 2 11 14
M  V30 14 1 11 15
M  V30 15 1 12 16
M  V30 16 1 17 13
M  V30 17 1 13 18
M  V30 18 1 14 19
M  V30 19 1 14 20
M  V30 20 2 15 21
M  V30 21 1 16 22
M  V30 22 1 17 23 CFG=1
M  V30 23 1 17 24
M  V30 24 1 18 25
M  V30 25 1 19 26
M  V30 26 2 19 27
M  V30 27 2 22 28
M  V30 28 1 22 29
M  V30 29 2 23 30
M  V30 30 1 23 31
M  V30 31 1 24 32
M  V30 32 2 26 33
M  V30 33 1 26 34
M  V30 34 1 28 35
M  V30 35 2 29 36
M  V30 36 1 33 37
M  V30 37 2 34 38
M  V30 38 1 35 39
M  V30 39 2 35 40
M  V30 40 1 37 41
M  V30 41 2 37 42
M  V30 42 3 39 43
M  V30 43 1 41 44
M  V30 44 1 42 45
M  V30 45 1 44 46
M  V30 46 1 7 9
M  V30 47 1 21 27
M  V30 48 1 25 32
M  V30 49 1 36 40
M  V30 50 1 38 42
M  V30 51 1 45 46
M  V30 END BOND
M  V30 BEGIN COLLECTION
M  V30 MDLV30/STERAC1 ATOMS=(1 17)
M  V30 END COLLECTION
M  V30 END CTAB
M  END
>  <Molecule Name>
Compound 279

>  <Molecule Name 2>
Compound 279

>  <Compound ID>
74

>  <Name>
BMS-1198

>  <Uniprot>
Q9NZQ7

>  <Target>
PD-L1

>  <Smiles>
CC1=C(COC2=CC(OCC3=CC=CC(C#N)=C3)=C(CN3CCCCC3C(=O)O)C=C2Cl)C=CC=C1C1=CC=C2OCCOC2=C1

>  <Kd (nM)>


>  <Assay (Kd)>


>  <Ki (nM)>


>  <Assay (Ki)>


>  <IC50 (nM)>
56.6

>  <Assay (IC50)>
IC50 of PD-1/PD-L1 interaction was tested by the HTRF binding assay

>  <EC50 (nM)>


>  <Assay (EC50)>


>  <Article DOI>
10.1016/j.ejmech.2020.112377

>  <Molecular Weight>
639.148

>  <Exact Mass>
638.2183645

>  <XLogP3>
4.94

>  <Heavy Atom Count>
46

>  <Ring Count>
6

>  <Hydrogen Bond Acceptor Count>
7

>  <Hydrogen Bond Donor Count>
1

>  <Rotatable Bond Count>
10

>  <Topological Polar Surface Area>
101.25

>  <Molecular Formula>
C37H35ClN2O6

>  <InChI>
InChI=1S/C37H35ClN2O6/c1-24-28(8-5-9-30(24)27-11-12-33-36(18-27)44-15-14-43-33)23-46-35-19-34(45-22-26-7-4-6-25(16-26)20-39)29(17-31(35)38)21-40-13-3-2-10-32(40)37(41)42/h4-9,11-12,16-19,32H,2-3,10,13-15,21-23H2,1H3,(H,41,42)

>  <InChI Key>
RELGDHKISWTSBN-UHFFFAOYSA-N

>  <BindingDB>


>  <PubChem>
118434619

>  <ChEMBL>


$$$$
75
Actelion Java MolfileCreator 2.0

  0  0  0  0  0  0              0 V3000
M  V30 BEGIN CTAB
M  V30 COUNTS 27 30 0 0 0
M  V30 BEGIN ATOM
M  V30 1 O 4.3301 0.9999 0.0 0
M  V30 2 C 4.3301 0.0 0.0 0
M  V30 3 C 3.4641 -0.5 0.0 0
M  V30 4 C 5.1961 -0.5 0.0 0
M  V30 5 C 3.4641 -1.5 0.0 0
M  V30 6 C 2.598 0.0 0.0 0
M  V30 7 C 5.1961 -1.5 0.0 0
M  V30 8 O 4.3301 -2.0 0.0 0
M  V30 9 C 2.598 -2.0 0.0 0
M  V30 10 C 1.732 -0.5 0.0 0
M  V30 11 C 6.0621 -2.0 0.0 0
M  V30 12 C 1.732 -1.4999 0.0 0
M  V30 13 C 2.598 -3.0 0.0 0
M  V30 14 O 0.866 0.0 0.0 0
M  V30 15 C 6.0621 -3.0 0.0 0
M  V30 16 C 6.9282 -1.5 0.0 0
M  V30 17 C 0.866 -1.9999 0.0 0
M  V30 18 O 3.4641 -3.5 0.0 0
M  V30 19 C 1.732 -3.4999 0.0 0
M  V30 20 C 0.0 -0.5 0.0 0
M  V30 21 C 6.9282 -3.5 0.0 0
M  V30 22 C 7.7942 -2.0 0.0 0
M  V30 23 O 0.0 -1.4999 0.0 0
M  V30 24 C 0.866 -2.9999 0.0 0
M  V30 25 C 4.3301 -3.0 0.0 0
M  V30 26 C 7.7942 -3.0 0.0 0
M  V30 27 C -0.866 -1.9999 0.0 0
M  V30 END ATOM
M  V30 BEGIN BOND
M  V30 1 2 1 2
M  V30 2 1 2 3
M  V30 3 1 2 4
M  V30 4 2 3 5
M  V30 5 1 3 6
M  V30 6 2 4 7
M  V30 7 1 5 8
M  V30 8 1 5 9
M  V30 9 2 6 10
M  V30 10 1 7 11
M  V30 11 1 9 12
M  V30 12 2 9 13
M  V30 13 1 10 14
M  V30 14 2 11 15
M  V30 15 1 11 16
M  V30 16 2 12 17
M  V30 17 1 13 18
M  V30 18 1 13 19
M  V30 19 1 14 20
M  V30 20 1 15 21
M  V30 21 2 16 22
M  V30 22 1 17 23
M  V30 23 1 17 24
M  V30 24 1 18 25
M  V30 25 2 21 26
M  V30 26 1 23 27
M  V30 27 1 7 8
M  V30 28 1 10 12
M  V30 29 2 19 24
M  V30 30 1 22 26
M  V30 END BOND
M  V30 END CTAB
M  END
>  <Molecule Name>
Compound 280

>  <Molecule Name 2>
Compound 280

>  <Compound ID>
75

>  <Name>


>  <Uniprot>
Q16678

>  <Target>
CYP1B1

>  <Smiles>
COC1=CC=C(OC)C2=C1C(OC)=CC1=C2OC(C2=CC=CC=C2)=CC1=O

>  <Kd (nM)>


>  <Assay (Kd)>


>  <Ki (nM)>


>  <Assay (Ki)>


>  <IC50 (nM)>
1.4

>  <Assay (IC50)>
IC50 of CYP1B1 was determined by the standard EROD assay

>  <EC50 (nM)>


>  <Assay (EC50)>


>  <Article DOI>
10.1016/j.ejmech.2019.112028

>  <Molecular Weight>
362.381

>  <Exact Mass>
362.1154237

>  <XLogP3>
4.34

>  <Heavy Atom Count>
27

>  <Ring Count>
4

>  <Hydrogen Bond Acceptor Count>
5

>  <Hydrogen Bond Donor Count>
0

>  <Rotatable Bond Count>
4

>  <Topological Polar Surface Area>
57.9

>  <Molecular Formula>
C22H18O5

>  <InChI>
InChI=1S/C22H18O5/c1-24-16-9-10-17(25-2)21-20(16)19(26-3)11-14-15(23)12-18(27-22(14)21)13-7-5-4-6-8-13/h4-12H,1-3H3

>  <InChI Key>
RWKCNXGHHHVDGY-UHFFFAOYSA-N

>  <BindingDB>
50081709

>  <PubChem>
118735488

>  <ChEMBL>
CHEMBL3422257

$$$$
76
Actelion Java MolfileCreator 2.0

  0  0  0  0  0  0              0 V3000
M  V30 BEGIN CTAB
M  V30 COUNTS 31 34 0 0 0
M  V30 BEGIN ATOM
M  V30 1 P 3.8971 0.0 0.0 0
M  V30 2 O 4.6471 -1.299 0.0 0
M  V30 3 O 2.598 -0.75 0.0 0
M  V30 4 O 5.1961 0.75 0.0 0
M  V30 5 O 3.1471 1.299 0.0 0
M  V30 6 C 1.299 0.0 0.0 0
M  V30 7 C 0.0 -0.75 0.0 0 CFG=1
M  V30 8 O -1.3703 -0.1398 0.0 0
M  V30 9 C -0.1567 -2.2417 0.0 0 CFG=1
M  V30 10 C -2.374 -1.2546 0.0 0 CFG=2
M  V30 11 O 0.9579 -3.2454 0.0 0
M  V30 12 C -1.624 -2.5536 0.0 0 CFG=2
M  V30 13 N -3.8657 -1.0978 0.0 0
M  V30 14 O -2.2341 -3.9239 0.0 0
M  V30 15 C -4.6157 0.2012 0.0 0
M  V30 16 C -4.8694 -2.2125 0.0 0
M  V30 17 N -4.1522 1.6278 0.0 0
M  V30 18 C -6.083 -0.1106 0.0 0
M  V30 19 N -6.2398 -1.6024 0.0 0 CHG=1
M  V30 20 C -5.1559 2.7425 0.0 0
M  V30 21 C -7.0867 1.004 0.0 0
M  V30 22 C -7.5388 -2.3524 0.0 0
M  V30 23 N -6.6231 2.4306 0.0 0
M  V30 24 N -4.6924 4.1691 0.0 0
M  V30 25 O -8.5539 0.6922 0.0 0
M  V30 26 C -7.5388 -3.8524 0.0 0
M  V30 27 C -8.8378 -4.6024 0.0 0
M  V30 28 C -6.2398 -4.6024 0.0 0
M  V30 29 C -8.8378 -6.1024 0.0 0
M  V30 30 C -6.2398 -6.1024 0.0 0
M  V30 31 C -7.5388 -6.8524 0.0 0
M  V30 END ATOM
M  V30 BEGIN BOND
M  V30 1 2 1 2
M  V30 2 1 1 3
M  V30 3 1 1 4
M  V30 4 1 1 5
M  V30 5 1 3 6
M  V30 6 1 7 6 CFG=3
M  V30 7 1 7 8
M  V30 8 1 9 7
M  V30 9 1 10 8
M  V30 10 1 9 11 CFG=1
M  V30 11 1 12 9
M  V30 12 1 10 13 CFG=3
M  V30 13 1 12 14 CFG=1
M  V30 14 1 13 15
M  V30 15 1 13 16
M  V30 16 1 15 17
M  V30 17 2 15 18
M  V30 18 2 16 19
M  V30 19 2 17 20
M  V30 20 1 18 21
M  V30 21 1 19 22
M  V30 22 1 20 23
M  V30 23 1 20 24
M  V30 24 2 21 25
M  V30 25 1 22 26
M  V30 26 2 26 27
M  V30 27 1 26 28
M  V30 28 1 27 29
M  V30 29 2 28 30
M  V30 30 2 29 31
M  V30 31 1 10 12
M  V30 32 1 18 19
M  V30 33 1 21 23
M  V30 34 1 30 31
M  V30 END BOND
M  V30 BEGIN COLLECTION
M  V30 MDLV30/STEABS ATOMS=(4 7 9 10 12)
M  V30 END COLLECTION
M  V30 END CTAB
M  END
>  <Molecule Name>
Compound 281

>  <Molecule Name 2>
Compound 281

>  <Compound ID>
76

>  <Name>
7-BnGMP

>  <Uniprot>
P06730

>  <Target>
eIF4E

>  <Smiles>
NC1=NC2=C(C(=O)[NH]1)[N+](CC1=CC=CC=C1)=CN2[C@@H]1O[C@H](COP(=O)(O)O)[C@@H](O)[C@H]1O

>  <Kd (nM)>
6950

>  <Assay (Kd)>
Kd was determined by the mass spectrometry

>  <Ki (nM)>


>  <Assay (Ki)>


>  <IC50 (nM)>


>  <Assay (IC50)>


>  <EC50 (nM)>


>  <Assay (EC50)>


>  <Article DOI>
10.1016/j.jmb.2007.06.033

>  <Molecular Weight>
454.356

>  <Exact Mass>
454.1122257

>  <XLogP3>
-1.81

>  <Heavy Atom Count>
31

>  <Ring Count>
4

>  <Hydrogen Bond Acceptor Count>
9

>  <Hydrogen Bond Donor Count>
6

>  <Rotatable Bond Count>
6

>  <Topological Polar Surface Area>
197.03

>  <Molecular Formula>
C17H21N5O8P+

>  <InChI>
InChI=1S/C17H20N5O8P/c18-17-19-14-11(15(25)20-17)21(6-9-4-2-1-3-5-9)8-22(14)16-13(24)12(23)10(30-16)7-29-31(26,27)28/h1-5,8,10,12-13,16,23-24H,6-7H2,(H4-,18,19,20,25,26,27,28)/p+1/t10-,12-,13-,16-/m1/s1

>  <InChI Key>
WMKJRKYLDWLLPS-XNIJJKJLSA-O

>  <BindingDB>
50249977

>  <PubChem>
135566346

>  <ChEMBL>
CHEMBL1094975

$$$$
77
Actelion Java MolfileCreator 2.0

  0  0  0  0  0  0              0 V3000
M  V30 BEGIN CTAB
M  V30 COUNTS 32 35 0 0 0
M  V30 BEGIN ATOM
M  V30 1 P 3.8971 0.0 0.0 0
M  V30 2 O 4.6471 -1.299 0.0 0
M  V30 3 O 2.598 -0.75 0.0 0
M  V30 4 O 5.1961 0.75 0.0 0
M  V30 5 O 3.1471 1.299 0.0 0
M  V30 6 C 1.299 0.0 0.0 0
M  V30 7 C 0.0 -0.75 0.0 0 CFG=1
M  V30 8 O -1.3703 -0.1398 0.0 0
M  V30 9 C -0.1567 -2.2417 0.0 0 CFG=1
M  V30 10 C -2.374 -1.2546 0.0 0 CFG=2
M  V30 11 O 0.9579 -3.2454 0.0 0
M  V30 12 C -1.624 -2.5536 0.0 0 CFG=2
M  V30 13 N -3.8657 -1.0978 0.0 0
M  V30 14 O -2.2341 -3.9239 0.0 0
M  V30 15 C -4.6157 0.2012 0.0 0
M  V30 16 C -4.8694 -2.2125 0.0 0
M  V30 17 N -4.1522 1.6278 0.0 0
M  V30 18 C -6.083 -0.1106 0.0 0
M  V30 19 N -6.2398 -1.6024 0.0 0 CHG=1
M  V30 20 C -5.1559 2.7425 0.0 0
M  V30 21 C -7.0867 1.004 0.0 0
M  V30 22 C -7.5388 -2.3524 0.0 0
M  V30 23 N -6.6231 2.4306 0.0 0
M  V30 24 N -4.6924 4.1691 0.0 0
M  V30 25 O -8.5539 0.6922 0.0 0
M  V30 26 C -7.5388 -3.8524 0.0 0
M  V30 27 C -8.8378 -4.6024 0.0 0
M  V30 28 C -6.2398 -4.6024 0.0 0
M  V30 29 C -8.8378 -6.1024 0.0 0
M  V30 30 C -6.2398 -6.1024 0.0 0
M  V30 31 C -7.5388 -6.8524 0.0 0
M  V30 32 F -7.5388 -8.3524 0.0 0
M  V30 END ATOM
M  V30 BEGIN BOND
M  V30 1 2 1 2
M  V30 2 1 1 3
M  V30 3 1 1 4
M  V30 4 1 1 5
M  V30 5 1 3 6
M  V30 6 1 7 6 CFG=3
M  V30 7 1 7 8
M  V30 8 1 9 7
M  V30 9 1 10 8
M  V30 10 1 9 11 CFG=1
M  V30 11 1 12 9
M  V30 12 1 10 13 CFG=3
M  V30 13 1 12 14 CFG=1
M  V30 14 1 13 15
M  V30 15 1 13 16
M  V30 16 1 15 17
M  V30 17 2 15 18
M  V30 18 2 16 19
M  V30 19 2 17 20
M  V30 20 1 18 21
M  V30 21 1 19 22
M  V30 22 1 20 23
M  V30 23 1 20 24
M  V30 24 2 21 25
M  V30 25 1 22 26
M  V30 26 2 26 27
M  V30 27 1 26 28
M  V30 28 1 27 29
M  V30 29 2 28 30
M  V30 30 2 29 31
M  V30 31 1 31 32
M  V30 32 1 10 12
M  V30 33 1 18 19
M  V30 34 1 21 23
M  V30 35 1 30 31
M  V30 END BOND
M  V30 BEGIN COLLECTION
M  V30 MDLV30/STEABS ATOMS=(4 7 9 10 12)
M  V30 END COLLECTION
M  V30 END CTAB
M  END
>  <Molecule Name>
Compound 282

>  <Molecule Name 2>
Compound 282

>  <Compound ID>
77

>  <Name>
FBn7GMP

>  <Uniprot>
P06730

>  <Target>
eIF4E

>  <Smiles>
NC1=NC2=C(C(=O)[NH]1)[N+](CC1=CC=C(F)C=C1)=CN2[C@@H]1O[C@H](COP(=O)(O)O)[C@@H](O)[C@H]1O

>  <Kd (nM)>
1960

>  <Assay (Kd)>
Kd was determined by the mass spectrometry

>  <Ki (nM)>


>  <Assay (Ki)>


>  <IC50 (nM)>


>  <Assay (IC50)>


>  <EC50 (nM)>


>  <Assay (EC50)>


>  <Article DOI>
10.1016/j.jmb.2007.06.033

>  <Molecular Weight>
472.346

>  <Exact Mass>
472.1028039

>  <XLogP3>
-1.71

>  <Heavy Atom Count>
32

>  <Ring Count>
4

>  <Hydrogen Bond Acceptor Count>
9

>  <Hydrogen Bond Donor Count>
6

>  <Rotatable Bond Count>
6

>  <Topological Polar Surface Area>
197.03

>  <Molecular Formula>
C17H20FN5O8P+

>  <InChI>
InChI=1S/C17H19FN5O8P/c18-9-3-1-8(2-4-9)5-22-7-23(14-11(22)15(26)21-17(19)20-14)16-13(25)12(24)10(31-16)6-30-32(27,28)29/h1-4,7,10,12-13,16,24-25H,5-6H2,(H4-,19,20,21,26,27,28,29)/p+1/t10-,12-,13-,16-/m1/s1

>  <InChI Key>
VLABRVWLURSKLS-XNIJJKJLSA-O

>  <BindingDB>
50316315

>  <PubChem>
135566347

>  <ChEMBL>
CHEMBL1097971

$$$$
78
Actelion Java MolfileCreator 2.0

  0  0  0  0  0  0              0 V3000
M  V30 BEGIN CTAB
M  V30 COUNTS 35 38 0 0 0
M  V30 BEGIN ATOM
M  V30 1 P 3.8971 0.0 0.0 0
M  V30 2 O 4.6471 1.299 0.0 0
M  V30 3 O 5.1961 -0.75 0.0 0
M  V30 4 O 2.598 -0.75 0.0 0
M  V30 5 O 3.1471 1.299 0.0 0
M  V30 6 P 5.1961 -2.25 0.0 0
M  V30 7 C 1.299 0.0 0.0 0
M  V30 8 O 6.6961 -2.25 0.0 0
M  V30 9 O 5.1961 -3.75 0.0 0
M  V30 10 O 3.6961 -2.25 0.0 0
M  V30 11 C 0.0 -0.75 0.0 0 CFG=1
M  V30 12 O -1.3703 -0.1398 0.0 0
M  V30 13 C -0.1567 -2.2417 0.0 0 CFG=1
M  V30 14 C -2.374 -1.2546 0.0 0 CFG=2
M  V30 15 O 0.9579 -3.2454 0.0 0
M  V30 16 C -1.624 -2.5536 0.0 0 CFG=2
M  V30 17 N -3.8658 -1.0978 0.0 0
M  V30 18 O -2.2341 -3.9239 0.0 0
M  V30 19 C -4.6158 0.2012 0.0 0
M  V30 20 C -4.8694 -2.2125 0.0 0
M  V30 21 N -4.1522 1.6278 0.0 0
M  V30 22 C -6.083 -0.1106 0.0 0
M  V30 23 N -6.2398 -1.6024 0.0 0 CHG=1
M  V30 24 C -5.1559 2.7425 0.0 0
M  V30 25 C -7.0867 1.004 0.0 0
M  V30 26 C -7.5388 -2.3524 0.0 0
M  V30 27 N -6.6231 2.4306 0.0 0
M  V30 28 N -4.6924 4.1691 0.0 0
M  V30 29 O -8.5539 0.6922 0.0 0
M  V30 30 C -7.5388 -3.8524 0.0 0
M  V30 31 C -8.8378 -4.6024 0.0 0
M  V30 32 C -6.2398 -4.6024 0.0 0
M  V30 33 C -8.8378 -6.1024 0.0 0
M  V30 34 C -6.2398 -6.1024 0.0 0
M  V30 35 C -7.5388 -6.8524 0.0 0
M  V30 END ATOM
M  V30 BEGIN BOND
M  V30 1 2 1 2
M  V30 2 1 1 3
M  V30 3 1 1 4
M  V30 4 1 1 5
M  V30 5 1 3 6
M  V30 6 1 4 7
M  V30 7 2 6 8
M  V30 8 1 6 9
M  V30 9 1 6 10
M  V30 10 1 11 7 CFG=3
M  V30 11 1 11 12
M  V30 12 1 13 11
M  V30 13 1 14 12
M  V30 14 1 13 15 CFG=1
M  V30 15 1 16 13
M  V30 16 1 14 17 CFG=3
M  V30 17 1 16 18 CFG=1
M  V30 18 1 17 19
M  V30 19 1 17 20
M  V30 20 1 19 21
M  V30 21 2 19 22
M  V30 22 2 20 23
M  V30 23 2 21 24
M  V30 24 1 22 25
M  V30 25 1 23 26
M  V30 26 1 24 27
M  V30 27 1 24 28
M  V30 28 2 25 29
M  V30 29 1 26 30
M  V30 30 2 30 31
M  V30 31 1 30 32
M  V30 32 1 31 33
M  V30 33 2 32 34
M  V30 34 2 33 35
M  V30 35 1 14 16
M  V30 36 1 22 23
M  V30 37 1 25 27
M  V30 38 1 34 35
M  V30 END BOND
M  V30 BEGIN COLLECTION
M  V30 MDLV30/STEABS ATOMS=(4 11 13 14 16)
M  V30 END COLLECTION
M  V30 END CTAB
M  END
>  <Molecule Name>
Compound 283

>  <Molecule Name 2>
Compound 283

>  <Compound ID>
78

>  <Name>
Bn7GDP

>  <Uniprot>
P06730

>  <Target>
eIF4E

>  <Smiles>
NC1=NC2=C(C(=O)[NH]1)[N+](CC1=CC=CC=C1)=CN2[C@@H]1O[C@H](COP(=O)(O)OP(=O)(O)O)[C@@H](O)[C@H]1O

>  <Kd (nM)>


>  <Assay (Kd)>


>  <Ki (nM)>


>  <Assay (Ki)>


>  <IC50 (nM)>


>  <Assay (IC50)>


>  <EC50 (nM)>


>  <Assay (EC50)>


>  <Article DOI>


>  <Molecular Weight>
534.335

>  <Exact Mass>
534.0785562

>  <XLogP3>
-3.75

>  <Heavy Atom Count>
35

>  <Ring Count>
4

>  <Hydrogen Bond Acceptor Count>
11

>  <Hydrogen Bond Donor Count>
7

>  <Rotatable Bond Count>
8

>  <Topological Polar Surface Area>
243.56

>  <Molecular Formula>
C17H22N5O11P2+

>  <InChI>
InChI=1S/C17H21N5O11P2/c18-17-19-14-11(15(25)20-17)21(6-9-4-2-1-3-5-9)8-22(14)16-13(24)12(23)10(32-16)7-31-35(29,30)33-34(26,27)28/h1-5,8,10,12-13,16,23-24H,6-7H2,(H5-,18,19,20,25,26,27,28,29,30)/p+1/t10-,12-,13-,16-/m1/s1

>  <InChI Key>
CUFZLUFOVYCPQJ-XNIJJKJLSA-O

>  <BindingDB>


>  <PubChem>
146019273

>  <ChEMBL>


$$$$
79
Actelion Java MolfileCreator 2.0

  0  0  0  0  0  0              0 V3000
M  V30 BEGIN CTAB
M  V30 COUNTS 36 39 0 0 0
M  V30 BEGIN ATOM
M  V30 1 Cl 16.8485 2.7276 0.0 0
M  V30 2 C 15.5494 3.4776 0.0 0
M  V30 3 C 15.5494 4.9776 0.0 0
M  V30 4 C 14.2504 2.7276 0.0 0
M  V30 5 C 14.2504 5.7276 0.0 0
M  V30 6 C 12.9514 3.4776 0.0 0
M  V30 7 C 12.9514 4.9776 0.0 0
M  V30 8 C 11.6523 5.7276 0.0 0
M  V30 9 N 10.3533 4.9776 0.0 0 CHG=1
M  V30 10 C 8.983 5.5877 0.0 0
M  V30 11 C 10.1965 3.4858 0.0 0
M  V30 12 C 8.5194 7.0143 0.0 0
M  V30 13 C 7.9793 4.473 0.0 0
M  V30 14 N 8.7293 3.1739 0.0 0
M  V30 15 O 9.5231 8.129 0.0 0
M  V30 16 N 7.0522 7.3261 0.0 0
M  V30 17 N 6.512 4.7848 0.0 0
M  V30 18 C 8.1192 1.8036 0.0 0 CFG=2
M  V30 19 C 6.0485 6.2114 0.0 0
M  V30 20 O 6.6519 1.4917 0.0 0
M  V30 21 C 8.8692 0.5046 0.0 0 CFG=2
M  V30 22 N 4.5813 6.5233 0.0 0
M  V30 23 C 6.4951 0.0 0.0 0 CFG=1
M  V30 24 O 10.3609 0.3478 0.0 0
M  V30 25 C 7.8655 -0.6101 0.0 0 CFG=1
M  V30 26 C 5.1961 -0.75 0.0 0
M  V30 27 O 8.1773 -2.0773 0.0 0
M  V30 28 O 3.8971 0.0 0.0 0
M  V30 29 P 2.598 -0.75 0.0 0
M  V30 30 O 1.848 -2.049 0.0 0
M  V30 31 O 1.299 0.0 0.0 0
M  V30 32 O 3.348 -2.049 0.0 0
M  V30 33 P 1.299 1.5 0.0 0
M  V30 34 O -0.2009 1.5 0.0 0
M  V30 35 O 1.299 3.0 0.0 0
M  V30 36 O 2.799 1.5 0.0 0
M  V30 END ATOM
M  V30 BEGIN BOND
M  V30 1 1 1 2
M  V30 2 2 2 3
M  V30 3 1 2 4
M  V30 4 1 3 5
M  V30 5 2 4 6
M  V30 6 2 5 7
M  V30 7 1 7 8
M  V30 8 1 8 9
M  V30 9 1 9 10
M  V30 10 2 9 11
M  V30 11 1 10 12
M  V30 12 2 10 13
M  V30 13 1 11 14
M  V30 14 2 12 15
M  V30 15 1 12 16
M  V30 16 1 13 17
M  V30 17 1 18 14 CFG=1
M  V30 18 1 16 19
M  V30 19 1 18 20
M  V30 20 1 21 18
M  V30 21 1 19 22
M  V30 22 1 23 20
M  V30 23 1 21 24 CFG=3
M  V30 24 1 25 21
M  V30 25 1 23 26 CFG=1
M  V30 26 1 25 27 CFG=3
M  V30 27 1 26 28
M  V30 28 1 28 29
M  V30 29 2 29 30
M  V30 30 1 29 31
M  V30 31 1 29 32
M  V30 32 1 31 33
M  V30 33 2 33 34
M  V30 34 1 33 35
M  V30 35 1 33 36
M  V30 36 1 6 7
M  V30 37 1 13 14
M  V30 38 2 17 19
M  V30 39 1 23 25
M  V30 END BOND
M  V30 BEGIN COLLECTION
M  V30 MDLV30/STEABS ATOMS=(4 18 21 23 25)
M  V30 END COLLECTION
M  V30 END CTAB
M  END
>  <Molecule Name>
Compound 284

>  <Molecule Name 2>
Compound 284

>  <Compound ID>
79

>  <Name>
7-(p-chlorobenzyl) GDP

>  <Uniprot>
P06730

>  <Target>
eIF4E

>  <Smiles>
NC1=NC2=C(C(=O)[NH]1)[N+](CC1=CC=C(Cl)C=C1)=CN2[C@@H]1O[C@H](COP(=O)(O)OP(=O)(O)O)[C@@H](O)[C@H]1O

>  <Kd (nM)>


>  <Assay (Kd)>


>  <Ki (nM)>


>  <Assay (Ki)>


>  <IC50 (nM)>


>  <Assay (IC50)>


>  <EC50 (nM)>


>  <Assay (EC50)>


>  <Article DOI>
10.1021/bi9830213

>  <Molecular Weight>
568.78

>  <Exact Mass>
568.0395839

>  <XLogP3>
-3.12

>  <Heavy Atom Count>
36

>  <Ring Count>
4

>  <Hydrogen Bond Acceptor Count>
11

>  <Hydrogen Bond Donor Count>
7

>  <Rotatable Bond Count>
8

>  <Topological Polar Surface Area>
243.56

>  <Molecular Formula>
C17H21ClN5O11P2+

>  <InChI>
InChI=1S/C17H20ClN5O11P2/c18-9-3-1-8(2-4-9)5-22-7-23(14-11(22)15(26)21-17(19)20-14)16-13(25)12(24)10(33-16)6-32-36(30,31)34-35(27,28)29/h1-4,7,10,12-13,16,24-25H,5-6H2,(H5-,19,20,21,26,27,28,29,30,31)/p+1/t10-,12-,13-,16-/m1/s1

>  <InChI Key>
AGDQKNOWUGPBCP-XNIJJKJLSA-O

>  <BindingDB>


>  <PubChem>


>  <ChEMBL>


$$$$
80
Actelion Java MolfileCreator 2.0

  0  0  0  0  0  0              0 V3000
M  V30 BEGIN CTAB
M  V30 COUNTS 24 26 0 0 0
M  V30 BEGIN ATOM
M  V30 1 P 2.598 0.0 0.0 0
M  V30 2 O 3.098 -0.866 0.0 0
M  V30 3 O 1.732 -0.5 0.0 0
M  V30 4 O 3.4641 0.5 0.0 0
M  V30 5 O 2.098 0.866 0.0 0
M  V30 6 C 0.866 0.0 0.0 0
M  V30 7 C 0.0 -0.5 0.0 0 CFG=1
M  V30 8 O -0.9135 -0.0932 0.0 0
M  V30 9 C -0.1045 -1.4945 0.0 0 CFG=1
M  V30 10 C -1.5826 -0.8364 0.0 0 CFG=2
M  V30 11 O 0.6386 -2.1636 0.0 0
M  V30 12 C -1.0826 -1.7024 0.0 0 CFG=2
M  V30 13 N -2.5771 -0.7318 0.0 0
M  V30 14 O -1.4894 -2.6159 0.0 0
M  V30 15 C -3.0771 0.1341 0.0 0
M  V30 16 C -3.2463 -1.475 0.0 0
M  V30 17 N -2.7681 1.0852 0.0 0
M  V30 18 C -4.0553 -0.0737 0.0 0
M  V30 19 N -4.1598 -1.0682 0.0 0
M  V30 20 C -3.4373 1.8283 0.0 0
M  V30 21 C -4.7244 0.6693 0.0 0
M  V30 22 N -4.4154 1.6204 0.0 0
M  V30 23 N -3.1282 2.7794 0.0 0
M  V30 24 O -5.7026 0.4614 0.0 0
M  V30 END ATOM
M  V30 BEGIN BOND
M  V30 1 2 1 2
M  V30 2 1 1 3
M  V30 3 1 1 4
M  V30 4 1 1 5
M  V30 5 1 3 6
M  V30 6 1 7 6 CFG=3
M  V30 7 1 7 8
M  V30 8 1 9 7
M  V30 9 1 10 8
M  V30 10 1 9 11 CFG=1
M  V30 11 1 12 9
M  V30 12 1 10 13 CFG=3
M  V30 13 1 12 14 CFG=1
M  V30 14 1 13 15
M  V30 15 1 13 16
M  V30 16 1 15 17
M  V30 17 2 15 18
M  V30 18 2 16 19
M  V30 19 2 17 20
M  V30 20 1 18 21
M  V30 21 1 20 22
M  V30 22 1 20 23
M  V30 23 2 21 24
M  V30 24 1 10 12
M  V30 25 1 18 19
M  V30 26 1 21 22
M  V30 END BOND
M  V30 BEGIN COLLECTION
M  V30 MDLV30/STEABS ATOMS=(4 7 9 10 12)
M  V30 END COLLECTION
M  V30 END CTAB
M  END
>  <Molecule Name>
Compound 285

>  <Molecule Name 2>
Compound 285

>  <Compound ID>
80

>  <Name>
GMP

>  <Uniprot>
P06730

>  <Target>
eIF4E

>  <Smiles>
NC1=NC2=C(N=CN2[C@@H]2O[C@H](COP(=O)(O)O)[C@@H](O)[C@H]2O)C(=O)[NH]1

>  <Kd (nM)>
55730

>  <Assay (Kd)>
Kd was determined by the mass spectrometry

>  <Ki (nM)>


>  <Assay (Ki)>


>  <IC50 (nM)>


>  <Assay (IC50)>


>  <EC50 (nM)>


>  <Assay (EC50)>


>  <Article DOI>
10.1016/j.jmb.2007.06.033

>  <Molecular Weight>
363.223

>  <Exact Mass>
363.057999

>  <XLogP3>
-3.54

>  <Heavy Atom Count>
24

>  <Ring Count>
3

>  <Hydrogen Bond Acceptor Count>
10

>  <Hydrogen Bond Donor Count>
6

>  <Rotatable Bond Count>
4

>  <Topological Polar Surface Area>
206.04

>  <Molecular Formula>
C10H14N5O8P

>  <InChI>
InChI=1S/C10H14N5O8P/c11-10-13-7-4(8(18)14-10)12-2-15(7)9-6(17)5(16)3(23-9)1-22-24(19,20)21/h2-3,5-6,9,16-17H,1H2,(H2,19,20,21)(H3,11,13,14,18)/t3-,5-,6-,9-/m1/s1

>  <InChI Key>
RQFCJASXJCIDSX-UUOKFMHZSA-N

>  <BindingDB>
50010318

>  <PubChem>
135398631

>  <ChEMBL>
CHEMBL283807

$$$$
81
Actelion Java MolfileCreator 2.0

  0  0  0  0  0  0              0 V3000
M  V30 BEGIN CTAB
M  V30 COUNTS 28 30 0 0 0
M  V30 BEGIN ATOM
M  V30 1 P 3.8971 0.0 0.0 0
M  V30 2 O 4.6471 1.299 0.0 0
M  V30 3 O 5.1961 -0.75 0.0 0
M  V30 4 O 2.598 -0.75 0.0 0
M  V30 5 O 3.1471 1.299 0.0 0
M  V30 6 P 5.1961 -2.25 0.0 0
M  V30 7 C 1.299 0.0 0.0 0
M  V30 8 O 6.6961 -2.25 0.0 0
M  V30 9 O 5.1961 -3.75 0.0 0
M  V30 10 O 3.6961 -2.25 0.0 0
M  V30 11 C 0.0 -0.75 0.0 0 CFG=1
M  V30 12 O -1.3703 -0.1398 0.0 0
M  V30 13 C -0.1567 -2.2417 0.0 0 CFG=1
M  V30 14 C -2.374 -1.2546 0.0 0 CFG=2
M  V30 15 O 0.9579 -3.2454 0.0 0
M  V30 16 C -1.624 -2.5536 0.0 0 CFG=2
M  V30 17 N -3.8658 -1.0978 0.0 0
M  V30 18 O -2.2341 -3.9239 0.0 0
M  V30 19 C -4.6158 0.2012 0.0 0
M  V30 20 C -4.8694 -2.2125 0.0 0
M  V30 21 N -4.1522 1.6278 0.0 0
M  V30 22 C -6.083 -0.1106 0.0 0
M  V30 23 N -6.2398 -1.6024 0.0 0
M  V30 24 C -5.1559 2.7425 0.0 0
M  V30 25 C -7.0867 1.004 0.0 0
M  V30 26 N -6.6231 2.4306 0.0 0
M  V30 27 N -4.6924 4.1691 0.0 0
M  V30 28 O -8.5539 0.6922 0.0 0
M  V30 END ATOM
M  V30 BEGIN BOND
M  V30 1 2 1 2
M  V30 2 1 1 3
M  V30 3 1 1 4
M  V30 4 1 1 5
M  V30 5 1 3 6
M  V30 6 1 4 7
M  V30 7 2 6 8
M  V30 8 1 6 9
M  V30 9 1 6 10
M  V30 10 1 11 7 CFG=3
M  V30 11 1 11 12
M  V30 12 1 13 11
M  V30 13 1 14 12
M  V30 14 1 13 15 CFG=1
M  V30 15 1 16 13
M  V30 16 1 14 17 CFG=3
M  V30 17 1 16 18 CFG=1
M  V30 18 1 17 19
M  V30 19 1 17 20
M  V30 20 1 19 21
M  V30 21 2 19 22
M  V30 22 2 20 23
M  V30 23 2 21 24
M  V30 24 1 22 25
M  V30 25 1 24 26
M  V30 26 1 24 27
M  V30 27 2 25 28
M  V30 28 1 14 16
M  V30 29 1 22 23
M  V30 30 1 25 26
M  V30 END BOND
M  V30 BEGIN COLLECTION
M  V30 MDLV30/STEABS ATOMS=(4 11 13 14 16)
M  V30 END COLLECTION
M  V30 END CTAB
M  END
>  <Molecule Name>
Compound 286

>  <Molecule Name 2>
Compound 286

>  <Compound ID>
81

>  <Name>
GDP

>  <Uniprot>
P06730

>  <Target>
eIF4E

>  <Smiles>
NC1=NC2=C(N=CN2[C@@H]2O[C@H](COP(=O)(O)OP(=O)(O)O)[C@@H](O)[C@H]2O)C(=O)[NH]1

>  <Kd (nM)>


>  <Assay (Kd)>


>  <Ki (nM)>


>  <Assay (Ki)>


>  <IC50 (nM)>


>  <Assay (IC50)>


>  <EC50 (nM)>


>  <Assay (EC50)>


>  <Article DOI>
10.1016/j.ejmech.2019.01.080

>  <Molecular Weight>
443.202

>  <Exact Mass>
443.0243296

>  <XLogP3>
-4.63

>  <Heavy Atom Count>
28

>  <Ring Count>
3

>  <Hydrogen Bond Acceptor Count>
12

>  <Hydrogen Bond Donor Count>
7

>  <Rotatable Bond Count>
6

>  <Topological Polar Surface Area>
252.57

>  <Molecular Formula>
C10H15N5O11P2

>  <InChI>
InChI=1S/C10H15N5O11P2/c11-10-13-7-4(8(18)14-10)12-2-15(7)9-6(17)5(16)3(25-9)1-24-28(22,23)26-27(19,20)21/h2-3,5-6,9,16-17H,1H2,(H,22,23)(H2,19,20,21)(H3,11,13,14,18)/t3-,5-,6-,9-/m1/s1

>  <InChI Key>
QGWNDRXFNXRZMB-UUOKFMHZSA-N

>  <BindingDB>
92459

>  <PubChem>
135398619

>  <ChEMBL>
CHEMBL384759

$$$$
82
Actelion Java MolfileCreator 2.0

  0  0  0  0  0  0              0 V3000
M  V30 BEGIN CTAB
M  V30 COUNTS 22 22 0 0 0
M  V30 BEGIN ATOM
M  V30 1 O 12.9904 -0.75 0.0 0
M  V30 2 C 11.6913 0.0 0.0 0
M  V30 3 O 11.6913 1.5 0.0 0
M  V30 4 C 10.3923 -0.75 0.0 0
M  V30 5 C 9.0932 0.0 0.0 0
M  V30 6 C 7.7942 -0.75 0.0 0
M  V30 7 C 9.0932 1.5 0.0 0
M  V30 8 C 6.4952 0.0 0.0 0
M  V30 9 C 5.1961 -0.75 0.0 0
M  V30 10 C 3.8971 0.0 0.0 0
M  V30 11 C 2.598 -0.75 0.0 0
M  V30 12 C 3.8971 1.5 0.0 0
M  V30 13 C 1.299 0.0 0.0 0
M  V30 14 C 0.0 -0.75 0.0 0
M  V30 15 C -1.299 0.0 0.0 0
M  V30 16 C 0.0 -2.25 0.0 0
M  V30 17 C -2.598 -0.75 0.0 0
M  V30 18 C -1.299 1.5 0.0 0
M  V30 19 C -1.299 -3.0 0.0 0
M  V30 20 C 0.7499 -3.549 0.0 0
M  V30 21 C 1.4999 -2.2499 0.0 0
M  V30 22 C -2.598 -2.25 0.0 0
M  V30 END ATOM
M  V30 BEGIN BOND
M  V30 1 2 1 2
M  V30 2 1 2 3
M  V30 3 1 2 4
M  V30 4 2 4 5
M  V30 5 1 5 6
M  V30 6 1 5 7
M  V30 7 2 6 8
M  V30 8 1 8 9
M  V30 9 2 9 10
M  V30 10 1 10 11
M  V30 11 1 10 12
M  V30 12 2 11 13
M  V30 13 1 13 14
M  V30 14 2 14 15
M  V30 15 1 14 16
M  V30 16 1 15 17
M  V30 17 1 15 18
M  V30 18 1 16 19
M  V30 19 1 16 20
M  V30 20 1 16 21
M  V30 21 1 17 22
M  V30 22 1 19 22
M  V30 END BOND
M  V30 END CTAB
M  END
>  <Molecule Name>
Compound 287

>  <Molecule Name 2>
Compound 287

>  <Compound ID>
82

>  <Name>
ATRA

>  <Uniprot>
P29373

>  <Target>
CRABP-II

>  <Smiles>
CC1=C(/C=C/C(C)=C/C=C/C(C)=C/C(=O)O)C(C)(C)CCC1

>  <Kd (nM)>
2

>  <Assay (Kd)>
Inhibition of [3H]-ATRA binding to murine CRABP-II

>  <Ki (nM)>


>  <Assay (Ki)>


>  <IC50 (nM)>


>  <Assay (IC50)>


>  <EC50 (nM)>


>  <Assay (EC50)>


>  <Article DOI>
10.1021/jm9603126

>  <Molecular Weight>
300.442

>  <Exact Mass>
300.2089301

>  <XLogP3>
6.3

>  <Heavy Atom Count>
22

>  <Ring Count>
1

>  <Hydrogen Bond Acceptor Count>
1

>  <Hydrogen Bond Donor Count>
1

>  <Rotatable Bond Count>
5

>  <Topological Polar Surface Area>
37.3

>  <Molecular Formula>
C20H28O2

>  <InChI>
InChI=1S/C20H28O2/c1-15(8-6-9-16(2)14-19(21)22)11-12-18-17(3)10-7-13-20(18,4)5/h6,8-9,11-12,14H,7,10,13H2,1-5H3,(H,21,22)/b9-6+,12-11+,15-8+,16-14+

>  <InChI Key>
SHGAZHPCJJPHSC-YCNIQYBTSA-N

>  <BindingDB>
31883

>  <PubChem>
444795

>  <ChEMBL>


$$$$
82
Actelion Java MolfileCreator 2.0

  0  0  0  0  0  0              0 V3000
M  V30 BEGIN CTAB
M  V30 COUNTS 22 22 0 0 0
M  V30 BEGIN ATOM
M  V30 1 O 12.9904 -0.75 0.0 0
M  V30 2 C 11.6913 0.0 0.0 0
M  V30 3 O 11.6913 1.5 0.0 0
M  V30 4 C 10.3923 -0.75 0.0 0
M  V30 5 C 9.0932 0.0 0.0 0
M  V30 6 C 7.7942 -0.75 0.0 0
M  V30 7 C 9.0932 1.5 0.0 0
M  V30 8 C 6.4952 0.0 0.0 0
M  V30 9 C 5.1961 -0.75 0.0 0
M  V30 10 C 3.8971 0.0 0.0 0
M  V30 11 C 2.598 -0.75 0.0 0
M  V30 12 C 3.8971 1.5 0.0 0
M  V30 13 C 1.299 0.0 0.0 0
M  V30 14 C 0.0 -0.75 0.0 0
M  V30 15 C -1.299 0.0 0.0 0
M  V30 16 C 0.0 -2.25 0.0 0
M  V30 17 C -2.598 -0.75 0.0 0
M  V30 18 C -1.299 1.5 0.0 0
M  V30 19 C -1.299 -3.0 0.0 0
M  V30 20 C 0.7499 -3.549 0.0 0
M  V30 21 C 1.4999 -2.2499 0.0 0
M  V30 22 C -2.598 -2.25 0.0 0
M  V30 END ATOM
M  V30 BEGIN BOND
M  V30 1 2 1 2
M  V30 2 1 2 3
M  V30 3 1 2 4
M  V30 4 2 4 5
M  V30 5 1 5 6
M  V30 6 1 5 7
M  V30 7 2 6 8
M  V30 8 1 8 9
M  V30 9 2 9 10
M  V30 10 1 10 11
M  V30 11 1 10 12
M  V30 12 2 11 13
M  V30 13 1 13 14
M  V30 14 2 14 15
M  V30 15 1 14 16
M  V30 16 1 15 17
M  V30 17 1 15 18
M  V30 18 1 16 19
M  V30 19 1 16 20
M  V30 20 1 16 21
M  V30 21 1 17 22
M  V30 22 1 19 22
M  V30 END BOND
M  V30 END CTAB
M  END
>  <Molecule Name>
Compound 288

>  <Molecule Name 2>
Compound 288

>  <Compound ID>
82

>  <Name>
ATRA

>  <Uniprot>
P29762

>  <Target>
CRABP-I

>  <Smiles>
CC1=C(/C=C/C(C)=C/C=C/C(C)=C/C(=O)O)C(C)(C)CCC1

>  <Kd (nM)>
0.4

>  <Assay (Kd)>
Inhibition of [3H]-ATRA binding to murine CRABP-I

>  <Ki (nM)>


>  <Assay (Ki)>


>  <IC50 (nM)>


>  <Assay (IC50)>


>  <EC50 (nM)>


>  <Assay (EC50)>


>  <Article DOI>
10.1021/jm9603126

>  <Molecular Weight>
300.442

>  <Exact Mass>
300.2089301

>  <XLogP3>
6.3

>  <Heavy Atom Count>
22

>  <Ring Count>
1

>  <Hydrogen Bond Acceptor Count>
1

>  <Hydrogen Bond Donor Count>
1

>  <Rotatable Bond Count>
5

>  <Topological Polar Surface Area>
37.3

>  <Molecular Formula>
C20H28O2

>  <InChI>
InChI=1S/C20H28O2/c1-15(8-6-9-16(2)14-19(21)22)11-12-18-17(3)10-7-13-20(18,4)5/h6,8-9,11-12,14H,7,10,13H2,1-5H3,(H,21,22)/b9-6+,12-11+,15-8+,16-14+

>  <InChI Key>
SHGAZHPCJJPHSC-YCNIQYBTSA-N

>  <BindingDB>
31883

>  <PubChem>
444795

>  <ChEMBL>


$$$$
83
Actelion Java MolfileCreator 2.0

  0  0  0  0  0  0              0 V3000
M  V30 BEGIN CTAB
M  V30 COUNTS 41 45 0 0 0
M  V30 BEGIN ATOM
M  V30 1 Cl 9.0932 -3.0 0.0 0
M  V30 2 C 7.7942 -2.25 0.0 0
M  V30 3 C 7.7942 -0.75 0.0 0
M  V30 4 C 6.4952 -3.0 0.0 0
M  V30 5 C 6.4952 0.0 0.0 0
M  V30 6 C 5.1961 -2.25 0.0 0
M  V30 7 C 5.1961 -0.75 0.0 0
M  V30 8 C 3.8971 0.0 0.0 0
M  V30 9 N 2.598 -0.75 0.0 0
M  V30 10 S 1.299 0.0 0.0 0
M  V30 11 C 2.598 -2.25 0.0 0
M  V30 12 O 2.049 1.299 0.0 0
M  V30 13 O 0.549 1.299 0.0 0
M  V30 14 C 0.0 -0.75 0.0 0
M  V30 15 C 1.3845 -3.1316 0.0 0
M  V30 16 C 3.8116 -3.1316 0.0 0
M  V30 17 C -1.299 0.0 0.0 0
M  V30 18 C 0.0 -2.25 0.0 0
M  V30 19 C 1.848 -4.5582 0.0 0
M  V30 20 C 3.348 -4.5582 0.0 0
M  V30 21 C -2.598 -0.75 0.0 0
M  V30 22 C -1.299 -3.0 0.0 0
M  V30 23 C -2.598 -2.25 0.0 0
M  V30 24 S -3.8971 -3.0 0.0 0
M  V30 25 O -4.647 -1.7009 0.0 0
M  V30 26 O -5.397 -3.0 0.0 0
M  V30 27 N -3.8971 -4.5 0.0 0
M  V30 28 C -2.598 -5.25 0.0 0
M  V30 29 C -5.1961 -5.25 0.0 0
M  V30 30 C -2.598 -6.75 0.0 0
M  V30 31 C -6.4952 -4.5 0.0 0
M  V30 32 C -1.299 -7.5 0.0 0
M  V30 33 C -3.8971 -7.5 0.0 0
M  V30 34 C -7.7942 -5.25 0.0 0
M  V30 35 C -6.4952 -3.0 0.0 0
M  V30 36 C -1.299 -9.0 0.0 0
M  V30 37 C -3.8971 -9.0 0.0 0
M  V30 38 C -9.0932 -4.5 0.0 0
M  V30 39 C -7.7942 -2.25 0.0 0
M  V30 40 C -2.598 -9.75 0.0 0
M  V30 41 N -9.0932 -3.0 0.0 0
M  V30 END ATOM
M  V30 BEGIN BOND
M  V30 1 1 1 2
M  V30 2 2 2 3
M  V30 3 1 2 4
M  V30 4 1 3 5
M  V30 5 2 4 6
M  V30 6 2 5 7
M  V30 7 1 7 8
M  V30 8 1 8 9
M  V30 9 1 9 10
M  V30 10 1 9 11
M  V30 11 2 10 12
M  V30 12 2 10 13
M  V30 13 1 10 14
M  V30 14 1 11 15
M  V30 15 1 11 16
M  V30 16 2 14 17
M  V30 17 1 14 18
M  V30 18 1 15 19
M  V30 19 1 16 20
M  V30 20 1 17 21
M  V30 21 2 18 22
M  V30 22 2 21 23
M  V30 23 1 23 24
M  V30 24 2 24 25
M  V30 25 2 24 26
M  V30 26 1 24 27
M  V30 27 1 27 28
M  V30 28 1 27 29
M  V30 29 1 28 30
M  V30 30 1 29 31
M  V30 31 2 30 32
M  V30 32 1 30 33
M  V30 33 1 31 34
M  V30 34 1 31 35
M  V30 35 1 32 36
M  V30 36 2 33 37
M  V30 37 1 34 38
M  V30 38 1 35 39
M  V30 39 2 36 40
M  V30 40 1 38 41
M  V30 41 1 6 7
M  V30 42 1 19 20
M  V30 43 1 22 23
M  V30 44 1 37 40
M  V30 45 1 39 41
M  V30 END BOND
M  V30 END CTAB
M  END
>  <Molecule Name>
Compound 289

>  <Molecule Name 2>
Compound 289

>  <Compound ID>
83

>  <Name>


>  <Uniprot>
O43924

>  <Target>
PDEdelta

>  <Smiles>
O=S(=O)(C1=CC=C(S(=O)(=O)N(CC2=CC=C(Cl)C=C2)C2CCCC2)C=C1)N(CC1=CC=CC=C1)CC1CCNCC1

>  <Kd (nM)>
8

>  <Assay (Kd)>
Kd was determined by competitive fluorescent polarization analysis

>  <Ki (nM)>


>  <Assay (Ki)>


>  <IC50 (nM)>


>  <Assay (IC50)>


>  <EC50 (nM)>


>  <Assay (EC50)>


>  <Article DOI>
10.1002/anie.201610957

>  <Molecular Weight>
616.249

>  <Exact Mass>
615.1992264

>  <XLogP3>
5.42

>  <Heavy Atom Count>
41

>  <Ring Count>
5

>  <Hydrogen Bond Acceptor Count>
5

>  <Hydrogen Bond Donor Count>
1

>  <Rotatable Bond Count>
11

>  <Topological Polar Surface Area>
86.79

>  <Molecular Formula>
C31H38ClN3O4S2

>  <InChI>
InChI=1S/C31H38ClN3O4S2/c32-28-12-10-26(11-13-28)24-35(29-8-4-5-9-29)41(38,39)31-16-14-30(15-17-31)40(36,37)34(22-25-6-2-1-3-7-25)23-27-18-20-33-21-19-27/h1-3,6-7,10-17,27,29,33H,4-5,8-9,18-24H2

>  <InChI Key>
SCLQBRLPJHXGKJ-UHFFFAOYSA-N

>  <BindingDB>


>  <PubChem>
124080852

>  <ChEMBL>


$$$$
84
Actelion Java MolfileCreator 2.0

  0  0  0  0  0  0              0 V3000
M  V30 BEGIN CTAB
M  V30 COUNTS 50 56 0 0 0
M  V30 BEGIN ATOM
M  V30 1 S 1.9738 4.3814 0.0 0
M  V30 2 C 2.4738 5.2475 0.0 0
M  V30 3 C 0.9957 4.5894 0.0 0
M  V30 4 N 1.8047 5.9906 0.0 0
M  V30 5 N 3.4683 5.352 0.0 0
M  V30 6 C 0.8912 5.5839 0.0 0
M  V30 7 C 0.1867 4.0016 0.0 0
M  V30 8 C 4.0561 4.543 0.0 0
M  V30 9 C -0.0223 5.9906 0.0 0
M  V30 10 C -0.7268 4.4083 0.0 0
M  V30 11 O 3.6494 3.6294 0.0 0
M  V30 12 C 5.0507 4.6475 0.0 0
M  V30 13 C -0.8313 5.4028 0.0 0
M  V30 14 C 5.6384 3.8385 0.0 0
M  V30 15 C 5.4574 5.5611 0.0 0
M  V30 16 C 6.633 3.943 0.0 0
M  V30 17 C 5.2317 2.9249 0.0 0
M  V30 18 C 6.4519 5.6656 0.0 0
M  V30 19 C 7.0397 4.8566 0.0 0
M  V30 20 C 7.2207 3.134 0.0 0
M  V30 21 N 5.8195 2.1159 0.0 0
M  V30 22 C 6.814 2.2205 0.0 0
M  V30 23 C 5.4128 1.2024 0.0 0
M  V30 24 S 4.4346 0.9945 0.0 0
M  V30 25 N 5.9128 0.3364 0.0 0
M  V30 26 C 4.3301 0.0 0.0 0
M  V30 27 C 5.2436 -0.4067 0.0 0
M  V30 28 C 3.4641 -0.5 0.0 0
M  V30 29 C 5.4515 -1.3848 0.0 0
M  V30 30 C 2.598 0.0 0.0 0
M  V30 31 O 4.7084 -2.054 0.0 0
M  V30 32 O 6.4026 -1.6939 0.0 0
M  V30 33 C 1.732 -0.5 0.0 0
M  V30 34 O 0.866 0.0 0.0 0
M  V30 35 C 0.0 -0.5 0.0 0
M  V30 36 C -0.866 0.0 0.0 0
M  V30 37 C 0.0 -1.4999 0.0 0
M  V30 38 F -0.866 1.0 0.0 0
M  V30 39 C -1.732 -0.4999 0.0 0
M  V30 40 C -0.866 -1.9999 0.0 0
M  V30 41 C -1.732 -1.4999 0.0 0
M  V30 42 C -2.598 -1.9999 0.0 0
M  V30 43 C -3.4641 -2.4999 0.0 0
M  V30 44 C -4.3301 -2.9999 0.0 0
M  V30 45 N -4.3301 -3.9999 0.0 0
M  V30 46 C -5.1961 -4.4999 0.0 0
M  V30 47 C -3.4641 -4.4999 0.0 0
M  V30 48 C -5.1961 -5.4999 0.0 0
M  V30 49 C -3.4641 -5.4999 0.0 0
M  V30 50 N -4.3301 -5.9999 0.0 0
M  V30 END ATOM
M  V30 BEGIN BOND
M  V30 1 1 1 2
M  V30 2 1 1 3
M  V30 3 2 2 4
M  V30 4 1 2 5
M  V30 5 2 3 6
M  V30 6 1 3 7
M  V30 7 1 5 8
M  V30 8 1 6 9
M  V30 9 2 7 10
M  V30 10 2 8 11
M  V30 11 1 8 12
M  V30 12 2 9 13
M  V30 13 2 12 14
M  V30 14 1 12 15
M  V30 15 1 14 16
M  V30 16 1 14 17
M  V30 17 2 15 18
M  V30 18 2 16 19
M  V30 19 1 16 20
M  V30 20 1 17 21
M  V30 21 1 20 22
M  V30 22 1 21 23
M  V30 23 1 23 24
M  V30 24 2 23 25
M  V30 25 1 24 26
M  V30 26 1 25 27
M  V30 27 1 26 28
M  V30 28 1 27 29
M  V30 29 1 28 30
M  V30 30 2 29 31
M  V30 31 1 29 32
M  V30 32 1 30 33
M  V30 33 1 33 34
M  V30 34 1 34 35
M  V30 35 2 35 36
M  V30 36 1 35 37
M  V30 37 1 36 38
M  V30 38 1 36 39
M  V30 39 2 37 40
M  V30 40 2 39 41
M  V30 41 1 41 42
M  V30 42 3 42 43
M  V30 43 1 43 44
M  V30 44 1 44 45
M  V30 45 1 45 46
M  V30 46 1 45 47
M  V30 47 1 46 48
M  V30 48 1 47 49
M  V30 49 1 48 50
M  V30 50 1 4 6
M  V30 51 1 10 13
M  V30 52 1 18 19
M  V30 53 1 21 22
M  V30 54 2 26 27
M  V30 55 1 40 41
M  V30 56 1 49 50
M  V30 END BOND
M  V30 END CTAB
M  END
>  <Molecule Name>
Compound 290

>  <Molecule Name 2>
Compound 290

>  <Compound ID>
84

>  <Name>


>  <Uniprot>
Q07817

>  <Target>
BCL-xL

>  <Smiles>
O=C(NC1=NC2=CC=CC=C2S1)C1=CC=CC2=C1CN(C1=NC(C(=O)O)=C(CCCOC3=CC=C(C#CCN4CCNCC4)C=C3F)S1)CC2

>  <Kd (nM)>


>  <Assay (Kd)>


>  <Ki (nM)>
0.001

>  <Assay (Ki)>
Ki was determined by AlphaScreen competitive binding assay

>  <IC50 (nM)>


>  <Assay (IC50)>


>  <EC50 (nM)>


>  <Assay (EC50)>


>  <Article DOI>
10.1039/c9cc07217a

>  <Molecular Weight>
710.857

>  <Exact Mass>
710.2145238

>  <XLogP3>
4.14

>  <Heavy Atom Count>
50

>  <Ring Count>
7

>  <Hydrogen Bond Acceptor Count>
10

>  <Hydrogen Bond Donor Count>
3

>  <Rotatable Bond Count>
10

>  <Topological Polar Surface Area>
119.92

>  <Molecular Formula>
C37H35FN6O4S2

>  <InChI>
InChI=1S/C37H35FN6O4S2/c38-28-22-24(6-4-17-43-19-15-39-16-20-43)12-13-30(28)48-21-5-11-32-33(35(46)47)41-37(50-32)44-18-14-25-7-3-8-26(27(25)23-44)34(45)42-36-40-29-9-1-2-10-31(29)49-36/h1-3,7-10,12-13,22,39H,5,11,14-21,23H2,(H,46,47)(H,40,42,45)

>  <InChI Key>
GYVGTEWZTVGKGM-UHFFFAOYSA-N

>  <BindingDB>


>  <PubChem>
132020374

>  <ChEMBL>


$$$$
85
Actelion Java MolfileCreator 2.0

  0  0  0  0  0  0              0 V3000
M  V30 BEGIN CTAB
M  V30 COUNTS 25 26 0 0 0
M  V30 BEGIN ATOM
M  V30 1 O 6.4951 1.4999 0.0 0
M  V30 2 C 6.4951 0.0 0.0 0
M  V30 3 N 5.1961 -0.75 0.0 0
M  V30 4 N 7.7942 -0.75 0.0 0
M  V30 5 C 5.1961 -2.25 0.0 0
M  V30 6 C 3.8971 0.0 0.0 0
M  V30 7 C 9.0932 0.0 0.0 0
M  V30 8 C 6.4951 -3.0 0.0 0
M  V30 9 C 2.598 -0.75 0.0 0
M  V30 10 C 10.3923 -0.75 0.0 0
M  V30 11 C 9.0932 1.4999 0.0 0
M  V30 12 C 6.4951 -4.5 0.0 0
M  V30 13 C 7.7942 -2.25 0.0 0
M  V30 14 C 1.299 0.0 0.0 0
M  V30 15 C 11.6913 0.0 0.0 0
M  V30 16 C 10.3923 2.2499 0.0 0
M  V30 17 C 7.7942 -5.25 0.0 0
M  V30 18 C 9.0932 -3.0 0.0 0
M  V30 19 C 0.0 -0.75 0.0 0
M  V30 20 C 11.6913 1.4999 0.0 0
M  V30 21 C 9.0932 -4.5 0.0 0
M  V30 22 C 10.3923 -5.25 0.0 0
M  V30 23 O 11.6913 -4.5 0.0 0
M  V30 24 N 10.3923 -6.75 0.0 0
M  V30 25 O 11.6913 -7.5 0.0 0
M  V30 END ATOM
M  V30 BEGIN BOND
M  V30 1 2 1 2
M  V30 2 1 2 3
M  V30 3 1 2 4
M  V30 4 1 3 5
M  V30 5 1 3 6
M  V30 6 1 4 7
M  V30 7 1 5 8
M  V30 8 1 6 9
M  V30 9 2 7 10
M  V30 10 1 7 11
M  V30 11 2 8 12
M  V30 12 1 8 13
M  V30 13 1 9 14
M  V30 14 1 10 15
M  V30 15 2 11 16
M  V30 16 1 12 17
M  V30 17 2 13 18
M  V30 18 1 14 19
M  V30 19 2 15 20
M  V30 20 2 17 21
M  V30 21 1 21 22
M  V30 22 2 22 23
M  V30 23 1 22 24
M  V30 24 1 24 25
M  V30 25 1 16 20
M  V30 26 1 18 21
M  V30 END BOND
M  V30 END CTAB
M  END
>  <Molecule Name>
Compound 291

>  <Molecule Name 2>
Compound 291

>  <Compound ID>
85

>  <Name>
Nexturastat A

>  <Uniprot>
Q9UBN7

>  <Target>
HDAC6

>  <Smiles>
CCCCN(CC1=CC=C(C(=O)NO)C=C1)C(=O)NC1=CC=CC=C1

>  <Kd (nM)>


>  <Assay (Kd)>


>  <Ki (nM)>


>  <Assay (Ki)>


>  <IC50 (nM)>
5.02

>  <Assay (IC50)>
IC50 of HDAC6

>  <EC50 (nM)>


>  <Assay (EC50)>


>  <Article DOI>
10.1021/jm301098e

>  <Molecular Weight>
341.411

>  <Exact Mass>
341.1739416

>  <XLogP3>
2.64

>  <Heavy Atom Count>
25

>  <Ring Count>
2

>  <Hydrogen Bond Acceptor Count>
3

>  <Hydrogen Bond Donor Count>
3

>  <Rotatable Bond Count>
7

>  <Topological Polar Surface Area>
81.67

>  <Molecular Formula>
C19H23N3O3

>  <InChI>
InChI=1S/C19H23N3O3/c1-2-3-13-22(19(24)20-17-7-5-4-6-8-17)14-15-9-11-16(12-10-15)18(23)21-25/h4-12,25H,2-3,13-14H2,1H3,(H,20,24)(H,21,23)

>  <InChI Key>
JZWXMCPARMXZQV-UHFFFAOYSA-N

>  <BindingDB>
50398716

>  <PubChem>
71462653

>  <ChEMBL>
CHEMBL2179618

$$$$
86
Actelion Java MolfileCreator 2.0

  0  0  0  0  0  0              0 V3000
M  V30 BEGIN CTAB
M  V30 COUNTS 20 21 0 0 0
M  V30 BEGIN ATOM
M  V30 1 O 6.0621 1.0 0.0 0
M  V30 2 C 5.1961 1.5 0.0 0
M  V30 3 N 5.1961 2.5 0.0 0
M  V30 4 C 4.3301 1.0 0.0 0
M  V30 5 C 4.3301 3.0 0.0 0
M  V30 6 C 3.4641 1.5 0.0 0
M  V30 7 C 4.3301 0.0 0.0 0
M  V30 8 C 4.3301 4.0 0.0 0
M  V30 9 C 3.4641 2.5 0.0 0
M  V30 10 C 2.598 0.9999 0.0 0
M  V30 11 C 3.4641 -0.4999 0.0 0
M  V30 12 N 5.1961 4.5 0.0 0
M  V30 13 C 3.4641 4.5 0.0 0
M  V30 14 C 2.598 3.0 0.0 0
M  V30 15 C 2.598 0.0 0.0 0
M  V30 16 C 2.598 4.0 0.0 0
M  V30 17 N 1.732 -0.5 0.0 0
M  V30 18 C 0.866 0.0 0.0 0
M  V30 19 O 0.866 1.0 0.0 0
M  V30 20 C 0.0 -0.5 0.0 0
M  V30 END ATOM
M  V30 BEGIN BOND
M  V30 1 2 1 2
M  V30 2 1 2 3
M  V30 3 1 2 4
M  V30 4 1 3 5
M  V30 5 2 4 6
M  V30 6 1 4 7
M  V30 7 2 5 8
M  V30 8 1 5 9
M  V30 9 1 6 10
M  V30 10 2 7 11
M  V30 11 1 8 12
M  V30 12 1 8 13
M  V30 13 2 9 14
M  V30 14 2 10 15
M  V30 15 2 13 16
M  V30 16 1 15 17
M  V30 17 1 17 18
M  V30 18 2 18 19
M  V30 19 1 18 20
M  V30 20 1 11 15
M  V30 21 1 14 16
M  V30 END BOND
M  V30 END CTAB
M  END
>  <Molecule Name>
Compound 292

>  <Molecule Name 2>
Compound 292

>  <Compound ID>
86

>  <Name>
CI-994

>  <Uniprot>
Q13547

>  <Target>
HDAC1

>  <Smiles>
CC(=O)NC1=CC=C(C(=O)NC2=CC=CC=C2N)C=C1

>  <Kd (nM)>


>  <Assay (Kd)>


>  <Ki (nM)>
37

>  <Assay (Ki)>
Ki of HDAC1

>  <IC50 (nM)>
41

>  <Assay (IC50)>
IC50 of HDAC1 was assessed by microfluidic capillary electrophoresis

>  <EC50 (nM)>


>  <Assay (EC50)>


>  <Article DOI>
10.1021/acschembio.5b00640

>  <Molecular Weight>
269.304

>  <Exact Mass>
269.1164267

>  <XLogP3>
1.25

>  <Heavy Atom Count>
20

>  <Ring Count>
2

>  <Hydrogen Bond Acceptor Count>
3

>  <Hydrogen Bond Donor Count>
3

>  <Rotatable Bond Count>
3

>  <Topological Polar Surface Area>
84.22

>  <Molecular Formula>
C15H15N3O2

>  <InChI>
InChI=1S/C15H15N3O2/c1-10(19)17-12-8-6-11(7-9-12)15(20)18-14-5-3-2-4-13(14)16/h2-9H,16H2,1H3,(H,17,19)(H,18,20)

>  <InChI Key>
VAZAPHZUAVEOMC-UHFFFAOYSA-N

>  <BindingDB>
19422

>  <PubChem>
2746

>  <ChEMBL>
CHEMBL235191

$$$$
86
Actelion Java MolfileCreator 2.0

  0  0  0  0  0  0              0 V3000
M  V30 BEGIN CTAB
M  V30 COUNTS 20 21 0 0 0
M  V30 BEGIN ATOM
M  V30 1 O 6.0621 1.0 0.0 0
M  V30 2 C 5.1961 1.5 0.0 0
M  V30 3 N 5.1961 2.5 0.0 0
M  V30 4 C 4.3301 1.0 0.0 0
M  V30 5 C 4.3301 3.0 0.0 0
M  V30 6 C 3.4641 1.5 0.0 0
M  V30 7 C 4.3301 0.0 0.0 0
M  V30 8 C 4.3301 4.0 0.0 0
M  V30 9 C 3.4641 2.5 0.0 0
M  V30 10 C 2.598 0.9999 0.0 0
M  V30 11 C 3.4641 -0.4999 0.0 0
M  V30 12 N 5.1961 4.5 0.0 0
M  V30 13 C 3.4641 4.5 0.0 0
M  V30 14 C 2.598 3.0 0.0 0
M  V30 15 C 2.598 0.0 0.0 0
M  V30 16 C 2.598 4.0 0.0 0
M  V30 17 N 1.732 -0.5 0.0 0
M  V30 18 C 0.866 0.0 0.0 0
M  V30 19 O 0.866 1.0 0.0 0
M  V30 20 C 0.0 -0.5 0.0 0
M  V30 END ATOM
M  V30 BEGIN BOND
M  V30 1 2 1 2
M  V30 2 1 2 3
M  V30 3 1 2 4
M  V30 4 1 3 5
M  V30 5 2 4 6
M  V30 6 1 4 7
M  V30 7 2 5 8
M  V30 8 1 5 9
M  V30 9 1 6 10
M  V30 10 2 7 11
M  V30 11 1 8 12
M  V30 12 1 8 13
M  V30 13 2 9 14
M  V30 14 2 10 15
M  V30 15 2 13 16
M  V30 16 1 15 17
M  V30 17 1 17 18
M  V30 18 2 18 19
M  V30 19 1 18 20
M  V30 20 1 11 15
M  V30 21 1 14 16
M  V30 END BOND
M  V30 END CTAB
M  END
>  <Molecule Name>
Compound 293

>  <Molecule Name 2>
Compound 293

>  <Compound ID>
86

>  <Name>
CI-994

>  <Uniprot>
Q92769

>  <Target>
HDAC2

>  <Smiles>
CC(=O)NC1=CC=C(C(=O)NC2=CC=CC=C2N)C=C1

>  <Kd (nM)>


>  <Assay (Kd)>


>  <Ki (nM)>
223

>  <Assay (Ki)>
Ki of HDAC2

>  <IC50 (nM)>
147

>  <Assay (IC50)>
IC50 of HDAC2 was assessed by microfluidic capillary electrophoresis

>  <EC50 (nM)>


>  <Assay (EC50)>


>  <Article DOI>
10.1021/acschembio.5b00640

>  <Molecular Weight>
269.304

>  <Exact Mass>
269.1164267

>  <XLogP3>
1.25

>  <Heavy Atom Count>
20

>  <Ring Count>
2

>  <Hydrogen Bond Acceptor Count>
3

>  <Hydrogen Bond Donor Count>
3

>  <Rotatable Bond Count>
3

>  <Topological Polar Surface Area>
84.22

>  <Molecular Formula>
C15H15N3O2

>  <InChI>
InChI=1S/C15H15N3O2/c1-10(19)17-12-8-6-11(7-9-12)15(20)18-14-5-3-2-4-13(14)16/h2-9H,16H2,1H3,(H,17,19)(H,18,20)

>  <InChI Key>
VAZAPHZUAVEOMC-UHFFFAOYSA-N

>  <BindingDB>
19422

>  <PubChem>
2746

>  <ChEMBL>
CHEMBL235191

$$$$
86
Actelion Java MolfileCreator 2.0

  0  0  0  0  0  0              0 V3000
M  V30 BEGIN CTAB
M  V30 COUNTS 20 21 0 0 0
M  V30 BEGIN ATOM
M  V30 1 O 6.0621 1.0 0.0 0
M  V30 2 C 5.1961 1.5 0.0 0
M  V30 3 N 5.1961 2.5 0.0 0
M  V30 4 C 4.3301 1.0 0.0 0
M  V30 5 C 4.3301 3.0 0.0 0
M  V30 6 C 3.4641 1.5 0.0 0
M  V30 7 C 4.3301 0.0 0.0 0
M  V30 8 C 4.3301 4.0 0.0 0
M  V30 9 C 3.4641 2.5 0.0 0
M  V30 10 C 2.598 0.9999 0.0 0
M  V30 11 C 3.4641 -0.4999 0.0 0
M  V30 12 N 5.1961 4.5 0.0 0
M  V30 13 C 3.4641 4.5 0.0 0
M  V30 14 C 2.598 3.0 0.0 0
M  V30 15 C 2.598 0.0 0.0 0
M  V30 16 C 2.598 4.0 0.0 0
M  V30 17 N 1.732 -0.5 0.0 0
M  V30 18 C 0.866 0.0 0.0 0
M  V30 19 O 0.866 1.0 0.0 0
M  V30 20 C 0.0 -0.5 0.0 0
M  V30 END ATOM
M  V30 BEGIN BOND
M  V30 1 2 1 2
M  V30 2 1 2 3
M  V30 3 1 2 4
M  V30 4 1 3 5
M  V30 5 2 4 6
M  V30 6 1 4 7
M  V30 7 2 5 8
M  V30 8 1 5 9
M  V30 9 1 6 10
M  V30 10 2 7 11
M  V30 11 1 8 12
M  V30 12 1 8 13
M  V30 13 2 9 14
M  V30 14 2 10 15
M  V30 15 2 13 16
M  V30 16 1 15 17
M  V30 17 1 17 18
M  V30 18 2 18 19
M  V30 19 1 18 20
M  V30 20 1 11 15
M  V30 21 1 14 16
M  V30 END BOND
M  V30 END CTAB
M  END
>  <Molecule Name>
Compound 294

>  <Molecule Name 2>
Compound 294

>  <Compound ID>
86

>  <Name>
CI-994

>  <Uniprot>
O15379

>  <Target>
HDAC3

>  <Smiles>
CC(=O)NC1=CC=C(C(=O)NC2=CC=CC=C2N)C=C1

>  <Kd (nM)>


>  <Assay (Kd)>


>  <Ki (nM)>
25

>  <Assay (Ki)>
Ki of HDAC3

>  <IC50 (nM)>
46

>  <Assay (IC50)>
IC50 of HDAC3 was assessed by microfluidic capillary electrophoresis

>  <EC50 (nM)>


>  <Assay (EC50)>


>  <Article DOI>
10.1021/acschembio.5b00640

>  <Molecular Weight>
269.304

>  <Exact Mass>
269.1164267

>  <XLogP3>
1.25

>  <Heavy Atom Count>
20

>  <Ring Count>
2

>  <Hydrogen Bond Acceptor Count>
3

>  <Hydrogen Bond Donor Count>
3

>  <Rotatable Bond Count>
3

>  <Topological Polar Surface Area>
84.22

>  <Molecular Formula>
C15H15N3O2

>  <InChI>
InChI=1S/C15H15N3O2/c1-10(19)17-12-8-6-11(7-9-12)15(20)18-14-5-3-2-4-13(14)16/h2-9H,16H2,1H3,(H,17,19)(H,18,20)

>  <InChI Key>
VAZAPHZUAVEOMC-UHFFFAOYSA-N

>  <BindingDB>
19422

>  <PubChem>
2746

>  <ChEMBL>
CHEMBL235191

$$$$
87
Actelion Java MolfileCreator 2.0

  0  0  0  0  0  0              0 V3000
M  V30 BEGIN CTAB
M  V30 COUNTS 27 28 0 0 0
M  V30 BEGIN ATOM
M  V30 1 O 6.0621 -3.0 0.0 0
M  V30 2 C 6.0621 -1.9999 0.0 0
M  V30 3 O 6.9282 -1.5 0.0 0
M  V30 4 C 5.1961 -1.4999 0.0 0
M  V30 5 C 5.1961 -0.5 0.0 0
M  V30 6 C 4.3301 -1.9999 0.0 0
M  V30 7 C 4.3301 0.0 0.0 0
M  V30 8 C 3.4641 -1.5 0.0 0
M  V30 9 C 3.4641 -0.5 0.0 0
M  V30 10 C 2.598 0.0 0.0 0
M  V30 11 C 1.732 -0.5 0.0 0
M  V30 12 C 0.866 0.0 0.0 0
M  V30 13 O 0.866 1.0 0.0 0
M  V30 14 C 0.0 -0.5 0.0 0
M  V30 15 C -0.866 0.0 0.0 0
M  V30 16 C 0.0 -1.4999 0.0 0
M  V30 17 C -1.732 -0.4999 0.0 0
M  V30 18 C -0.866 -1.9999 0.0 0
M  V30 19 C -1.732 -1.4999 0.0 0
M  V30 20 C -2.598 0.0 0.0 0
M  V30 21 C -0.866 -2.9999 0.0 0
M  V30 22 C -3.098 -0.866 0.0 0
M  V30 23 C -3.4641 0.5 0.0 0
M  V30 24 C -2.098 0.866 0.0 0
M  V30 25 C 0.1339 -2.9999 0.0 0
M  V30 26 C -0.866 -3.9999 0.0 0
M  V30 27 C -1.866 -2.9999 0.0 0
M  V30 END ATOM
M  V30 BEGIN BOND
M  V30 1 2 1 2
M  V30 2 1 2 3
M  V30 3 1 2 4
M  V30 4 2 4 5
M  V30 5 1 4 6
M  V30 6 1 5 7
M  V30 7 2 6 8
M  V30 8 2 7 9
M  V30 9 1 9 10
M  V30 10 2 10 11
M  V30 11 1 11 12
M  V30 12 2 12 13
M  V30 13 1 12 14
M  V30 14 2 14 15
M  V30 15 1 14 16
M  V30 16 1 15 17
M  V30 17 2 16 18
M  V30 18 2 17 19
M  V30 19 1 17 20
M  V30 20 1 18 21
M  V30 21 1 20 22
M  V30 22 1 20 23
M  V30 23 1 20 24
M  V30 24 1 21 25
M  V30 25 1 21 26
M  V30 26 1 21 27
M  V30 27 1 8 9
M  V30 28 1 18 19
M  V30 END BOND
M  V30 END CTAB
M  END
>  <Molecule Name>
Compound 295

>  <Molecule Name 2>
Compound 295

>  <Compound ID>
87

>  <Name>
Ch55

>  <Uniprot>


>  <Target>
RAR

>  <Smiles>
CC(C)(C)C1=CC(C(=O)/C=C/C2=CC=C(C(=O)O)C=C2)=CC(C(C)(C)C)=C1

>  <Kd (nM)>


>  <Assay (Kd)>


>  <Ki (nM)>


>  <Assay (Ki)>


>  <IC50 (nM)>


>  <Assay (IC50)>


>  <EC50 (nM)>


>  <Assay (EC50)>


>  <Article DOI>
10.1016/j.bmc.2011.09.041

>  <Molecular Weight>
364.485

>  <Exact Mass>
364.2038448

>  <XLogP3>
6.56

>  <Heavy Atom Count>
27

>  <Ring Count>
2

>  <Hydrogen Bond Acceptor Count>
2

>  <Hydrogen Bond Donor Count>
1

>  <Rotatable Bond Count>
4

>  <Topological Polar Surface Area>
54.37

>  <Molecular Formula>
C24H28O3

>  <InChI>
InChI=1S/C24H28O3/c1-23(2,3)19-13-18(14-20(15-19)24(4,5)6)21(25)12-9-16-7-10-17(11-8-16)22(26)27/h7-15H,1-6H3,(H,26,27)/b12-9+

>  <InChI Key>
FOUVTBKPJRMLPE-FMIVXFBMSA-N

>  <BindingDB>


>  <PubChem>
6184667

>  <ChEMBL>
CHEMBL285480

$$$$
88
Actelion Java MolfileCreator 2.0

  0  0  0  0  0  0              0 V3000
M  V30 BEGIN CTAB
M  V30 COUNTS 20 23 0 0 0
M  V30 BEGIN ATOM
M  V30 1 O 1.299 0.0 0.0 0
M  V30 2 C 0.0 -0.75 0.0 0
M  V30 3 C -1.3703 -0.1398 0.0 0 CFG=2
M  V30 4 C -0.1567 -2.2417 0.0 0
M  V30 5 C -2.374 -1.2546 0.0 0 CFG=1
M  V30 6 C -1.8338 1.2866 0.0 0
M  V30 7 C -0.2556 0.8638 0.0 0
M  V30 8 C -1.624 -2.5536 0.0 0
M  V30 9 C -3.8412 -0.9427 0.0 0 CFG=1
M  V30 10 C -3.301 1.5985 0.0 0
M  V30 11 C -4.3047 0.4838 0.0 0 CFG=2
M  V30 12 C -4.8449 -2.0574 0.0 0
M  V30 13 C -5.7719 0.7957 0.0 0
M  V30 14 C -6.3121 -1.7455 0.0 0
M  V30 15 C -6.7756 -0.319 0.0 0
M  V30 16 C -6.2355 2.2222 0.0 0
M  V30 17 C -8.2428 -0.0071 0.0 0
M  V30 18 C -7.7027 2.5341 0.0 0
M  V30 19 C -8.7064 1.4194 0.0 0
M  V30 20 O -10.1736 1.7313 0.0 0
M  V30 END ATOM
M  V30 BEGIN BOND
M  V30 1 2 1 2
M  V30 2 1 3 2
M  V30 3 1 2 4
M  V30 4 1 5 3
M  V30 5 1 3 6
M  V30 6 1 3 7 CFG=1
M  V30 7 1 4 8
M  V30 8 1 9 5
M  V30 9 1 6 10
M  V30 10 1 11 9
M  V30 11 1 9 12 CFG=3
M  V30 12 1 11 13
M  V30 13 1 12 14
M  V30 14 2 13 15
M  V30 15 1 13 16
M  V30 16 1 15 17
M  V30 17 2 16 18
M  V30 18 2 17 19
M  V30 19 1 19 20
M  V30 20 1 5 8 CFG=1
M  V30 21 1 11 10 CFG=1
M  V30 22 1 14 15
M  V30 23 1 18 19
M  V30 END BOND
M  V30 BEGIN COLLECTION
M  V30 MDLV30/STEABS ATOMS=(4 3 5 9 11)
M  V30 END COLLECTION
M  V30 END CTAB
M  END
>  <Molecule Name>
Compound 296

>  <Molecule Name 2>
Compound 296

>  <Compound ID>
88

>  <Name>
estrone

>  <Uniprot>
P03372

>  <Target>
ER

>  <Smiles>
C[C@]12CC[C@@H]3C4=CC=C(O)C=C4CC[C@H]3[C@@H]1CCC2=O

>  <Kd (nM)>


>  <Assay (Kd)>


>  <Ki (nM)>


>  <Assay (Ki)>


>  <IC50 (nM)>
29/31

>  <Assay (IC50)>
IC50 of ERalpha/ERbeta was determined using a scintillation proximity assay

>  <EC50 (nM)>


>  <Assay (EC50)>


>  <Article DOI>
10.1021/jm0509389

>  <Molecular Weight>
270.372

>  <Exact Mass>
270.1619799

>  <XLogP3>
3.13

>  <Heavy Atom Count>
20

>  <Ring Count>
4

>  <Hydrogen Bond Acceptor Count>
2

>  <Hydrogen Bond Donor Count>
1

>  <Rotatable Bond Count>
0

>  <Topological Polar Surface Area>
37.3

>  <Molecular Formula>
C18H22O2

>  <InChI>
InChI=1S/C18H22O2/c1-18-9-8-14-13-5-3-12(19)10-11(13)2-4-15(14)16(18)6-7-17(18)20/h3,5,10,14-16,19H,2,4,6-9H2,1H3/t14-,15-,16+,18+/m1/s1

>  <InChI Key>
DNXHEGUUPJUMQT-CBZIJGRNSA-N

>  <BindingDB>
17289

>  <PubChem>
5870

>  <ChEMBL>
CHEMBL1405

$$$$
89
Actelion Java MolfileCreator 2.0

  0  0  0  0  0  0              0 V3000
M  V30 BEGIN CTAB
M  V30 COUNTS 21 24 0 0 0
M  V30 BEGIN ATOM
M  V30 1 O 1.4931 5.9671 0.0 0
M  V30 2 C 1.3886 4.9726 0.0 0
M  V30 3 C 2.1976 4.3848 0.0 0
M  V30 4 C 0.4751 4.5658 0.0 0
M  V30 5 C 2.0931 3.3903 0.0 0 CFG=1
M  V30 6 C 0.3705 3.5713 0.0 0
M  V30 7 C 1.1796 2.9835 0.0 0 CFG=2
M  V30 8 C 2.9021 2.8025 0.0 0
M  V30 9 C 1.075 1.989 0.0 0 CFG=2
M  V30 10 C 0.266 2.5768 0.0 0
M  V30 11 C 2.7976 1.8079 0.0 0
M  V30 12 C 1.884 1.4012 0.0 0 CFG=1
M  V30 13 C 0.1615 1.5823 0.0 0
M  V30 14 C 1.7795 0.4067 0.0 0 CFG=1
M  V30 15 C 0.057 0.5877 0.0 0
M  V30 16 C 0.866 0.0 0.0 0 CFG=2
M  V30 17 C 2.4487 -0.3364 0.0 0
M  V30 18 C 0.9705 -0.9945 0.0 0 CFG=2
M  V30 19 C 0.0 -0.5 0.0 0
M  V30 20 C 1.9487 -1.2024 0.0 0
M  V30 21 O 0.2274 -1.6636 0.0 0
M  V30 END ATOM
M  V30 BEGIN BOND
M  V30 1 2 1 2
M  V30 2 1 2 3
M  V30 3 1 2 4
M  V30 4 1 5 3 CFG=3
M  V30 5 1 4 6
M  V30 6 1 7 5
M  V30 7 1 5 8
M  V30 8 1 9 7
M  V30 9 1 7 10 CFG=3
M  V30 10 1 8 11
M  V30 11 1 12 9
M  V30 12 1 9 13 CFG=3
M  V30 13 1 14 12
M  V30 14 1 13 15
M  V30 15 1 16 14
M  V30 16 1 14 17 CFG=3
M  V30 17 1 18 16
M  V30 18 1 16 19 CFG=3
M  V30 19 1 17 20
M  V30 20 1 18 21 CFG=3
M  V30 21 1 6 7
M  V30 22 1 12 11 CFG=1
M  V30 23 1 15 16
M  V30 24 1 18 20
M  V30 END BOND
M  V30 BEGIN COLLECTION
M  V30 MDLV30/STEABS ATOMS=(7 5 7 9 12 14 16 18)
M  V30 END COLLECTION
M  V30 END CTAB
M  END
>  <Molecule Name>
Compound 297

>  <Molecule Name 2>
Compound 297

>  <Compound ID>
89

>  <Name>
DHT

>  <Uniprot>
P10275

>  <Target>
AR

>  <Smiles>
C[C@]12CC[C@H]3[C@@H](CC[C@H]4CC(=O)CC[C@@]43C)[C@@H]1CC[C@@H]2O

>  <Kd (nM)>


>  <Assay (Kd)>


>  <Ki (nM)>
0.2

>  <Assay (Ki)>
Ki was determined in a transcriptional activation assay

>  <IC50 (nM)>


>  <Assay (IC50)>


>  <EC50 (nM)>


>  <Assay (EC50)>


>  <Article DOI>
10.1021/jm060792t

>  <Molecular Weight>
290.447

>  <Exact Mass>
290.2245802

>  <XLogP3>
3.66

>  <Heavy Atom Count>
21

>  <Ring Count>
4

>  <Hydrogen Bond Acceptor Count>
2

>  <Hydrogen Bond Donor Count>
1

>  <Rotatable Bond Count>
0

>  <Topological Polar Surface Area>
37.3

>  <Molecular Formula>
C19H30O2

>  <InChI>
InChI=1S/C19H30O2/c1-18-9-7-13(20)11-12(18)3-4-14-15-5-6-17(21)19(15,2)10-8-16(14)18/h12,14-17,21H,3-11H2,1-2H3/t12-,14-,15-,16-,17-,18-,19-/m0/s1

>  <InChI Key>
NVKAWKQGWWIWPM-ABEVXSGRSA-N

>  <BindingDB>
18161

>  <PubChem>
10635

>  <ChEMBL>
CHEMBL27769

$$$$
90
Actelion Java MolfileCreator 2.0

  0  0  0  0  0  0              0 V3000
M  V30 BEGIN CTAB
M  V30 COUNTS 26 29 0 0 0
M  V30 BEGIN ATOM
M  V30 1 S 1.732 -0.5 0.0 0
M  V30 2 O 1.232 -1.366 0.0 0
M  V30 3 O 2.232 -1.366 0.0 0
M  V30 4 N 0.866 0.0 0.0 0
M  V30 5 C 2.598 0.0 0.0 0
M  V30 6 C 0.0 -0.5 0.0 0
M  V30 7 C 3.4641 -0.4999 0.0 0
M  V30 8 C 2.598 0.9999 0.0 0
M  V30 9 C 0.0 -1.4999 0.0 0
M  V30 10 C -0.866 0.0 0.0 0
M  V30 11 O 3.4641 -1.4999 0.0 0
M  V30 12 C 4.3301 0.0 0.0 0
M  V30 13 C 3.4641 1.5 0.0 0
M  V30 14 C -0.866 -1.9999 0.0 0
M  V30 15 C 0.8062 -2.1445 0.0 0
M  V30 16 C -1.732 -0.4999 0.0 0
M  V30 17 C 4.3301 -1.9999 0.0 0
M  V30 18 C 4.3301 1.0 0.0 0
M  V30 19 C -1.732 -1.4999 0.0 0
M  V30 20 C -1.0739 -2.9781 0.0 0
M  V30 21 C 0.7017 -3.139 0.0 0
M  V30 22 N -2.4751 -2.1691 0.0 0
M  V30 23 C -2.0684 -3.0826 0.0 0
M  V30 24 C -0.2118 -3.5457 0.0 0
M  V30 25 C -3.4533 -1.9612 0.0 0
M  V30 26 O -2.5684 -3.9487 0.0 0
M  V30 END ATOM
M  V30 BEGIN BOND
M  V30 1 2 1 2
M  V30 2 2 1 3
M  V30 3 1 1 4
M  V30 4 1 1 5
M  V30 5 1 4 6
M  V30 6 2 5 7
M  V30 7 1 5 8
M  V30 8 1 6 9
M  V30 9 2 6 10
M  V30 10 1 7 11
M  V30 11 1 7 12
M  V30 12 2 8 13
M  V30 13 1 9 14
M  V30 14 2 9 15
M  V30 15 1 10 16
M  V30 16 1 11 17
M  V30 17 2 12 18
M  V30 18 1 14 19
M  V30 19 2 14 20
M  V30 20 1 15 21
M  V30 21 1 19 22
M  V30 22 1 20 23
M  V30 23 1 20 24
M  V30 24 1 22 25
M  V30 25 2 23 26
M  V30 26 1 13 18
M  V30 27 2 16 19
M  V30 28 2 21 24
M  V30 29 1 22 23
M  V30 END BOND
M  V30 END CTAB
M  END
>  <Molecule Name>
Compound 298

>  <Molecule Name 2>
Compound 298

>  <Compound ID>
90

>  <Name>


>  <Uniprot>
O60885

>  <Target>
BRD4

>  <Smiles>
COC1=CC=CC=C1S(=O)(=O)NC1=CC=C2C3=C(C=CC=C13)C(=O)N2C

>  <Kd (nM)>


>  <Assay (Kd)>


>  <Ki (nM)>


>  <Assay (Ki)>


>  <IC50 (nM)>
49.5/2479

>  <Assay (IC50)>
IC50 of BRD4 BD1/2 was tested using AlphaScreen assay

>  <EC50 (nM)>


>  <Assay (EC50)>


>  <Article DOI>
10.1016/j.bmc.2019.115181

>  <Molecular Weight>
368.414

>  <Exact Mass>
368.083078

>  <XLogP3>
2.76

>  <Heavy Atom Count>
26

>  <Ring Count>
4

>  <Hydrogen Bond Acceptor Count>
4

>  <Hydrogen Bond Donor Count>
1

>  <Rotatable Bond Count>
4

>  <Topological Polar Surface Area>
75.71

>  <Molecular Formula>
C19H16N2O4S

>  <InChI>
InChI=1S/C19H16N2O4S/c1-21-15-11-10-14(12-6-5-7-13(18(12)15)19(21)22)20-26(23,24)17-9-4-3-8-16(17)25-2/h3-11,20H,1-2H3

>  <InChI Key>
QETWZQZUXAGMTQ-UHFFFAOYSA-N

>  <BindingDB>


>  <PubChem>
145829182

>  <ChEMBL>


$$$$
91
Actelion Java MolfileCreator 2.0

  0  0  0  0  0  0              0 V3000
M  V30 BEGIN CTAB
M  V30 COUNTS 26 28 0 0 0
M  V30 BEGIN ATOM
M  V30 1 Cl 1.732 1.4999 0.0 0
M  V30 2 C 2.598 1.0 0.0 0
M  V30 3 C 2.598 0.0 0.0 0
M  V30 4 C 3.4641 1.4999 0.0 0
M  V30 5 N 3.4641 -0.5 0.0 0
M  V30 6 N 1.732 -0.5 0.0 0
M  V30 7 N 4.3301 1.0 0.0 0
M  V30 8 C 4.3301 0.0 0.0 0
M  V30 9 C 0.866 0.0 0.0 0
M  V30 10 N 5.1961 -0.5 0.0 0
M  V30 11 C 0.0 -0.5 0.0 0
M  V30 12 C 6.0621 0.0 0.0 0
M  V30 13 C -0.866 0.0 0.0 0
M  V30 14 C 0.0 -1.4999 0.0 0
M  V30 15 C 6.9757 -0.4067 0.0 0
M  V30 16 C 6.1667 0.9945 0.0 0
M  V30 17 F -0.866 1.0 0.0 0
M  V30 18 C -1.732 -0.4999 0.0 0
M  V30 19 C -0.866 -1.9999 0.0 0
M  V30 20 N 7.6448 0.3364 0.0 0
M  V30 21 N 7.1448 1.2024 0.0 0
M  V30 22 C -1.732 -1.4999 0.0 0
M  V30 23 F -0.866 -2.9999 0.0 0
M  V30 24 C 7.5515 2.1159 0.0 0
M  V30 25 C 8.5461 2.2205 0.0 0
M  V30 26 O 8.9528 3.134 0.0 0
M  V30 END ATOM
M  V30 BEGIN BOND
M  V30 1 1 1 2
M  V30 2 2 2 3
M  V30 3 1 2 4
M  V30 4 1 3 5
M  V30 5 1 3 6
M  V30 6 2 4 7
M  V30 7 2 5 8
M  V30 8 1 6 9
M  V30 9 1 8 10
M  V30 10 1 9 11
M  V30 11 1 10 12
M  V30 12 2 11 13
M  V30 13 1 11 14
M  V30 14 1 12 15
M  V30 15 2 12 16
M  V30 16 1 13 17
M  V30 17 1 13 18
M  V30 18 2 14 19
M  V30 19 2 15 20
M  V30 20 1 16 21
M  V30 21 2 18 22
M  V30 22 1 19 23
M  V30 23 1 21 24
M  V30 24 1 24 25
M  V30 25 1 25 26
M  V30 26 1 7 8
M  V30 27 1 19 22
M  V30 28 1 20 21
M  V30 END BOND
M  V30 END CTAB
M  END
>  <Molecule Name>
Compound 299

>  <Molecule Name 2>
Compound 299

>  <Compound ID>
91

>  <Name>
Pyrimidine 1

>  <Uniprot>
P23458

>  <Target>
JAK1

>  <Smiles>
OCCN1C=C(NC2=NC=C(Cl)C(NCC3=CC(F)=CC=C3F)=N2)C=N1

>  <Kd (nM)>


>  <Assay (Kd)>


>  <Ki (nM)>


>  <Assay (Ki)>


>  <IC50 (nM)>
<0.2

>  <Assay (IC50)>
Inhibition of JAK1

>  <EC50 (nM)>


>  <Assay (EC50)>


>  <Article DOI>
10.1016/j.bmc.2020.115326

>  <Molecular Weight>
380.786

>  <Exact Mass>
380.0963932

>  <XLogP3>
2.28

>  <Heavy Atom Count>
26

>  <Ring Count>
3

>  <Hydrogen Bond Acceptor Count>
7

>  <Hydrogen Bond Donor Count>
3

>  <Rotatable Bond Count>
7

>  <Topological Polar Surface Area>
87.89

>  <Molecular Formula>
C16H15ClF2N6O

>  <InChI>
InChI=1S/C16H15ClF2N6O/c17-13-8-21-16(23-12-7-22-25(9-12)3-4-26)24-15(13)20-6-10-5-11(18)1-2-14(10)19/h1-2,5,7-9,26H,3-4,6H2,(H2,20,21,23,24)

>  <InChI Key>
NROLQUCDBSGNQD-UHFFFAOYSA-N

>  <BindingDB>


>  <PubChem>


>  <ChEMBL>


$$$$
91
Actelion Java MolfileCreator 2.0

  0  0  0  0  0  0              0 V3000
M  V30 BEGIN CTAB
M  V30 COUNTS 26 28 0 0 0
M  V30 BEGIN ATOM
M  V30 1 Cl 1.732 1.4999 0.0 0
M  V30 2 C 2.598 1.0 0.0 0
M  V30 3 C 2.598 0.0 0.0 0
M  V30 4 C 3.4641 1.4999 0.0 0
M  V30 5 N 3.4641 -0.5 0.0 0
M  V30 6 N 1.732 -0.5 0.0 0
M  V30 7 N 4.3301 1.0 0.0 0
M  V30 8 C 4.3301 0.0 0.0 0
M  V30 9 C 0.866 0.0 0.0 0
M  V30 10 N 5.1961 -0.5 0.0 0
M  V30 11 C 0.0 -0.5 0.0 0
M  V30 12 C 6.0621 0.0 0.0 0
M  V30 13 C -0.866 0.0 0.0 0
M  V30 14 C 0.0 -1.4999 0.0 0
M  V30 15 C 6.9757 -0.4067 0.0 0
M  V30 16 C 6.1667 0.9945 0.0 0
M  V30 17 F -0.866 1.0 0.0 0
M  V30 18 C -1.732 -0.4999 0.0 0
M  V30 19 C -0.866 -1.9999 0.0 0
M  V30 20 N 7.6448 0.3364 0.0 0
M  V30 21 N 7.1448 1.2024 0.0 0
M  V30 22 C -1.732 -1.4999 0.0 0
M  V30 23 F -0.866 -2.9999 0.0 0
M  V30 24 C 7.5515 2.1159 0.0 0
M  V30 25 C 8.5461 2.2205 0.0 0
M  V30 26 O 8.9528 3.134 0.0 0
M  V30 END ATOM
M  V30 BEGIN BOND
M  V30 1 1 1 2
M  V30 2 2 2 3
M  V30 3 1 2 4
M  V30 4 1 3 5
M  V30 5 1 3 6
M  V30 6 2 4 7
M  V30 7 2 5 8
M  V30 8 1 6 9
M  V30 9 1 8 10
M  V30 10 1 9 11
M  V30 11 1 10 12
M  V30 12 2 11 13
M  V30 13 1 11 14
M  V30 14 1 12 15
M  V30 15 2 12 16
M  V30 16 1 13 17
M  V30 17 1 13 18
M  V30 18 2 14 19
M  V30 19 2 15 20
M  V30 20 1 16 21
M  V30 21 2 18 22
M  V30 22 1 19 23
M  V30 23 1 21 24
M  V30 24 1 24 25
M  V30 25 1 25 26
M  V30 26 1 7 8
M  V30 27 1 19 22
M  V30 28 1 20 21
M  V30 END BOND
M  V30 END CTAB
M  END
>  <Molecule Name>
Compound 300

>  <Molecule Name 2>
Compound 300

>  <Compound ID>
91

>  <Name>
Pyrimidine 1

>  <Uniprot>
O60674

>  <Target>
JAK2

>  <Smiles>
OCCN1C=C(NC2=NC=C(Cl)C(NCC3=CC(F)=CC=C3F)=N2)C=N1

>  <Kd (nM)>


>  <Assay (Kd)>


>  <Ki (nM)>


>  <Assay (Ki)>


>  <IC50 (nM)>
0.3

>  <Assay (IC50)>
Inhibition of JAK2

>  <EC50 (nM)>


>  <Assay (EC50)>


>  <Article DOI>
10.1016/j.bmc.2020.115326

>  <Molecular Weight>
380.786

>  <Exact Mass>
380.0963932

>  <XLogP3>
2.28

>  <Heavy Atom Count>
26

>  <Ring Count>
3

>  <Hydrogen Bond Acceptor Count>
7

>  <Hydrogen Bond Donor Count>
3

>  <Rotatable Bond Count>
7

>  <Topological Polar Surface Area>
87.89

>  <Molecular Formula>
C16H15ClF2N6O

>  <InChI>
InChI=1S/C16H15ClF2N6O/c17-13-8-21-16(23-12-7-22-25(9-12)3-4-26)24-15(13)20-6-10-5-11(18)1-2-14(10)19/h1-2,5,7-9,26H,3-4,6H2,(H2,20,21,23,24)

>  <InChI Key>
NROLQUCDBSGNQD-UHFFFAOYSA-N

>  <BindingDB>


>  <PubChem>


>  <ChEMBL>


$$$$
92
Actelion Java MolfileCreator 2.0

  0  0  0  0  0  0              0 V3000
M  V30 BEGIN CTAB
M  V30 COUNTS 45 50 0 0 0
M  V30 BEGIN ATOM
M  V30 1 S 6.4951 13.5 0.0 0
M  V30 2 O 7.2451 14.799 0.0 0
M  V30 3 O 5.7451 14.799 0.0 0
M  V30 4 C 5.1961 12.75 0.0 0
M  V30 5 C 7.7942 12.75 0.0 0
M  V30 6 C 5.1961 11.25 0.0 0
M  V30 7 C 7.7942 11.25 0.0 0
M  V30 8 N 6.4951 10.5 0.0 0
M  V30 9 C 6.4951 9.0 0.0 0
M  V30 10 C 7.7942 8.25 0.0 0
M  V30 11 C 7.7942 6.75 0.0 0
M  V30 12 C 9.0932 9.0 0.0 0
M  V30 13 F 6.4951 6.0 0.0 0
M  V30 14 C 9.0932 6.0 0.0 0
M  V30 15 F 9.0932 10.5 0.0 0
M  V30 16 C 10.3923 8.25 0.0 0
M  V30 17 C 10.3923 6.75 0.0 0
M  V30 18 C 11.6913 6.0 0.0 0
M  V30 19 C 11.6913 4.5 0.0 0
M  V30 20 C 12.9903 6.75 0.0 0
M  V30 21 N 10.3923 3.75 0.0 0
M  V30 22 C 12.9903 3.75 0.0 0
M  V30 23 C 14.2894 6.0 0.0 0
M  V30 24 C 10.3923 2.25 0.0 0
M  V30 25 N 12.9903 2.25 0.0 0
M  V30 26 C 14.2894 4.5 0.0 0
M  V30 27 C 9.0932 1.5 0.0 0
M  V30 28 C 11.6913 1.5 0.0 0
M  V30 29 C 7.7942 2.25 0.0 0
M  V30 30 C 9.0932 0.0 0.0 0
M  V30 31 C 6.4951 1.5 0.0 0
M  V30 32 C 7.7942 -0.75 0.0 0
M  V30 33 O 5.1961 2.25 0.0 0
M  V30 34 C 6.4951 0.0 0.0 0
M  V30 35 C 3.8971 1.5 0.0 0
M  V30 36 O 5.1961 -0.75 0.0 0
M  V30 37 C 3.8971 0.0 0.0 0
M  V30 38 C 2.598 -0.75 0.0 0
M  V30 39 C 1.299 0.0 0.0 0
M  V30 40 N 0.0 -0.75 0.0 0
M  V30 41 C -1.299 0.0 0.0 0
M  V30 42 C 0.0 -2.25 0.0 0
M  V30 43 C -2.598 -0.75 0.0 0
M  V30 44 C -1.299 -3.0 0.0 0
M  V30 45 O -2.598 -2.25 0.0 0
M  V30 END ATOM
M  V30 BEGIN BOND
M  V30 1 2 1 2
M  V30 2 2 1 3
M  V30 3 1 1 4
M  V30 4 1 1 5
M  V30 5 1 4 6
M  V30 6 1 5 7
M  V30 7 1 6 8
M  V30 8 1 8 9
M  V30 9 1 9 10
M  V30 10 2 10 11
M  V30 11 1 10 12
M  V30 12 1 11 13
M  V30 13 1 11 14
M  V30 14 1 12 15
M  V30 15 2 12 16
M  V30 16 2 14 17
M  V30 17 1 17 18
M  V30 18 1 18 19
M  V30 19 2 18 20
M  V30 20 2 19 21
M  V30 21 1 19 22
M  V30 22 1 20 23
M  V30 23 1 21 24
M  V30 24 2 22 25
M  V30 25 1 22 26
M  V30 26 1 24 27
M  V30 27 2 24 28
M  V30 28 2 27 29
M  V30 29 1 27 30
M  V30 30 1 29 31
M  V30 31 2 30 32
M  V30 32 1 31 33
M  V30 33 2 31 34
M  V30 34 1 33 35
M  V30 35 1 34 36
M  V30 36 1 36 37
M  V30 37 1 37 38
M  V30 38 1 38 39
M  V30 39 1 39 40
M  V30 40 1 40 41
M  V30 41 1 40 42
M  V30 42 1 41 43
M  V30 43 1 42 44
M  V30 44 1 43 45
M  V30 45 1 7 8
M  V30 46 1 16 17
M  V30 47 2 23 26
M  V30 48 1 25 28
M  V30 49 1 32 34
M  V30 50 1 44 45
M  V30 END BOND
M  V30 END CTAB
M  END
>  <Molecule Name>
Compound 301

>  <Molecule Name 2>
Compound 301

>  <Compound ID>
92

>  <Name>
Quinoxaline 2

>  <Uniprot>
P23458

>  <Target>
JAK1

>  <Smiles>
COC1=CC(C2=CN=C3C=CC=C(C4=CC(F)=C(CN5CCS(=O)(=O)CC5)C(F)=C4)C3=N2)=CC=C1OCCCN1CCOCC1

>  <Kd (nM)>


>  <Assay (Kd)>


>  <Ki (nM)>


>  <Assay (Ki)>


>  <IC50 (nM)>
7.9

>  <Assay (IC50)>
Inhibition of JAK1

>  <EC50 (nM)>


>  <Assay (EC50)>


>  <Article DOI>
10.1016/j.bmc.2020.115326

>  <Molecular Weight>
638.737

>  <Exact Mass>
638.2374477

>  <XLogP3>
3.65

>  <Heavy Atom Count>
45

>  <Ring Count>
6

>  <Hydrogen Bond Acceptor Count>
9

>  <Hydrogen Bond Donor Count>
0

>  <Rotatable Bond Count>
10

>  <Topological Polar Surface Area>
94.09

>  <Molecular Formula>
C33H36F2N4O5S

>  <InChI>
InChI=1S/C33H36F2N4O5S/c1-42-32-20-23(6-7-31(32)44-13-3-8-38-9-14-43-15-10-38)30-21-36-29-5-2-4-25(33(29)37-30)24-18-27(34)26(28(35)19-24)22-39-11-16-45(40,41)17-12-39/h2,4-7,18-21H,3,8-17,22H2,1H3

>  <InChI Key>
NVOIBHOEZNKMBT-UHFFFAOYSA-N

>  <BindingDB>


>  <PubChem>
59392765

>  <ChEMBL>


$$$$
92
Actelion Java MolfileCreator 2.0

  0  0  0  0  0  0              0 V3000
M  V30 BEGIN CTAB
M  V30 COUNTS 45 50 0 0 0
M  V30 BEGIN ATOM
M  V30 1 S 6.4951 13.5 0.0 0
M  V30 2 O 7.2451 14.799 0.0 0
M  V30 3 O 5.7451 14.799 0.0 0
M  V30 4 C 5.1961 12.75 0.0 0
M  V30 5 C 7.7942 12.75 0.0 0
M  V30 6 C 5.1961 11.25 0.0 0
M  V30 7 C 7.7942 11.25 0.0 0
M  V30 8 N 6.4951 10.5 0.0 0
M  V30 9 C 6.4951 9.0 0.0 0
M  V30 10 C 7.7942 8.25 0.0 0
M  V30 11 C 7.7942 6.75 0.0 0
M  V30 12 C 9.0932 9.0 0.0 0
M  V30 13 F 6.4951 6.0 0.0 0
M  V30 14 C 9.0932 6.0 0.0 0
M  V30 15 F 9.0932 10.5 0.0 0
M  V30 16 C 10.3923 8.25 0.0 0
M  V30 17 C 10.3923 6.75 0.0 0
M  V30 18 C 11.6913 6.0 0.0 0
M  V30 19 C 11.6913 4.5 0.0 0
M  V30 20 C 12.9903 6.75 0.0 0
M  V30 21 N 10.3923 3.75 0.0 0
M  V30 22 C 12.9903 3.75 0.0 0
M  V30 23 C 14.2894 6.0 0.0 0
M  V30 24 C 10.3923 2.25 0.0 0
M  V30 25 N 12.9903 2.25 0.0 0
M  V30 26 C 14.2894 4.5 0.0 0
M  V30 27 C 9.0932 1.5 0.0 0
M  V30 28 C 11.6913 1.5 0.0 0
M  V30 29 C 7.7942 2.25 0.0 0
M  V30 30 C 9.0932 0.0 0.0 0
M  V30 31 C 6.4951 1.5 0.0 0
M  V30 32 C 7.7942 -0.75 0.0 0
M  V30 33 O 5.1961 2.25 0.0 0
M  V30 34 C 6.4951 0.0 0.0 0
M  V30 35 C 3.8971 1.5 0.0 0
M  V30 36 O 5.1961 -0.75 0.0 0
M  V30 37 C 3.8971 0.0 0.0 0
M  V30 38 C 2.598 -0.75 0.0 0
M  V30 39 C 1.299 0.0 0.0 0
M  V30 40 N 0.0 -0.75 0.0 0
M  V30 41 C -1.299 0.0 0.0 0
M  V30 42 C 0.0 -2.25 0.0 0
M  V30 43 C -2.598 -0.75 0.0 0
M  V30 44 C -1.299 -3.0 0.0 0
M  V30 45 O -2.598 -2.25 0.0 0
M  V30 END ATOM
M  V30 BEGIN BOND
M  V30 1 2 1 2
M  V30 2 2 1 3
M  V30 3 1 1 4
M  V30 4 1 1 5
M  V30 5 1 4 6
M  V30 6 1 5 7
M  V30 7 1 6 8
M  V30 8 1 8 9
M  V30 9 1 9 10
M  V30 10 2 10 11
M  V30 11 1 10 12
M  V30 12 1 11 13
M  V30 13 1 11 14
M  V30 14 1 12 15
M  V30 15 2 12 16
M  V30 16 2 14 17
M  V30 17 1 17 18
M  V30 18 1 18 19
M  V30 19 2 18 20
M  V30 20 2 19 21
M  V30 21 1 19 22
M  V30 22 1 20 23
M  V30 23 1 21 24
M  V30 24 2 22 25
M  V30 25 1 22 26
M  V30 26 1 24 27
M  V30 27 2 24 28
M  V30 28 2 27 29
M  V30 29 1 27 30
M  V30 30 1 29 31
M  V30 31 2 30 32
M  V30 32 1 31 33
M  V30 33 2 31 34
M  V30 34 1 33 35
M  V30 35 1 34 36
M  V30 36 1 36 37
M  V30 37 1 37 38
M  V30 38 1 38 39
M  V30 39 1 39 40
M  V30 40 1 40 41
M  V30 41 1 40 42
M  V30 42 1 41 43
M  V30 43 1 42 44
M  V30 44 1 43 45
M  V30 45 1 7 8
M  V30 46 1 16 17
M  V30 47 2 23 26
M  V30 48 1 25 28
M  V30 49 1 32 34
M  V30 50 1 44 45
M  V30 END BOND
M  V30 END CTAB
M  END
>  <Molecule Name>
Compound 302

>  <Molecule Name 2>
Compound 302

>  <Compound ID>
92

>  <Name>
Quinoxaline 2

>  <Uniprot>
O60674

>  <Target>
JAK2

>  <Smiles>
COC1=CC(C2=CN=C3C=CC=C(C4=CC(F)=C(CN5CCS(=O)(=O)CC5)C(F)=C4)C3=N2)=CC=C1OCCCN1CCOCC1

>  <Kd (nM)>


>  <Assay (Kd)>


>  <Ki (nM)>


>  <Assay (Ki)>


>  <IC50 (nM)>
0.3

>  <Assay (IC50)>
Inhibition of JAK2

>  <EC50 (nM)>


>  <Assay (EC50)>


>  <Article DOI>
10.1016/j.bmc.2020.115326

>  <Molecular Weight>
638.737

>  <Exact Mass>
638.2374477

>  <XLogP3>
3.65

>  <Heavy Atom Count>
45

>  <Ring Count>
6

>  <Hydrogen Bond Acceptor Count>
9

>  <Hydrogen Bond Donor Count>
0

>  <Rotatable Bond Count>
10

>  <Topological Polar Surface Area>
94.09

>  <Molecular Formula>
C33H36F2N4O5S

>  <InChI>
InChI=1S/C33H36F2N4O5S/c1-42-32-20-23(6-7-31(32)44-13-3-8-38-9-14-43-15-10-38)30-21-36-29-5-2-4-25(33(29)37-30)24-18-27(34)26(28(35)19-24)22-39-11-16-45(40,41)17-12-39/h2,4-7,18-21H,3,8-17,22H2,1H3

>  <InChI Key>
NVOIBHOEZNKMBT-UHFFFAOYSA-N

>  <BindingDB>


>  <PubChem>
59392765

>  <ChEMBL>


$$$$
93
Actelion Java MolfileCreator 2.0

  0  0  0  0  0  0              0 V3000
M  V30 BEGIN CTAB
M  V30 COUNTS 25 28 0 0 0
M  V30 BEGIN ATOM
M  V30 1 O 5.1961 1.4999 0.0 0
M  V30 2 C 4.3301 1.0 0.0 0
M  V30 3 N 3.4641 1.5 0.0 0
M  V30 4 N 4.3301 0.0 0.0 0
M  V30 5 C 2.598 1.0 0.0 0
M  V30 6 C 3.4641 2.5 0.0 0
M  V30 7 C 3.4641 -0.4999 0.0 0 CFG=2
M  V30 8 C 2.598 0.0 0.0 0
M  V30 9 C 1.732 1.4999 0.0 0
M  V30 10 C 3.4641 -1.5 0.0 0
M  V30 11 C 1.732 -0.5 0.0 0
M  V30 12 C 0.866 1.0 0.0 0
M  V30 13 C 2.598 -2.0 0.0 0
M  V30 14 C 4.3301 -1.9999 0.0 0
M  V30 15 C 0.866 0.0 0.0 0
M  V30 16 C 2.598 -3.0 0.0 0
M  V30 17 C 4.3301 -2.9999 0.0 0
M  V30 18 C 0.0 -0.5 0.0 0
M  V30 19 C 3.4641 -3.4999 0.0 0
M  V30 20 C -0.9135 -0.0932 0.0 0
M  V30 21 C -0.1045 -1.4945 0.0 0
M  V30 22 O -1.5826 -0.8364 0.0 0
M  V30 23 C -1.1214 0.8848 0.0 0
M  V30 24 N -1.0826 -1.7024 0.0 0
M  V30 25 C 0.6386 -2.1636 0.0 0
M  V30 END ATOM
M  V30 BEGIN BOND
M  V30 1 2 1 2
M  V30 2 1 2 3
M  V30 3 1 2 4
M  V30 4 1 3 5
M  V30 5 1 3 6
M  V30 6 1 7 4
M  V30 7 2 5 8
M  V30 8 1 5 9
M  V30 9 1 7 10 CFG=1
M  V30 10 1 8 11
M  V30 11 2 9 12
M  V30 12 2 10 13
M  V30 13 1 10 14
M  V30 14 2 11 15
M  V30 15 1 13 16
M  V30 16 2 14 17
M  V30 17 1 15 18
M  V30 18 2 16 19
M  V30 19 2 18 20
M  V30 20 1 18 21
M  V30 21 1 20 22
M  V30 22 1 20 23
M  V30 23 2 21 24
M  V30 24 1 21 25
M  V30 25 1 7 8
M  V30 26 1 12 15
M  V30 27 1 17 19
M  V30 28 1 22 24
M  V30 END BOND
M  V30 BEGIN COLLECTION
M  V30 MDLV30/STERAC1 ATOMS=(1 7)
M  V30 END COLLECTION
M  V30 END CTAB
M  END
>  <Molecule Name>
Compound 303

>  <Molecule Name 2>
Compound 303

>  <Compound ID>
93

>  <Name>


>  <Uniprot>
O60885

>  <Target>
BRD4

>  <Smiles>
CC1=NOC(C)=C1C1=CC=C2C(=C1)C(C1=CC=CC=C1)NC(=O)N2C

>  <Kd (nM)>


>  <Assay (Kd)>


>  <Ki (nM)>


>  <Assay (Ki)>


>  <IC50 (nM)>
46.4

>  <Assay (IC50)>
IC50 of BRD4 BD1 was assessed by the AlphaScreen assay

>  <EC50 (nM)>


>  <Assay (EC50)>


>  <Article DOI>
10.1016/j.bmc.2019.115228

>  <Molecular Weight>
333.391

>  <Exact Mass>
333.1477268

>  <XLogP3>
3.25

>  <Heavy Atom Count>
25

>  <Ring Count>
4

>  <Hydrogen Bond Acceptor Count>
3

>  <Hydrogen Bond Donor Count>
1

>  <Rotatable Bond Count>
2

>  <Topological Polar Surface Area>
58.37

>  <Molecular Formula>
C20H19N3O2

>  <InChI>
InChI=1S/C20H19N3O2/c1-12-18(13(2)25-22-12)15-9-10-17-16(11-15)19(21-20(24)23(17)3)14-7-5-4-6-8-14/h4-11,19H,1-3H3,(H,21,24)

>  <InChI Key>
XFBRDTMFVAACDR-UHFFFAOYSA-N

>  <BindingDB>


>  <PubChem>
141488030

>  <ChEMBL>


$$$$
94
Actelion Java MolfileCreator 2.0

  0  0  0  0  0  0              0 V3000
M  V30 BEGIN CTAB
M  V30 COUNTS 20 22 0 0 0
M  V30 BEGIN ATOM
M  V30 1 O 0.866 0.0 0.0 0
M  V30 2 C 0.0 -0.5 0.0 0
M  V30 3 C -0.866 0.0 0.0 0
M  V30 4 C 0.0 -1.4999 0.0 0
M  V30 5 C -0.866 1.0 0.0 0
M  V30 6 C -1.732 -0.4999 0.0 0
M  V30 7 C -0.866 -1.9999 0.0 0
M  V30 8 N 0.0 1.4999 0.0 0
M  V30 9 C -1.732 1.5 0.0 0
M  V30 10 C -1.732 -1.4999 0.0 0
M  V30 11 N 0.0 2.4999 0.0 0
M  V30 12 C -1.732 2.5 0.0 0
M  V30 13 C -0.866 3.0 0.0 0
M  V30 14 N -2.598 3.0 0.0 0
M  V30 15 N -0.866 4.0 0.0 0
M  V30 16 C -2.598 4.0 0.0 0
M  V30 17 C -3.4641 2.5 0.0 0
M  V30 18 C -3.4641 4.5 0.0 0
M  V30 19 C -4.3301 3.0 0.0 0
M  V30 20 N -4.3301 4.0 0.0 0
M  V30 END ATOM
M  V30 BEGIN BOND
M  V30 1 1 1 2
M  V30 2 2 2 3
M  V30 3 1 2 4
M  V30 4 1 3 5
M  V30 5 1 3 6
M  V30 6 2 4 7
M  V30 7 2 5 8
M  V30 8 1 5 9
M  V30 9 2 6 10
M  V30 10 1 8 11
M  V30 11 2 9 12
M  V30 12 2 11 13
M  V30 13 1 12 14
M  V30 14 1 13 15
M  V30 15 1 14 16
M  V30 16 1 14 17
M  V30 17 1 16 18
M  V30 18 1 17 19
M  V30 19 1 18 20
M  V30 20 1 7 10
M  V30 21 1 12 13
M  V30 22 1 19 20
M  V30 END BOND
M  V30 END CTAB
M  END
>  <Molecule Name>
Compound 304

>  <Molecule Name 2>
Compound 304

>  <Compound ID>
94

>  <Name>


>  <Uniprot>
Q86U86

>  <Target>
PBRM1

>  <Smiles>
NC1=NN=C(C2=CC=CC=C2O)C=C1N1CCNCC1

>  <Kd (nM)>
112

>  <Assay (Kd)>
SPR in PBRM1 BD5

>  <Ki (nM)>


>  <Assay (Ki)>


>  <IC50 (nM)>
430

>  <Assay (IC50)>
IC50 of PBRM1 BD5 was tested by TR-FRET

>  <EC50 (nM)>


>  <Assay (EC50)>


>  <Article DOI>
10.1038/s41589-019-0294-6

>  <Molecular Weight>
271.324

>  <Exact Mass>
271.1433102

>  <XLogP3>
0.27

>  <Heavy Atom Count>
20

>  <Ring Count>
3

>  <Hydrogen Bond Acceptor Count>
6

>  <Hydrogen Bond Donor Count>
3

>  <Rotatable Bond Count>
2

>  <Topological Polar Surface Area>
87.3

>  <Molecular Formula>
C14H17N5O

>  <InChI>
InChI=1S/C14H17N5O/c15-14-12(19-7-5-16-6-8-19)9-11(17-18-14)10-3-1-2-4-13(10)20/h1-4,9,16,20H,5-8H2,(H2,15,18)

>  <InChI Key>
SZKHGLTYXIDOFH-UHFFFAOYSA-N

>  <BindingDB>
394406

>  <PubChem>
137045944

>  <ChEMBL>


$$$$
94
Actelion Java MolfileCreator 2.0

  0  0  0  0  0  0              0 V3000
M  V30 BEGIN CTAB
M  V30 COUNTS 20 22 0 0 0
M  V30 BEGIN ATOM
M  V30 1 O 0.866 0.0 0.0 0
M  V30 2 C 0.0 -0.5 0.0 0
M  V30 3 C -0.866 0.0 0.0 0
M  V30 4 C 0.0 -1.4999 0.0 0
M  V30 5 C -0.866 1.0 0.0 0
M  V30 6 C -1.732 -0.4999 0.0 0
M  V30 7 C -0.866 -1.9999 0.0 0
M  V30 8 N 0.0 1.4999 0.0 0
M  V30 9 C -1.732 1.5 0.0 0
M  V30 10 C -1.732 -1.4999 0.0 0
M  V30 11 N 0.0 2.4999 0.0 0
M  V30 12 C -1.732 2.5 0.0 0
M  V30 13 C -0.866 3.0 0.0 0
M  V30 14 N -2.598 3.0 0.0 0
M  V30 15 N -0.866 4.0 0.0 0
M  V30 16 C -2.598 4.0 0.0 0
M  V30 17 C -3.4641 2.5 0.0 0
M  V30 18 C -3.4641 4.5 0.0 0
M  V30 19 C -4.3301 3.0 0.0 0
M  V30 20 N -4.3301 4.0 0.0 0
M  V30 END ATOM
M  V30 BEGIN BOND
M  V30 1 1 1 2
M  V30 2 2 2 3
M  V30 3 1 2 4
M  V30 4 1 3 5
M  V30 5 1 3 6
M  V30 6 2 4 7
M  V30 7 2 5 8
M  V30 8 1 5 9
M  V30 9 2 6 10
M  V30 10 1 8 11
M  V30 11 2 9 12
M  V30 12 2 11 13
M  V30 13 1 12 14
M  V30 14 1 13 15
M  V30 15 1 14 16
M  V30 16 1 14 17
M  V30 17 1 16 18
M  V30 18 1 17 19
M  V30 19 1 18 20
M  V30 20 1 7 10
M  V30 21 1 12 13
M  V30 22 1 19 20
M  V30 END BOND
M  V30 END CTAB
M  END
>  <Molecule Name>
Compound 305

>  <Molecule Name 2>
Compound 305

>  <Compound ID>
94

>  <Name>


>  <Uniprot>
P51531

>  <Target>
SMARCA2

>  <Smiles>
NC1=NN=C(C2=CC=CC=C2O)C=C1N1CCNCC1

>  <Kd (nM)>
225

>  <Assay (Kd)>
SPR in SMARCA2 BD

>  <Ki (nM)>


>  <Assay (Ki)>


>  <IC50 (nM)>
370

>  <Assay (IC50)>
IC50 of SMARCA2 BD was tested by TR-FRET

>  <EC50 (nM)>


>  <Assay (EC50)>


>  <Article DOI>
10.1038/s41589-019-0294-6

>  <Molecular Weight>
271.324

>  <Exact Mass>
271.1433102

>  <XLogP3>
0.27

>  <Heavy Atom Count>
20

>  <Ring Count>
3

>  <Hydrogen Bond Acceptor Count>
6

>  <Hydrogen Bond Donor Count>
3

>  <Rotatable Bond Count>
2

>  <Topological Polar Surface Area>
87.3

>  <Molecular Formula>
C14H17N5O

>  <InChI>
InChI=1S/C14H17N5O/c15-14-12(19-7-5-16-6-8-19)9-11(17-18-14)10-3-1-2-4-13(10)20/h1-4,9,16,20H,5-8H2,(H2,15,18)

>  <InChI Key>
SZKHGLTYXIDOFH-UHFFFAOYSA-N

>  <BindingDB>
394406

>  <PubChem>
137045944

>  <ChEMBL>


$$$$
94
Actelion Java MolfileCreator 2.0

  0  0  0  0  0  0              0 V3000
M  V30 BEGIN CTAB
M  V30 COUNTS 20 22 0 0 0
M  V30 BEGIN ATOM
M  V30 1 O 0.866 0.0 0.0 0
M  V30 2 C 0.0 -0.5 0.0 0
M  V30 3 C -0.866 0.0 0.0 0
M  V30 4 C 0.0 -1.4999 0.0 0
M  V30 5 C -0.866 1.0 0.0 0
M  V30 6 C -1.732 -0.4999 0.0 0
M  V30 7 C -0.866 -1.9999 0.0 0
M  V30 8 N 0.0 1.4999 0.0 0
M  V30 9 C -1.732 1.5 0.0 0
M  V30 10 C -1.732 -1.4999 0.0 0
M  V30 11 N 0.0 2.4999 0.0 0
M  V30 12 C -1.732 2.5 0.0 0
M  V30 13 C -0.866 3.0 0.0 0
M  V30 14 N -2.598 3.0 0.0 0
M  V30 15 N -0.866 4.0 0.0 0
M  V30 16 C -2.598 4.0 0.0 0
M  V30 17 C -3.4641 2.5 0.0 0
M  V30 18 C -3.4641 4.5 0.0 0
M  V30 19 C -4.3301 3.0 0.0 0
M  V30 20 N -4.3301 4.0 0.0 0
M  V30 END ATOM
M  V30 BEGIN BOND
M  V30 1 1 1 2
M  V30 2 2 2 3
M  V30 3 1 2 4
M  V30 4 1 3 5
M  V30 5 1 3 6
M  V30 6 2 4 7
M  V30 7 2 5 8
M  V30 8 1 5 9
M  V30 9 2 6 10
M  V30 10 1 8 11
M  V30 11 2 9 12
M  V30 12 2 11 13
M  V30 13 1 12 14
M  V30 14 1 13 15
M  V30 15 1 14 16
M  V30 16 1 14 17
M  V30 17 1 16 18
M  V30 18 1 17 19
M  V30 19 1 18 20
M  V30 20 1 7 10
M  V30 21 1 12 13
M  V30 22 1 19 20
M  V30 END BOND
M  V30 END CTAB
M  END
>  <Molecule Name>
Compound 306

>  <Molecule Name 2>
Compound 306

>  <Compound ID>
94

>  <Name>


>  <Uniprot>
P51532

>  <Target>
SMARCA4

>  <Smiles>
NC1=NN=C(C2=CC=CC=C2O)C=C1N1CCNCC1

>  <Kd (nM)>
246

>  <Assay (Kd)>
SPR in SMARCA4 BD

>  <Ki (nM)>


>  <Assay (Ki)>


>  <IC50 (nM)>
550

>  <Assay (IC50)>
IC50 of SMARCA4 BD was tested by TR-FRET

>  <EC50 (nM)>


>  <Assay (EC50)>


>  <Article DOI>
10.1038/s41589-019-0294-6

>  <Molecular Weight>
271.324

>  <Exact Mass>
271.1433102

>  <XLogP3>
0.27

>  <Heavy Atom Count>
20

>  <Ring Count>
3

>  <Hydrogen Bond Acceptor Count>
6

>  <Hydrogen Bond Donor Count>
3

>  <Rotatable Bond Count>
2

>  <Topological Polar Surface Area>
87.3

>  <Molecular Formula>
C14H17N5O

>  <InChI>
InChI=1S/C14H17N5O/c15-14-12(19-7-5-16-6-8-19)9-11(17-18-14)10-3-1-2-4-13(10)20/h1-4,9,16,20H,5-8H2,(H2,15,18)

>  <InChI Key>
SZKHGLTYXIDOFH-UHFFFAOYSA-N

>  <BindingDB>
394406

>  <PubChem>
137045944

>  <ChEMBL>


$$$$
95
Actelion Java MolfileCreator 2.0

  0  0  0  0  0  0              0 V3000
M  V30 BEGIN CTAB
M  V30 COUNTS 25 27 0 0 0
M  V30 BEGIN ATOM
M  V30 1 S 2.7026 0.9945 0.0 0
M  V30 2 C 2.598 0.0 0.0 0
M  V30 3 C 3.6807 1.2024 0.0 0
M  V30 4 N 3.5116 -0.4067 0.0 0
M  V30 5 N 1.732 -0.5 0.0 0
M  V30 6 S 4.0874 2.1159 0.0 0
M  V30 7 C 4.1807 0.3364 0.0 0
M  V30 8 C 0.866 0.0 0.0 0
M  V30 9 C 5.082 2.2205 0.0 0
M  V30 10 O 0.866 1.0 0.0 0
M  V30 11 C 0.0 -0.5 0.0 0
M  V30 12 C 5.4887 3.134 0.0 0
M  V30 13 C -0.866 0.0 0.0 0
M  V30 14 C 0.0 -1.4999 0.0 0
M  V30 15 O 6.4668 3.3419 0.0 0
M  V30 16 N 4.9887 4.0 0.0 0
M  V30 17 C -1.732 -0.4999 0.0 0
M  V30 18 C -0.866 -1.9999 0.0 0
M  V30 19 C 6.5714 4.3364 0.0 0
M  V30 20 C 5.6578 4.7432 0.0 0
M  V30 21 N -1.732 -1.4999 0.0 0
M  V30 22 C 7.4374 4.8364 0.0 0
M  V30 23 C 6.9374 5.7025 0.0 0
M  V30 24 C 8.3034 5.3364 0.0 0
M  V30 25 C 7.9374 3.9704 0.0 0
M  V30 END ATOM
M  V30 BEGIN BOND
M  V30 1 1 1 2
M  V30 2 1 1 3
M  V30 3 2 2 4
M  V30 4 1 2 5
M  V30 5 1 3 6
M  V30 6 2 3 7
M  V30 7 1 5 8
M  V30 8 1 6 9
M  V30 9 2 8 10
M  V30 10 1 8 11
M  V30 11 1 9 12
M  V30 12 1 11 13
M  V30 13 1 11 14
M  V30 14 1 12 15
M  V30 15 2 12 16
M  V30 16 1 13 17
M  V30 17 1 14 18
M  V30 18 1 15 19
M  V30 19 1 16 20
M  V30 20 1 17 21
M  V30 21 1 19 22
M  V30 22 1 22 23
M  V30 23 1 22 24
M  V30 24 1 22 25
M  V30 25 1 4 7
M  V30 26 1 18 21
M  V30 27 2 19 20
M  V30 END BOND
M  V30 END CTAB
M  END
>  <Molecule Name>
Compound 307

>  <Molecule Name 2>
Compound 307

>  <Compound ID>
95

>  <Name>
SNS-032

>  <Uniprot>
P50750

>  <Target>
CDK9

>  <Smiles>
CC(C)(C)C1=CN=C(CSC2=CN=C(NC(=O)C3CCNCC3)S2)O1

>  <Kd (nM)>


>  <Assay (Kd)>


>  <Ki (nM)>
4

>  <Assay (Ki)>
Ki of CDK9

>  <IC50 (nM)>


>  <Assay (IC50)>


>  <EC50 (nM)>


>  <Assay (EC50)>


>  <Article DOI>
10.1021/jm301495v

>  <Molecular Weight>
380.539

>  <Exact Mass>
380.134068

>  <XLogP3>
2.99

>  <Heavy Atom Count>
25

>  <Ring Count>
3

>  <Hydrogen Bond Acceptor Count>
7

>  <Hydrogen Bond Donor Count>
2

>  <Rotatable Bond Count>
5

>  <Topological Polar Surface Area>
80.05

>  <Molecular Formula>
C17H24N4O2S2

>  <InChI>
InChI=1S/C17H24N4O2S2/c1-17(2,3)12-8-19-13(23-12)10-24-14-9-20-16(25-14)21-15(22)11-4-6-18-7-5-11/h8-9,11,18H,4-7,10H2,1-3H3,(H,20,21,22)

>  <InChI Key>
OUSFTKFNBAZUKL-UHFFFAOYSA-N

>  <BindingDB>
5931

>  <PubChem>
3025986

>  <ChEMBL>
CHEMBL296468

$$$$
95
Actelion Java MolfileCreator 2.0

  0  0  0  0  0  0              0 V3000
M  V30 BEGIN CTAB
M  V30 COUNTS 25 27 0 0 0
M  V30 BEGIN ATOM
M  V30 1 S 2.7026 0.9945 0.0 0
M  V30 2 C 2.598 0.0 0.0 0
M  V30 3 C 3.6807 1.2024 0.0 0
M  V30 4 N 3.5116 -0.4067 0.0 0
M  V30 5 N 1.732 -0.5 0.0 0
M  V30 6 S 4.0874 2.1159 0.0 0
M  V30 7 C 4.1807 0.3364 0.0 0
M  V30 8 C 0.866 0.0 0.0 0
M  V30 9 C 5.082 2.2205 0.0 0
M  V30 10 O 0.866 1.0 0.0 0
M  V30 11 C 0.0 -0.5 0.0 0
M  V30 12 C 5.4887 3.134 0.0 0
M  V30 13 C -0.866 0.0 0.0 0
M  V30 14 C 0.0 -1.4999 0.0 0
M  V30 15 O 6.4668 3.3419 0.0 0
M  V30 16 N 4.9887 4.0 0.0 0
M  V30 17 C -1.732 -0.4999 0.0 0
M  V30 18 C -0.866 -1.9999 0.0 0
M  V30 19 C 6.5714 4.3364 0.0 0
M  V30 20 C 5.6578 4.7432 0.0 0
M  V30 21 N -1.732 -1.4999 0.0 0
M  V30 22 C 7.4374 4.8364 0.0 0
M  V30 23 C 6.9374 5.7025 0.0 0
M  V30 24 C 8.3034 5.3364 0.0 0
M  V30 25 C 7.9374 3.9704 0.0 0
M  V30 END ATOM
M  V30 BEGIN BOND
M  V30 1 1 1 2
M  V30 2 1 1 3
M  V30 3 2 2 4
M  V30 4 1 2 5
M  V30 5 1 3 6
M  V30 6 2 3 7
M  V30 7 1 5 8
M  V30 8 1 6 9
M  V30 9 2 8 10
M  V30 10 1 8 11
M  V30 11 1 9 12
M  V30 12 1 11 13
M  V30 13 1 11 14
M  V30 14 1 12 15
M  V30 15 2 12 16
M  V30 16 1 13 17
M  V30 17 1 14 18
M  V30 18 1 15 19
M  V30 19 1 16 20
M  V30 20 1 17 21
M  V30 21 1 19 22
M  V30 22 1 22 23
M  V30 23 1 22 24
M  V30 24 1 22 25
M  V30 25 1 4 7
M  V30 26 1 18 21
M  V30 27 2 19 20
M  V30 END BOND
M  V30 END CTAB
M  END
>  <Molecule Name>
Compound 308

>  <Molecule Name 2>
Compound 308

>  <Compound ID>
95

>  <Name>
SNS-032

>  <Uniprot>
P49759

>  <Target>
CLK1

>  <Smiles>
CC(C)(C)C1=CN=C(CSC2=CN=C(NC(=O)C3CCNCC3)S2)O1

>  <Kd (nM)>
410

>  <Assay (Kd)>
Kd was assessed by competition binding assays

>  <Ki (nM)>


>  <Assay (Ki)>


>  <IC50 (nM)>


>  <Assay (IC50)>


>  <EC50 (nM)>


>  <Assay (EC50)>


>  <Article DOI>
10.1038/nbt.1990

>  <Molecular Weight>
380.539

>  <Exact Mass>
380.134068

>  <XLogP3>
2.99

>  <Heavy Atom Count>
25

>  <Ring Count>
3

>  <Hydrogen Bond Acceptor Count>
7

>  <Hydrogen Bond Donor Count>
2

>  <Rotatable Bond Count>
5

>  <Topological Polar Surface Area>
80.05

>  <Molecular Formula>
C17H24N4O2S2

>  <InChI>
InChI=1S/C17H24N4O2S2/c1-17(2,3)12-8-19-13(23-12)10-24-14-9-20-16(25-14)21-15(22)11-4-6-18-7-5-11/h8-9,11,18H,4-7,10H2,1-3H3,(H,20,21,22)

>  <InChI Key>
OUSFTKFNBAZUKL-UHFFFAOYSA-N

>  <BindingDB>
5931

>  <PubChem>
3025986

>  <ChEMBL>
CHEMBL296468

$$$$
96
Actelion Java MolfileCreator 2.0

  0  0  0  0  0  0              0 V3000
M  V30 BEGIN CTAB
M  V30 COUNTS 36 39 0 0 0
M  V30 BEGIN ATOM
M  V30 1 Cl 10.3923 -0.5 0.0 0
M  V30 2 C 9.5262 0.0 0.0 0
M  V30 3 C 9.5262 0.9999 0.0 0
M  V30 4 C 8.6602 -0.5 0.0 0
M  V30 5 C 10.3923 1.4999 0.0 0
M  V30 6 C 8.6602 1.4999 0.0 0
M  V30 7 N 7.7942 0.0 0.0 0
M  V30 8 N 11.2583 0.9999 0.0 0
M  V30 9 C 10.3923 2.4999 0.0 0
M  V30 10 C 7.7942 0.9999 0.0 0
M  V30 11 C 12.1243 1.4999 0.0 0
M  V30 12 C 11.2583 2.9999 0.0 0
M  V30 13 N 6.9282 1.4999 0.0 0
M  V30 14 N 12.9903 0.9999 0.0 0
M  V30 15 C 12.1243 2.4999 0.0 0
M  V30 16 C 6.0621 0.9999 0.0 0 CFG=1
M  V30 17 C 12.9903 0.0 0.0 0
M  V30 18 C 5.1961 1.4999 0.0 0
M  V30 19 C 6.0621 0.0 0.0 0
M  V30 20 C 13.8564 -0.5 0.0 0
M  V30 21 C 4.3301 0.9999 0.0 0
M  V30 22 C 5.1961 -0.5 0.0 0
M  V30 23 C 12.9903 -1.0 0.0 0
M  V30 24 C 14.7224 -1.0 0.0 0
M  V30 25 C 13.8564 0.4999 0.0 0
M  V30 26 C 4.3301 0.0 0.0 0 CFG=1
M  V30 27 N 12.1243 -1.5 0.0 0
M  V30 28 C 15.5884 -0.5 0.0 0
M  V30 29 C 14.7224 0.9999 0.0 0
M  V30 30 N 3.4641 -0.5 0.0 0
M  V30 31 O 15.5884 0.4999 0.0 0
M  V30 32 C 2.598 0.0 0.0 0 CFG=1
M  V30 33 C 1.732 -0.5 0.0 0
M  V30 34 C 2.598 1.0 0.0 0
M  V30 35 O 0.866 0.0 0.0 0
M  V30 36 C 0.0 -0.5 0.0 0
M  V30 END ATOM
M  V30 BEGIN BOND
M  V30 1 1 1 2
M  V30 2 2 2 3
M  V30 3 1 2 4
M  V30 4 1 3 5
M  V30 5 1 3 6
M  V30 6 2 4 7
M  V30 7 2 5 8
M  V30 8 1 5 9
M  V30 9 2 6 10
M  V30 10 1 8 11
M  V30 11 2 9 12
M  V30 12 1 10 13
M  V30 13 1 11 14
M  V30 14 2 11 15
M  V30 15 1 16 13 CFG=3
M  V30 16 1 14 17
M  V30 17 1 16 18
M  V30 18 1 16 19
M  V30 19 1 17 20
M  V30 20 1 18 21
M  V30 21 1 19 22
M  V30 22 1 20 23
M  V30 23 1 20 24
M  V30 24 1 20 25
M  V30 25 1 26 21
M  V30 26 3 23 27
M  V30 27 1 24 28
M  V30 28 1 25 29
M  V30 29 1 26 30 CFG=1
M  V30 30 1 28 31
M  V30 31 1 32 30 CFG=1
M  V30 32 1 32 33
M  V30 33 1 32 34
M  V30 34 1 33 35
M  V30 35 1 35 36
M  V30 36 1 7 10
M  V30 37 1 12 15
M  V30 38 1 22 26
M  V30 39 1 29 31
M  V30 END BOND
M  V30 BEGIN COLLECTION
M  V30 MDLV30/STEABS ATOMS=(3 16 26 32)
M  V30 END COLLECTION
M  V30 END CTAB
M  END
>  <Molecule Name>
Compound 309

>  <Molecule Name 2>
Compound 309

>  <Compound ID>
96

>  <Name>
NVP-2

>  <Uniprot>
P50750

>  <Target>
CDK9

>  <Smiles>
COC[C@@H](C)N[C@H]1CC[C@H](NC2=CC(C3=CC=CC(NCC4(C#N)CCOCC4)=N3)=C(Cl)C=N2)CC1

>  <Kd (nM)>


>  <Assay (Kd)>


>  <Ki (nM)>


>  <Assay (Ki)>


>  <IC50 (nM)>
<0.5

>  <Assay (IC50)>
IC50 of CDK9/CycT1 was tested by Adapta Eu kinase assays

>  <EC50 (nM)>


>  <Assay (EC50)>


>  <Article DOI>
10.1038/nchembio.2538

>  <Molecular Weight>
513.086

>  <Exact Mass>
512.2666521

>  <XLogP3>
4.34

>  <Heavy Atom Count>
36

>  <Ring Count>
4

>  <Hydrogen Bond Acceptor Count>
8

>  <Hydrogen Bond Donor Count>
3

>  <Rotatable Bond Count>
10

>  <Topological Polar Surface Area>
104.12

>  <Molecular Formula>
C27H37ClN6O2

>  <InChI>
InChI=1S/C27H37ClN6O2/c1-19(16-35-2)32-20-6-8-21(9-7-20)33-26-14-22(23(28)15-30-26)24-4-3-5-25(34-24)31-18-27(17-29)10-12-36-13-11-27/h3-5,14-15,19-21,32H,6-13,16,18H2,1-2H3,(H,30,33)(H,31,34)/t19-,20-,21-/m1/s1

>  <InChI Key>
XWQVQSXLXAXOPJ-NJDAHSKKSA-N

>  <BindingDB>
126500

>  <PubChem>
66937006

>  <ChEMBL>
CHEMBL3656841

$$$$
97
Actelion Java MolfileCreator 2.0

  0  0  0  0  0  0              0 V3000
M  V30 BEGIN CTAB
M  V30 COUNTS 26 28 0 0 0
M  V30 BEGIN ATOM
M  V30 1 F 5.1752 0.2318 0.0 0
M  V30 2 C 4.1807 0.3364 0.0 0 CFG=2
M  V30 3 C 3.6807 1.2024 0.0 0
M  V30 4 C 3.5116 -0.4067 0.0 0 CFG=2
M  V30 5 O 4.0874 2.1159 0.0 0
M  V30 6 N 2.7026 0.9945 0.0 0
M  V30 7 C 2.598 0.0 0.0 0 CFG=2
M  V30 8 C 3.7195 -1.3848 0.0 0
M  V30 9 C 1.732 -0.5 0.0 0
M  V30 10 C 4.6705 -1.6939 0.0 0
M  V30 11 O 0.866 0.0 0.0 0
M  V30 12 C 0.0 -0.5 0.0 0
M  V30 13 N -0.866 0.0 0.0 0
M  V30 14 C 0.0 -1.4999 0.0 0
M  V30 15 C -1.732 -0.4999 0.0 0
M  V30 16 C -0.866 -1.9999 0.0 0
M  V30 17 C 0.866 -1.9999 0.0 0
M  V30 18 C -1.732 -1.4999 0.0 0
M  V30 19 C -0.866 -2.9999 0.0 0
M  V30 20 C 0.866 -3.0 0.0 0
M  V30 21 C 0.0 -3.4999 0.0 0
M  V30 22 O 1.732 -3.5 0.0 0
M  V30 23 C 0.0 -4.4999 0.0 0
M  V30 24 C 2.598 -3.0 0.0 0
M  V30 25 O -0.866 -4.9999 0.0 0
M  V30 26 N 0.866 -5.0 0.0 0
M  V30 END ATOM
M  V30 BEGIN BOND
M  V30 1 1 2 1 CFG=1
M  V30 2 1 2 3
M  V30 3 1 4 2
M  V30 4 2 3 5
M  V30 5 1 3 6
M  V30 6 1 7 4
M  V30 7 1 4 8 CFG=1
M  V30 8 1 7 9 CFG=1
M  V30 9 1 8 10
M  V30 10 1 9 11
M  V30 11 1 11 12
M  V30 12 2 12 13
M  V30 13 1 12 14
M  V30 14 1 13 15
M  V30 15 1 14 16
M  V30 16 2 14 17
M  V30 17 2 15 18
M  V30 18 2 16 19
M  V30 19 1 17 20
M  V30 20 1 19 21
M  V30 21 1 20 22
M  V30 22 1 21 23
M  V30 23 1 22 24
M  V30 24 2 23 25
M  V30 25 1 23 26
M  V30 26 1 6 7
M  V30 27 1 16 18
M  V30 28 2 20 21
M  V30 END BOND
M  V30 BEGIN COLLECTION
M  V30 MDLV30/STEABS ATOMS=(3 2 4 7)
M  V30 END COLLECTION
M  V30 END CTAB
M  END
>  <Molecule Name>
Compound 310

>  <Molecule Name 2>
Compound 310

>  <Compound ID>
97

>  <Name>
PF-06650833

>  <Uniprot>
Q9NWZ3

>  <Target>
IRAK4

>  <Smiles>
CC[C@H]1[C@@H](COC2=NC=CC3=CC(C(N)=O)=C(OC)C=C23)NC(=O)[C@H]1F

>  <Kd (nM)>


>  <Assay (Kd)>


>  <Ki (nM)>


>  <Assay (Ki)>


>  <IC50 (nM)>
0.2

>  <Assay (IC50)>
Inhibition of N-terminal His6-tagged human full length IRAK4

>  <EC50 (nM)>


>  <Assay (EC50)>


>  <Article DOI>
10.1021/acs.jmedchem.7b00231

>  <Molecular Weight>
361.373

>  <Exact Mass>
361.1437843

>  <XLogP3>
1.97

>  <Heavy Atom Count>
26

>  <Ring Count>
3

>  <Hydrogen Bond Acceptor Count>
5

>  <Hydrogen Bond Donor Count>
2

>  <Rotatable Bond Count>
6

>  <Topological Polar Surface Area>
103.54

>  <Molecular Formula>
C18H20FN3O4

>  <InChI>
InChI=1S/C18H20FN3O4/c1-3-10-13(22-17(24)15(10)19)8-26-18-11-7-14(25-2)12(16(20)23)6-9(11)4-5-21-18/h4-7,10,13,15H,3,8H2,1-2H3,(H2,20,23)(H,22,24)/t10-,13+,15-/m0/s1

>  <InChI Key>
JKDGKIBAOAFRPJ-ZBINZKHDSA-N

>  <BindingDB>
50239499

>  <PubChem>
118414016

>  <ChEMBL>
CHEMBL4081711

$$$$
98
Actelion Java MolfileCreator 2.0

  0  0  0  0  0  0              0 V3000
M  V30 BEGIN CTAB
M  V30 COUNTS 24 26 0 0 0
M  V30 BEGIN ATOM
M  V30 1 Br 5.1961 1.5 0.0 0
M  V30 2 C 4.3301 1.0 0.0 0
M  V30 3 C 3.4641 1.5 0.0 0
M  V30 4 C 4.3301 0.0 0.0 0
M  V30 5 C 2.598 0.9999 0.0 0
M  V30 6 C 3.4641 2.4999 0.0 0
M  V30 7 N 3.4641 -0.4999 0.0 0
M  V30 8 C 2.598 0.0 0.0 0
M  V30 9 C 1.732 1.4999 0.0 0
M  V30 10 C 2.598 2.9999 0.0 0
M  V30 11 O 1.732 -0.5 0.0 0
M  V30 12 C 1.732 2.4999 0.0 0
M  V30 13 C 2.598 4.0 0.0 0
M  V30 14 C 0.866 0.0 0.0 0
M  V30 15 O 0.866 2.9999 0.0 0
M  V30 16 O 3.4641 4.5 0.0 0
M  V30 17 N 1.732 4.4999 0.0 0
M  V30 18 C 0.0 -0.5 0.0 0 CFG=1
M  V30 19 C 0.0 2.4999 0.0 0
M  V30 20 N -0.9135 -0.0932 0.0 0
M  V30 21 C -0.1045 -1.4945 0.0 0
M  V30 22 C -1.5826 -0.8364 0.0 0
M  V30 23 C -1.0826 -1.7024 0.0 0
M  V30 24 O -2.5771 -0.7318 0.0 0
M  V30 END ATOM
M  V30 BEGIN BOND
M  V30 1 1 1 2
M  V30 2 1 2 3
M  V30 3 2 2 4
M  V30 4 1 3 5
M  V30 5 2 3 6
M  V30 6 1 4 7
M  V30 7 1 5 8
M  V30 8 2 5 9
M  V30 9 1 6 10
M  V30 10 1 8 11
M  V30 11 1 9 12
M  V30 12 1 10 13
M  V30 13 1 11 14
M  V30 14 1 12 15
M  V30 15 2 13 16
M  V30 16 1 13 17
M  V30 17 1 18 14 CFG=3
M  V30 18 1 15 19
M  V30 19 1 18 20
M  V30 20 1 18 21
M  V30 21 1 20 22
M  V30 22 1 21 23
M  V30 23 2 22 24
M  V30 24 2 7 8
M  V30 25 2 10 12
M  V30 26 1 22 23
M  V30 END BOND
M  V30 BEGIN COLLECTION
M  V30 MDLV30/STEABS ATOMS=(1 18)
M  V30 END COLLECTION
M  V30 END CTAB
M  END
>  <Molecule Name>
Compound 311

>  <Molecule Name 2>
Compound 311

>  <Compound ID>
98

>  <Name>


>  <Uniprot>
Q9NWZ3

>  <Target>
IRAK4

>  <Smiles>
COC1=CC2=C(OC[C@@H]3CCC(=O)N3)N=CC(Br)=C2C=C1C(N)=O

>  <Kd (nM)>


>  <Assay (Kd)>


>  <Ki (nM)>


>  <Assay (Ki)>


>  <IC50 (nM)>
2.1

>  <Assay (IC50)>
Inhibition of IRAK4

>  <EC50 (nM)>


>  <Assay (EC50)>


>  <Article DOI>
10.1021/acsmedchemlett.9b00219

>  <Molecular Weight>
394.225

>  <Exact Mass>
393.0324181

>  <XLogP3>
1.39

>  <Heavy Atom Count>
24

>  <Ring Count>
3

>  <Hydrogen Bond Acceptor Count>
5

>  <Hydrogen Bond Donor Count>
2

>  <Rotatable Bond Count>
5

>  <Topological Polar Surface Area>
103.54

>  <Molecular Formula>
C16H16BrN3O4

>  <InChI>
InChI=1S/C16H16BrN3O4/c1-23-13-5-10-9(4-11(13)15(18)22)12(17)6-19-16(10)24-7-8-2-3-14(21)20-8/h4-6,8H,2-3,7H2,1H3,(H2,18,22)(H,20,21)/t8-/m0/s1

>  <InChI Key>
IPUGCJLTEYLCFC-QMMMGPOBSA-N

>  <BindingDB>
50515374

>  <PubChem>
155548286

>  <ChEMBL>
CHEMBL4536517

$$$$
99
Actelion Java MolfileCreator 2.0

  0  0  0  0  0  0              0 V3000
M  V30 BEGIN CTAB
M  V30 COUNTS 38 42 0 0 0
M  V30 BEGIN ATOM
M  V30 1 O 14.2894 -2.9999 0.0 0
M  V30 2 C 12.9903 -2.2499 0.0 0
M  V30 3 N 12.9903 -0.7499 0.0 0
M  V30 4 C 11.6913 -2.9999 0.0 0 CFG=2
M  V30 5 C 11.6913 0.0 0.0 0
M  V30 6 C 14.2894 0.0 0.0 0
M  V30 7 N 10.3923 -2.2499 0.0 0
M  V30 8 C 11.6913 -4.4999 0.0 0
M  V30 9 C 10.3923 -0.7499 0.0 0
M  V30 10 C 11.6913 1.5 0.0 0
M  V30 11 C 9.0932 -2.9999 0.0 0
M  V30 12 C 12.9903 -5.2499 0.0 0
M  V30 13 N 9.0932 0.0 0.0 0
M  V30 14 N 10.3923 2.25 0.0 0
M  V30 15 C 7.7229 -2.3898 0.0 0
M  V30 16 C 8.9364 -4.4917 0.0 0
M  V30 17 C 9.0932 1.5 0.0 0
M  V30 18 C 6.7192 -3.5046 0.0 0
M  V30 19 C 7.4692 -4.8036 0.0 0
M  V30 20 N 7.7942 2.25 0.0 0
M  V30 21 C 6.4951 1.5 0.0 0
M  V30 22 C 5.1961 2.25 0.0 0
M  V30 23 C 6.4951 0.0 0.0 0
M  V30 24 O 5.1961 3.75 0.0 0
M  V30 25 C 3.8971 1.5 0.0 0
M  V30 26 C 5.1961 -0.7499 0.0 0
M  V30 27 C 3.8971 4.5 0.0 0
M  V30 28 C 3.8971 0.0 0.0 0
M  V30 29 C 2.598 -0.75 0.0 0
M  V30 30 O 2.598 -2.25 0.0 0
M  V30 31 N 1.299 0.0 0.0 0
M  V30 32 C 0.0 -0.75 0.0 0
M  V30 33 C -1.299 0.0 0.0 0
M  V30 34 C 0.0 -2.25 0.0 0
M  V30 35 C -2.598 -0.7499 0.0 0
M  V30 36 C -1.299 -2.9999 0.0 0
M  V30 37 N -2.598 -2.2499 0.0 0
M  V30 38 C -3.8971 -2.9999 0.0 0
M  V30 END ATOM
M  V30 BEGIN BOND
M  V30 1 2 1 2
M  V30 2 1 2 3
M  V30 3 1 4 2
M  V30 4 1 3 5
M  V30 5 1 3 6
M  V30 6 1 4 7
M  V30 7 1 4 8 CFG=1
M  V30 8 2 5 9
M  V30 9 1 5 10
M  V30 10 1 7 11
M  V30 11 1 8 12
M  V30 12 1 9 13
M  V30 13 2 10 14
M  V30 14 1 11 15
M  V30 15 1 11 16
M  V30 16 2 13 17
M  V30 17 1 15 18
M  V30 18 1 16 19
M  V30 19 1 17 20
M  V30 20 1 20 21
M  V30 21 2 21 22
M  V30 22 1 21 23
M  V30 23 1 22 24
M  V30 24 1 22 25
M  V30 25 2 23 26
M  V30 26 1 24 27
M  V30 27 2 25 28
M  V30 28 1 28 29
M  V30 29 2 29 30
M  V30 30 1 29 31
M  V30 31 1 31 32
M  V30 32 1 32 33
M  V30 33 1 32 34
M  V30 34 1 33 35
M  V30 35 1 34 36
M  V30 36 1 35 37
M  V30 37 1 37 38
M  V30 38 1 7 9
M  V30 39 1 14 17
M  V30 40 1 18 19
M  V30 41 1 26 28
M  V30 42 1 36 37
M  V30 END BOND
M  V30 BEGIN COLLECTION
M  V30 MDLV30/STEABS ATOMS=(1 4)
M  V30 END COLLECTION
M  V30 END CTAB
M  END
>  <Molecule Name>
Compound 312

>  <Molecule Name 2>
Compound 312

>  <Compound ID>
99

>  <Name>
BI2536

>  <Uniprot>
O60885

>  <Target>
BRD4

>  <Smiles>
CC[C@@H]1C(=O)N(C)C2=CN=C(NC3=CC=C(C(=O)NC4CCN(C)CC4)C=C3OC)N=C2N1C1CCCC1

>  <Kd (nM)>


>  <Assay (Kd)>


>  <Ki (nM)>
56

>  <Assay (Ki)>
Ki was determined in a proprietary competition assay

>  <IC50 (nM)>


>  <Assay (IC50)>


>  <EC50 (nM)>


>  <Assay (EC50)>


>  <Article DOI>
10.1021/acsmedchemlett.5b00084

>  <Molecular Weight>
521.666

>  <Exact Mass>
521.3114381

>  <XLogP3>
3.74

>  <Heavy Atom Count>
38

>  <Ring Count>
5

>  <Hydrogen Bond Acceptor Count>
8

>  <Hydrogen Bond Donor Count>
2

>  <Rotatable Bond Count>
7

>  <Topological Polar Surface Area>
102.93

>  <Molecular Formula>
C28H39N7O3

>  <InChI>
InChI=1S/C28H39N7O3/c1-5-22-27(37)34(3)23-17-29-28(32-25(23)35(22)20-8-6-7-9-20)31-21-11-10-18(16-24(21)38-4)26(36)30-19-12-14-33(2)15-13-19/h10-11,16-17,19-20,22H,5-9,12-15H2,1-4H3,(H,30,36)(H,29,31,32)/t22-/m1/s1

>  <InChI Key>
XQVVPGYIWAGRNI-JOCHJYFZSA-N

>  <BindingDB>
25121

>  <PubChem>
11364421

>  <ChEMBL>
CHEMBL513909

$$$$
99
Actelion Java MolfileCreator 2.0

  0  0  0  0  0  0              0 V3000
M  V30 BEGIN CTAB
M  V30 COUNTS 38 42 0 0 0
M  V30 BEGIN ATOM
M  V30 1 O 14.2894 -2.9999 0.0 0
M  V30 2 C 12.9903 -2.2499 0.0 0
M  V30 3 N 12.9903 -0.7499 0.0 0
M  V30 4 C 11.6913 -2.9999 0.0 0 CFG=2
M  V30 5 C 11.6913 0.0 0.0 0
M  V30 6 C 14.2894 0.0 0.0 0
M  V30 7 N 10.3923 -2.2499 0.0 0
M  V30 8 C 11.6913 -4.4999 0.0 0
M  V30 9 C 10.3923 -0.7499 0.0 0
M  V30 10 C 11.6913 1.5 0.0 0
M  V30 11 C 9.0932 -2.9999 0.0 0
M  V30 12 C 12.9903 -5.2499 0.0 0
M  V30 13 N 9.0932 0.0 0.0 0
M  V30 14 N 10.3923 2.25 0.0 0
M  V30 15 C 7.7229 -2.3898 0.0 0
M  V30 16 C 8.9364 -4.4917 0.0 0
M  V30 17 C 9.0932 1.5 0.0 0
M  V30 18 C 6.7192 -3.5046 0.0 0
M  V30 19 C 7.4692 -4.8036 0.0 0
M  V30 20 N 7.7942 2.25 0.0 0
M  V30 21 C 6.4951 1.5 0.0 0
M  V30 22 C 5.1961 2.25 0.0 0
M  V30 23 C 6.4951 0.0 0.0 0
M  V30 24 O 5.1961 3.75 0.0 0
M  V30 25 C 3.8971 1.5 0.0 0
M  V30 26 C 5.1961 -0.7499 0.0 0
M  V30 27 C 3.8971 4.5 0.0 0
M  V30 28 C 3.8971 0.0 0.0 0
M  V30 29 C 2.598 -0.75 0.0 0
M  V30 30 O 2.598 -2.25 0.0 0
M  V30 31 N 1.299 0.0 0.0 0
M  V30 32 C 0.0 -0.75 0.0 0
M  V30 33 C -1.299 0.0 0.0 0
M  V30 34 C 0.0 -2.25 0.0 0
M  V30 35 C -2.598 -0.7499 0.0 0
M  V30 36 C -1.299 -2.9999 0.0 0
M  V30 37 N -2.598 -2.2499 0.0 0
M  V30 38 C -3.8971 -2.9999 0.0 0
M  V30 END ATOM
M  V30 BEGIN BOND
M  V30 1 2 1 2
M  V30 2 1 2 3
M  V30 3 1 4 2
M  V30 4 1 3 5
M  V30 5 1 3 6
M  V30 6 1 4 7
M  V30 7 1 4 8 CFG=1
M  V30 8 2 5 9
M  V30 9 1 5 10
M  V30 10 1 7 11
M  V30 11 1 8 12
M  V30 12 1 9 13
M  V30 13 2 10 14
M  V30 14 1 11 15
M  V30 15 1 11 16
M  V30 16 2 13 17
M  V30 17 1 15 18
M  V30 18 1 16 19
M  V30 19 1 17 20
M  V30 20 1 20 21
M  V30 21 2 21 22
M  V30 22 1 21 23
M  V30 23 1 22 24
M  V30 24 1 22 25
M  V30 25 2 23 26
M  V30 26 1 24 27
M  V30 27 2 25 28
M  V30 28 1 28 29
M  V30 29 2 29 30
M  V30 30 1 29 31
M  V30 31 1 31 32
M  V30 32 1 32 33
M  V30 33 1 32 34
M  V30 34 1 33 35
M  V30 35 1 34 36
M  V30 36 1 35 37
M  V30 37 1 37 38
M  V30 38 1 7 9
M  V30 39 1 14 17
M  V30 40 1 18 19
M  V30 41 1 26 28
M  V30 42 1 36 37
M  V30 END BOND
M  V30 BEGIN COLLECTION
M  V30 MDLV30/STEABS ATOMS=(1 4)
M  V30 END COLLECTION
M  V30 END CTAB
M  END
>  <Molecule Name>
Compound 313

>  <Molecule Name 2>
Compound 313

>  <Compound ID>
99

>  <Name>
BI2536

>  <Uniprot>
P53350

>  <Target>
PLK1

>  <Smiles>
CC[C@@H]1C(=O)N(C)C2=CN=C(NC3=CC=C(C(=O)NC4CCN(C)CC4)C=C3OC)N=C2N1C1CCCC1

>  <Kd (nM)>


>  <Assay (Kd)>


>  <Ki (nM)>
0.22

>  <Assay (Ki)>
Ki was determined in a proprietary competition assay

>  <IC50 (nM)>


>  <Assay (IC50)>


>  <EC50 (nM)>


>  <Assay (EC50)>


>  <Article DOI>
10.1021/acsmedchemlett.5b00084

>  <Molecular Weight>
521.666

>  <Exact Mass>
521.3114381

>  <XLogP3>
3.74

>  <Heavy Atom Count>
38

>  <Ring Count>
5

>  <Hydrogen Bond Acceptor Count>
8

>  <Hydrogen Bond Donor Count>
2

>  <Rotatable Bond Count>
7

>  <Topological Polar Surface Area>
102.93

>  <Molecular Formula>
C28H39N7O3

>  <InChI>
InChI=1S/C28H39N7O3/c1-5-22-27(37)34(3)23-17-29-28(32-25(23)35(22)20-8-6-7-9-20)31-21-11-10-18(16-24(21)38-4)26(36)30-19-12-14-33(2)15-13-19/h10-11,16-17,19-20,22H,5-9,12-15H2,1-4H3,(H,30,36)(H,29,31,32)/t22-/m1/s1

>  <InChI Key>
XQVVPGYIWAGRNI-JOCHJYFZSA-N

>  <BindingDB>
25121

>  <PubChem>
11364421

>  <ChEMBL>
CHEMBL513909

$$$$
100
Actelion Java MolfileCreator 2.0

  0  0  0  0  0  0              0 V3000
M  V30 BEGIN CTAB
M  V30 COUNTS 37 41 0 0 0
M  V30 BEGIN ATOM
M  V30 1 Cl 2.598 2.25 0.0 0
M  V30 2 C 3.8971 1.5 0.0 0
M  V30 3 C 3.8971 0.0 0.0 0
M  V30 4 C 5.1961 2.25 0.0 0
M  V30 5 S 2.598 -0.75 0.0 0
M  V30 6 C 5.1961 -0.75 0.0 0
M  V30 7 C 6.4951 1.5 0.0 0
M  V30 8 O 1.848 -2.049 0.0 0
M  V30 9 O 3.348 -2.049 0.0 0
M  V30 10 N 1.299 0.0 0.0 0
M  V30 11 C 6.4951 0.0 0.0 0
M  V30 12 C 0.0 -0.75 0.0 0
M  V30 13 O 7.7942 -0.75 0.0 0
M  V30 14 C -1.299 0.0 0.0 0
M  V30 15 C 0.0 -2.25 0.0 0
M  V30 16 C 9.0932 0.0 0.0 0
M  V30 17 C -2.598 -0.75 0.0 0
M  V30 18 C -1.299 -3.0 0.0 0
M  V30 19 C -2.598 -2.25 0.0 0
M  V30 20 C -3.8971 -3.0 0.0 0
M  V30 21 N -5.1961 -2.25 0.0 0
M  V30 22 N -3.8971 -4.5 0.0 0
M  V30 23 C -6.4951 -3.0 0.0 0
M  V30 24 C -5.1961 -5.25 0.0 0
M  V30 25 O -7.7942 -2.25 0.0 0
M  V30 26 C -6.4951 -4.5 0.0 0
M  V30 27 N -5.508 -6.7172 0.0 0
M  V30 28 C -7.7942 -0.75 0.0 0
M  V30 29 C -7.6099 -5.5037 0.0 0
M  V30 30 N -6.9998 -6.874 0.0 0
M  V30 31 C -9.0932 0.0 0.0 0 CFG=2
M  V30 32 C -9.0771 -5.1918 0.0 0
M  V30 33 O -9.0932 1.5 0.0 0
M  V30 34 C -10.3923 -0.75 0.0 0
M  V30 35 C -10.3923 2.25 0.0 0
M  V30 36 N -11.6913 0.0 0.0 0
M  V30 37 C -11.6913 1.5 0.0 0
M  V30 END ATOM
M  V30 BEGIN BOND
M  V30 1 1 1 2
M  V30 2 2 2 3
M  V30 3 1 2 4
M  V30 4 1 3 5
M  V30 5 1 3 6
M  V30 6 2 4 7
M  V30 7 2 5 8
M  V30 8 2 5 9
M  V30 9 1 5 10
M  V30 10 2 6 11
M  V30 11 1 10 12
M  V30 12 1 11 13
M  V30 13 2 12 14
M  V30 14 1 12 15
M  V30 15 1 13 16
M  V30 16 1 14 17
M  V30 17 2 15 18
M  V30 18 2 17 19
M  V30 19 1 19 20
M  V30 20 2 20 21
M  V30 21 1 20 22
M  V30 22 1 21 23
M  V30 23 2 22 24
M  V30 24 1 23 25
M  V30 25 2 23 26
M  V30 26 1 24 27
M  V30 27 1 25 28
M  V30 28 1 26 29
M  V30 29 1 27 30
M  V30 30 1 31 28 CFG=1
M  V30 31 1 29 32
M  V30 32 1 31 33
M  V30 33 1 31 34
M  V30 34 1 33 35
M  V30 35 1 34 36
M  V30 36 1 35 37
M  V30 37 1 7 11
M  V30 38 1 18 19
M  V30 39 1 24 26
M  V30 40 2 29 30
M  V30 41 1 36 37
M  V30 END BOND
M  V30 BEGIN COLLECTION
M  V30 MDLV30/STEABS ATOMS=(1 31)
M  V30 END COLLECTION
M  V30 END CTAB
M  END
>  <Molecule Name>
Compound 314

>  <Molecule Name 2>
Compound 314

>  <Compound ID>
100

>  <Name>
290-R

>  <Uniprot>
Q96BR1

>  <Target>
SGK3

>  <Smiles>
COC1=CC=C(Cl)C(S(=O)(=O)NC2=CC=C(C3=NC(OC[C@H]4CNCCO4)=C4C(C)=N[NH]C4=N3)C=C2)=C1

>  <Kd (nM)>


>  <Assay (Kd)>


>  <Ki (nM)>


>  <Assay (Ki)>


>  <IC50 (nM)>
35

>  <Assay (IC50)>
Inhibition of SGK3

>  <EC50 (nM)>


>  <Assay (EC50)>


>  <Article DOI>
10.1021/acschembio.9b00505

>  <Molecular Weight>
545.021

>  <Exact Mass>
544.1295666

>  <XLogP3>
2.92

>  <Heavy Atom Count>
37

>  <Ring Count>
5

>  <Hydrogen Bond Acceptor Count>
9

>  <Hydrogen Bond Donor Count>
3

>  <Rotatable Bond Count>
8

>  <Topological Polar Surface Area>
140.35

>  <Molecular Formula>
C24H25ClN6O5S

>  <InChI>
InChI=1S/C24H25ClN6O5S/c1-14-21-23(30-29-14)27-22(28-24(21)36-13-18-12-26-9-10-35-18)15-3-5-16(6-4-15)31-37(32,33)20-11-17(34-2)7-8-19(20)25/h3-8,11,18,26,31H,9-10,12-13H2,1-2H3,(H,27,28,29,30)/t18-/m1/s1

>  <InChI Key>
JOEDMMFGXYMXAW-GOSISDBHSA-N

>  <BindingDB>


>  <PubChem>


>  <ChEMBL>


$$$$
101
Actelion Java MolfileCreator 2.0

  0  0  0  0  0  0              0 V3000
M  V30 BEGIN CTAB
M  V30 COUNTS 35 39 0 0 0
M  V30 BEGIN ATOM
M  V30 1 S 2.598 -0.75 0.0 0
M  V30 2 O 1.848 -2.049 0.0 0
M  V30 3 O 3.348 -2.049 0.0 0
M  V30 4 N 1.299 0.0 0.0 0
M  V30 5 C 3.8971 0.0 0.0 0
M  V30 6 C 0.0 -0.75 0.0 0
M  V30 7 C 5.1961 -0.75 0.0 0
M  V30 8 C 3.8971 1.5 0.0 0
M  V30 9 C -1.299 0.0 0.0 0
M  V30 10 C 0.0 -2.25 0.0 0
M  V30 11 F 5.1961 -2.25 0.0 0
M  V30 12 C 6.4951 0.0 0.0 0
M  V30 13 C 5.1961 2.25 0.0 0
M  V30 14 C -2.598 -0.75 0.0 0
M  V30 15 C -1.299 -3.0 0.0 0
M  V30 16 C 6.4951 1.5 0.0 0
M  V30 17 C 5.1961 3.75 0.0 0
M  V30 18 C -2.598 -2.25 0.0 0
M  V30 19 C -3.8971 -3.0 0.0 0
M  V30 20 N -5.1961 -2.25 0.0 0
M  V30 21 N -3.8971 -4.5 0.0 0
M  V30 22 C -6.4951 -3.0 0.0 0
M  V30 23 C -5.1961 -5.25 0.0 0
M  V30 24 O -7.7942 -2.25 0.0 0
M  V30 25 C -6.4951 -4.5 0.0 0
M  V30 26 N -5.508 -6.7172 0.0 0
M  V30 27 C -7.7942 -0.75 0.0 0
M  V30 28 C -7.6099 -5.5037 0.0 0
M  V30 29 N -6.9998 -6.874 0.0 0
M  V30 30 C -9.0932 0.0 0.0 0 CFG=2
M  V30 31 O -9.0932 1.5 0.0 0
M  V30 32 C -10.3923 -0.75 0.0 0
M  V30 33 C -10.3923 2.25 0.0 0
M  V30 34 N -11.6913 0.0 0.0 0
M  V30 35 C -11.6913 1.5 0.0 0
M  V30 END ATOM
M  V30 BEGIN BOND
M  V30 1 2 1 2
M  V30 2 2 1 3
M  V30 3 1 1 4
M  V30 4 1 1 5
M  V30 5 1 4 6
M  V30 6 2 5 7
M  V30 7 1 5 8
M  V30 8 2 6 9
M  V30 9 1 6 10
M  V30 10 1 7 11
M  V30 11 1 7 12
M  V30 12 2 8 13
M  V30 13 1 9 14
M  V30 14 2 10 15
M  V30 15 2 12 16
M  V30 16 1 13 17
M  V30 17 2 14 18
M  V30 18 1 18 19
M  V30 19 2 19 20
M  V30 20 1 19 21
M  V30 21 1 20 22
M  V30 22 2 21 23
M  V30 23 1 22 24
M  V30 24 2 22 25
M  V30 25 1 23 26
M  V30 26 1 24 27
M  V30 27 1 25 28
M  V30 28 1 26 29
M  V30 29 1 30 27 CFG=1
M  V30 30 1 30 31
M  V30 31 1 30 32
M  V30 32 1 31 33
M  V30 33 1 32 34
M  V30 34 1 33 35
M  V30 35 1 13 16
M  V30 36 1 15 18
M  V30 37 1 23 25
M  V30 38 2 28 29
M  V30 39 1 34 35
M  V30 END BOND
M  V30 BEGIN COLLECTION
M  V30 MDLV30/STEABS ATOMS=(1 30)
M  V30 END COLLECTION
M  V30 END CTAB
M  END
>  <Molecule Name>
Compound 315

>  <Molecule Name 2>
Compound 315

>  <Compound ID>
101

>  <Name>
308-R

>  <Uniprot>
Q96BR1

>  <Target>
SGK3

>  <Smiles>
CC1=CC=C(F)C(S(=O)(=O)NC2=CC=C(C3=NC(OC[C@H]4CNCCO4)=C4C=N[NH]C4=N3)C=C2)=C1

>  <Kd (nM)>


>  <Assay (Kd)>


>  <Ki (nM)>


>  <Assay (Ki)>


>  <IC50 (nM)>
5

>  <Assay (IC50)>
Inhibition of SGK3

>  <EC50 (nM)>


>  <Assay (EC50)>


>  <Article DOI>
10.1021/acschembio.9b00505

>  <Molecular Weight>
498.54

>  <Exact Mass>
498.1485524

>  <XLogP3>
2.38

>  <Heavy Atom Count>
35

>  <Ring Count>
5

>  <Hydrogen Bond Acceptor Count>
8

>  <Hydrogen Bond Donor Count>
3

>  <Rotatable Bond Count>
7

>  <Topological Polar Surface Area>
131.12

>  <Molecular Formula>
C23H23FN6O4S

>  <InChI>
InChI=1S/C23H23FN6O4S/c1-14-2-7-19(24)20(10-14)35(31,32)30-16-5-3-15(4-6-16)21-27-22-18(12-26-29-22)23(28-21)34-13-17-11-25-8-9-33-17/h2-7,10,12,17,25,30H,8-9,11,13H2,1H3,(H,26,27,28,29)/t17-/m1/s1

>  <InChI Key>
UAVUYSNDFXWICV-QGZVFWFLSA-N

>  <BindingDB>


>  <PubChem>
146014827

>  <ChEMBL>
CHEMBL3355033

$$$$
102
Actelion Java MolfileCreator 2.0

  0  0  0  0  0  0              0 V3000
M  V30 BEGIN CTAB
M  V30 COUNTS 34 38 0 0 0
M  V30 BEGIN ATOM
M  V30 1 F 18.1865 2.25 0.0 0
M  V30 2 C 18.1865 3.75 0.0 0
M  V30 3 C 16.8874 4.5 0.0 0
M  V30 4 C 19.4855 4.5 0.0 0
M  V30 5 C 16.8874 5.9999 0.0 0
M  V30 6 C 15.5884 3.7499 0.0 0
M  V30 7 C 19.4855 6.0 0.0 0
M  V30 8 C 18.1865 6.75 0.0 0
M  V30 9 C 15.7727 7.0036 0.0 0
M  V30 10 N 14.2894 4.5 0.0 0
M  V30 11 O 17.8746 8.2172 0.0 0
M  V30 12 C 16.3828 8.374 0.0 0
M  V30 13 C 12.9903 3.7499 0.0 0
M  V30 14 N 11.6913 4.5 0.0 0
M  V30 15 N 12.9903 2.2499 0.0 0
M  V30 16 C 10.3923 3.7499 0.0 0
M  V30 17 C 11.6913 1.4999 0.0 0
M  V30 18 C 14.105 1.2463 0.0 0
M  V30 19 C 10.3923 2.25 0.0 0
M  V30 20 N 12.0032 0.0327 0.0 0
M  V30 21 N 13.4949 -0.124 0.0 0
M  V30 22 C 9.0932 1.4999 0.0 0
M  V30 23 C 7.7942 2.25 0.0 0
M  V30 24 C 9.0932 0.0 0.0 0
M  V30 25 N 6.4951 1.5 0.0 0
M  V30 26 C 7.7942 3.7499 0.0 0
M  V30 27 C 7.7942 -0.75 0.0 0
M  V30 28 C 6.4951 0.0 0.0 0
M  V30 29 C 5.1961 -0.75 0.0 0
M  V30 30 C 3.8971 0.0 0.0 0
M  V30 31 C 2.598 -0.75 0.0 0
M  V30 32 O 2.598 -2.25 0.0 0
M  V30 33 N 1.299 0.0 0.0 0
M  V30 34 C 0.0 -0.75 0.0 0
M  V30 END ATOM
M  V30 BEGIN BOND
M  V30 1 1 1 2
M  V30 2 2 2 3
M  V30 3 1 2 4
M  V30 4 1 3 5
M  V30 5 1 3 6
M  V30 6 2 4 7
M  V30 7 2 5 8
M  V30 8 1 5 9
M  V30 9 1 6 10
M  V30 10 1 8 11
M  V30 11 1 9 12
M  V30 12 1 10 13
M  V30 13 2 13 14
M  V30 14 1 13 15
M  V30 15 1 14 16
M  V30 16 1 15 17
M  V30 17 1 15 18
M  V30 18 2 16 19
M  V30 19 2 17 20
M  V30 20 2 18 21
M  V30 21 1 19 22
M  V30 22 2 22 23
M  V30 23 1 22 24
M  V30 24 1 23 25
M  V30 25 1 23 26
M  V30 26 2 24 27
M  V30 27 2 25 28
M  V30 28 1 28 29
M  V30 29 1 29 30
M  V30 30 1 30 31
M  V30 31 2 31 32
M  V30 32 1 31 33
M  V30 33 1 33 34
M  V30 34 1 7 8
M  V30 35 1 11 12
M  V30 36 1 17 19
M  V30 37 1 20 21
M  V30 38 1 27 28
M  V30 END BOND
M  V30 END CTAB
M  END
>  <Molecule Name>
Compound 316

>  <Molecule Name 2>
Compound 316

>  <Compound ID>
102

>  <Name>


>  <Uniprot>
O75530

>  <Target>
EED

>  <Smiles>
CNC(=O)CCC1=CC=C(C2=CN=C(NCC3=C(F)C=CC4=C3CCO4)N3C=NN=C23)C(C)=N1

>  <Kd (nM)>
0.2

>  <Assay (Kd)>
SPR

>  <Ki (nM)>


>  <Assay (Ki)>


>  <IC50 (nM)>


>  <Assay (IC50)>


>  <EC50 (nM)>


>  <Assay (EC50)>


>  <Article DOI>
10.1016/j.chembiol.2019.11.004

>  <Molecular Weight>
461.501

>  <Exact Mass>
461.1975512

>  <XLogP3>
2.94

>  <Heavy Atom Count>
34

>  <Ring Count>
5

>  <Hydrogen Bond Acceptor Count>
8

>  <Hydrogen Bond Donor Count>
2

>  <Rotatable Bond Count>
7

>  <Topological Polar Surface Area>
106.33

>  <Molecular Formula>
C24H24FN7O2

>  <InChI>
InChI=1S/C24H24FN7O2/c1-14-16(5-3-15(30-14)4-8-22(33)26-2)19-12-28-24(32-13-29-31-23(19)32)27-11-18-17-9-10-34-21(17)7-6-20(18)25/h3,5-7,12-13H,4,8-11H2,1-2H3,(H,26,33)(H,27,28)

>  <InChI Key>
KHAQTENVDNMYIQ-UHFFFAOYSA-N

>  <BindingDB>


>  <PubChem>


>  <ChEMBL>


$$$$
103
Actelion Java MolfileCreator 2.0

  0  0  0  0  0  0              0 V3000
M  V30 BEGIN CTAB
M  V30 COUNTS 26 29 0 0 0
M  V30 BEGIN ATOM
M  V30 1 S 7.7942 3.0 0.0 0
M  V30 2 O 8.2942 2.1339 0.0 0
M  V30 3 O 7.2942 3.866 0.0 0
M  V30 4 C 6.9282 2.5 0.0 0
M  V30 5 C 8.6602 3.5 0.0 0
M  V30 6 C 6.0621 3.0 0.0 0
M  V30 7 C 6.9282 1.5 0.0 0
M  V30 8 C 5.1961 2.5 0.0 0
M  V30 9 C 6.0621 1.0 0.0 0
M  V30 10 C 5.1961 1.5 0.0 0
M  V30 11 C 4.3301 1.0 0.0 0
M  V30 12 C 3.4641 1.5 0.0 0
M  V30 13 C 4.3301 0.0 0.0 0
M  V30 14 N 3.2561 2.4781 0.0 0
M  V30 15 N 2.598 1.0 0.0 0
M  V30 16 N 3.4641 -0.4999 0.0 0
M  V30 17 N 2.2616 2.5826 0.0 0
M  V30 18 C 2.598 0.0 0.0 0
M  V30 19 C 1.8549 1.6691 0.0 0
M  V30 20 N 1.732 -0.5 0.0 0
M  V30 21 C 0.866 0.0 0.0 0
M  V30 22 C 0.0 -0.5 0.0 0
M  V30 23 O -0.9135 -0.0932 0.0 0
M  V30 24 C -0.1045 -1.4945 0.0 0
M  V30 25 C -1.5826 -0.8364 0.0 0
M  V30 26 C -1.0826 -1.7024 0.0 0
M  V30 END ATOM
M  V30 BEGIN BOND
M  V30 1 2 1 2
M  V30 2 2 1 3
M  V30 3 1 1 4
M  V30 4 1 1 5
M  V30 5 2 4 6
M  V30 6 1 4 7
M  V30 7 1 6 8
M  V30 8 2 7 9
M  V30 9 2 8 10
M  V30 10 1 10 11
M  V30 11 1 11 12
M  V30 12 2 11 13
M  V30 13 2 12 14
M  V30 14 1 12 15
M  V30 15 1 13 16
M  V30 16 1 14 17
M  V30 17 1 15 18
M  V30 18 1 15 19
M  V30 19 1 18 20
M  V30 20 1 20 21
M  V30 21 1 21 22
M  V30 22 1 22 23
M  V30 23 2 22 24
M  V30 24 1 23 25
M  V30 25 1 24 26
M  V30 26 1 9 10
M  V30 27 2 16 18
M  V30 28 2 17 19
M  V30 29 2 25 26
M  V30 END BOND
M  V30 END CTAB
M  END
>  <Molecule Name>
Compound 317

>  <Molecule Name 2>
Compound 317

>  <Compound ID>
103

>  <Name>
EED226

>  <Uniprot>
O75530

>  <Target>
EED

>  <Smiles>
CS(=O)(=O)C1=CC=C(C2=CN=C(NCC3=CC=CO3)N3C=NN=C23)C=C1

>  <Kd (nM)>


>  <Assay (Kd)>


>  <Ki (nM)>


>  <Assay (Ki)>


>  <IC50 (nM)>
22

>  <Assay (IC50)>
IC50 of EED was tested by AlphaScreen competition binding assay

>  <EC50 (nM)>


>  <Assay (EC50)>


>  <Article DOI>
10.1021/acs.jmedchem.6b01576

>  <Molecular Weight>
369.406

>  <Exact Mass>
369.0895603

>  <XLogP3>
2.3

>  <Heavy Atom Count>
26

>  <Ring Count>
4

>  <Hydrogen Bond Acceptor Count>
8

>  <Hydrogen Bond Donor Count>
1

>  <Rotatable Bond Count>
5

>  <Topological Polar Surface Area>
102.39

>  <Molecular Formula>
C17H15N5O3S

>  <InChI>
InChI=1S/C17H15N5O3S/c1-26(23,24)14-6-4-12(5-7-14)15-10-19-17(22-11-20-21-16(15)22)18-9-13-3-2-8-25-13/h2-8,10-11H,9H2,1H3,(H,18,19)

>  <InChI Key>
DYIRSNMPIZZNBK-UHFFFAOYSA-N

>  <BindingDB>
225230

>  <PubChem>
123132228

>  <ChEMBL>
CHEMBL4065484

$$$$
104
Actelion Java MolfileCreator 2.0

  0  0  0  0  0  0              0 V3000
M  V30 BEGIN CTAB
M  V30 COUNTS 32 35 0 0 0
M  V30 BEGIN ATOM
M  V30 1 Cl 3.4641 -4.5 0.0 0
M  V30 2 C 3.4641 -3.5 0.0 0
M  V30 3 C 4.3301 -3.0 0.0 0
M  V30 4 C 2.598 -3.0 0.0 0
M  V30 5 C 4.3301 -1.9999 0.0 0
M  V30 6 C 2.598 -2.0 0.0 0
M  V30 7 C 3.4641 -1.5 0.0 0
M  V30 8 C 3.4641 -0.5 0.0 0 CFG=2
M  V30 9 C 4.3301 0.0 0.0 0
M  V30 10 C 2.598 0.0 0.0 0
M  V30 11 O 5.1961 -0.5 0.0 0
M  V30 12 N 4.3301 1.0 0.0 0
M  V30 13 N 1.732 -0.5 0.0 0
M  V30 14 C 5.1961 1.4999 0.0 0
M  V30 15 C 3.4641 1.5 0.0 0
M  V30 16 C 0.866 0.0 0.0 0
M  V30 17 C 5.1961 2.4999 0.0 0
M  V30 18 C 3.4641 2.5 0.0 0
M  V30 19 C 0.866 1.0 0.0 0
M  V30 20 C 0.0 -0.5 0.0 0
M  V30 21 N 4.3301 2.9999 0.0 0
M  V30 22 C 4.3301 4.0 0.0 0
M  V30 23 N 5.1961 4.4999 0.0 0
M  V30 24 C 3.4641 4.5 0.0 0
M  V30 25 C 5.1961 5.5 0.0 0
M  V30 26 C 3.4641 5.5 0.0 0
M  V30 27 C 2.513 4.1909 0.0 0 CFG=1
M  V30 28 N 4.3301 6.0 0.0 0
M  V30 29 C 2.513 5.809 0.0 0 CFG=1
M  V30 30 C 1.9252 5.0 0.0 0
M  V30 31 C 2.204 3.2399 0.0 0
M  V30 32 O 2.204 6.76 0.0 0
M  V30 END ATOM
M  V30 BEGIN BOND
M  V30 1 1 1 2
M  V30 2 2 2 3
M  V30 3 1 2 4
M  V30 4 1 3 5
M  V30 5 2 4 6
M  V30 6 2 5 7
M  V30 7 1 8 7
M  V30 8 1 8 9
M  V30 9 1 8 10 CFG=1
M  V30 10 2 9 11
M  V30 11 1 9 12
M  V30 12 1 10 13
M  V30 13 1 12 14
M  V30 14 1 12 15
M  V30 15 1 13 16
M  V30 16 1 14 17
M  V30 17 1 15 18
M  V30 18 1 16 19
M  V30 19 1 16 20
M  V30 20 1 17 21
M  V30 21 1 21 22
M  V30 22 2 22 23
M  V30 23 1 22 24
M  V30 24 1 23 25
M  V30 25 2 24 26
M  V30 26 1 27 24
M  V30 27 2 25 28
M  V30 28 1 29 26
M  V30 29 1 27 30
M  V30 30 1 27 31 CFG=3
M  V30 31 1 29 32 CFG=1
M  V30 32 1 6 7
M  V30 33 1 18 21
M  V30 34 1 26 28
M  V30 35 1 29 30
M  V30 END BOND
M  V30 BEGIN COLLECTION
M  V30 MDLV30/STEABS ATOMS=(3 8 27 29)
M  V30 END COLLECTION
M  V30 END CTAB
M  END
>  <Molecule Name>
Compound 318

>  <Molecule Name 2>
Compound 318

>  <Compound ID>
104

>  <Name>
GDC-0068

>  <Uniprot>
P31749

>  <Target>
AKT1

>  <Smiles>
CC(C)NC[C@@H](C(=O)N1CCN(C2=NC=NC3=C2[C@H](C)C[C@H]3O)CC1)C1=CC=C(Cl)C=C1

>  <Kd (nM)>


>  <Assay (Kd)>


>  <Ki (nM)>


>  <Assay (Ki)>


>  <IC50 (nM)>
5

>  <Assay (IC50)>
IC50 of AKT1 was tested by fluorescence polarization assay

>  <EC50 (nM)>


>  <Assay (EC50)>


>  <Article DOI>
10.1021/jm301024w

>  <Molecular Weight>
458.006

>  <Exact Mass>
457.2244529

>  <XLogP3>
2.46

>  <Heavy Atom Count>
32

>  <Ring Count>
4

>  <Hydrogen Bond Acceptor Count>
6

>  <Hydrogen Bond Donor Count>
2

>  <Rotatable Bond Count>
6

>  <Topological Polar Surface Area>
81.59

>  <Molecular Formula>
C24H32ClN5O2

>  <InChI>
InChI=1S/C24H32ClN5O2/c1-15(2)26-13-19(17-4-6-18(25)7-5-17)24(32)30-10-8-29(9-11-30)23-21-16(3)12-20(31)22(21)27-14-28-23/h4-7,14-16,19-20,26,31H,8-13H2,1-3H3/t16-,19-,20-/m1/s1

>  <InChI Key>
GRZXWCHAXNAUHY-NSISKUIASA-N

>  <BindingDB>
50398379

>  <PubChem>
24788740

>  <ChEMBL>
CHEMBL2177390

$$$$
104
Actelion Java MolfileCreator 2.0

  0  0  0  0  0  0              0 V3000
M  V30 BEGIN CTAB
M  V30 COUNTS 32 35 0 0 0
M  V30 BEGIN ATOM
M  V30 1 Cl 3.4641 -4.5 0.0 0
M  V30 2 C 3.4641 -3.5 0.0 0
M  V30 3 C 4.3301 -3.0 0.0 0
M  V30 4 C 2.598 -3.0 0.0 0
M  V30 5 C 4.3301 -1.9999 0.0 0
M  V30 6 C 2.598 -2.0 0.0 0
M  V30 7 C 3.4641 -1.5 0.0 0
M  V30 8 C 3.4641 -0.5 0.0 0 CFG=2
M  V30 9 C 4.3301 0.0 0.0 0
M  V30 10 C 2.598 0.0 0.0 0
M  V30 11 O 5.1961 -0.5 0.0 0
M  V30 12 N 4.3301 1.0 0.0 0
M  V30 13 N 1.732 -0.5 0.0 0
M  V30 14 C 5.1961 1.4999 0.0 0
M  V30 15 C 3.4641 1.5 0.0 0
M  V30 16 C 0.866 0.0 0.0 0
M  V30 17 C 5.1961 2.4999 0.0 0
M  V30 18 C 3.4641 2.5 0.0 0
M  V30 19 C 0.866 1.0 0.0 0
M  V30 20 C 0.0 -0.5 0.0 0
M  V30 21 N 4.3301 2.9999 0.0 0
M  V30 22 C 4.3301 4.0 0.0 0
M  V30 23 N 5.1961 4.4999 0.0 0
M  V30 24 C 3.4641 4.5 0.0 0
M  V30 25 C 5.1961 5.5 0.0 0
M  V30 26 C 3.4641 5.5 0.0 0
M  V30 27 C 2.513 4.1909 0.0 0 CFG=1
M  V30 28 N 4.3301 6.0 0.0 0
M  V30 29 C 2.513 5.809 0.0 0 CFG=1
M  V30 30 C 1.9252 5.0 0.0 0
M  V30 31 C 2.204 3.2399 0.0 0
M  V30 32 O 2.204 6.76 0.0 0
M  V30 END ATOM
M  V30 BEGIN BOND
M  V30 1 1 1 2
M  V30 2 2 2 3
M  V30 3 1 2 4
M  V30 4 1 3 5
M  V30 5 2 4 6
M  V30 6 2 5 7
M  V30 7 1 8 7
M  V30 8 1 8 9
M  V30 9 1 8 10 CFG=1
M  V30 10 2 9 11
M  V30 11 1 9 12
M  V30 12 1 10 13
M  V30 13 1 12 14
M  V30 14 1 12 15
M  V30 15 1 13 16
M  V30 16 1 14 17
M  V30 17 1 15 18
M  V30 18 1 16 19
M  V30 19 1 16 20
M  V30 20 1 17 21
M  V30 21 1 21 22
M  V30 22 2 22 23
M  V30 23 1 22 24
M  V30 24 1 23 25
M  V30 25 2 24 26
M  V30 26 1 27 24
M  V30 27 2 25 28
M  V30 28 1 29 26
M  V30 29 1 27 30
M  V30 30 1 27 31 CFG=3
M  V30 31 1 29 32 CFG=1
M  V30 32 1 6 7
M  V30 33 1 18 21
M  V30 34 1 26 28
M  V30 35 1 29 30
M  V30 END BOND
M  V30 BEGIN COLLECTION
M  V30 MDLV30/STEABS ATOMS=(3 8 27 29)
M  V30 END COLLECTION
M  V30 END CTAB
M  END
>  <Molecule Name>
Compound 319

>  <Molecule Name 2>
Compound 319

>  <Compound ID>
104

>  <Name>
GDC-0068

>  <Uniprot>
P31751

>  <Target>
AKT2

>  <Smiles>
CC(C)NC[C@@H](C(=O)N1CCN(C2=NC=NC3=C2[C@H](C)C[C@H]3O)CC1)C1=CC=C(Cl)C=C1

>  <Kd (nM)>


>  <Assay (Kd)>


>  <Ki (nM)>


>  <Assay (Ki)>


>  <IC50 (nM)>
18

>  <Assay (IC50)>
IC50 of AKT2 was tested by fluorescence polarization assay

>  <EC50 (nM)>


>  <Assay (EC50)>


>  <Article DOI>
10.1021/jm301024w

>  <Molecular Weight>
458.006

>  <Exact Mass>
457.2244529

>  <XLogP3>
2.46

>  <Heavy Atom Count>
32

>  <Ring Count>
4

>  <Hydrogen Bond Acceptor Count>
6

>  <Hydrogen Bond Donor Count>
2

>  <Rotatable Bond Count>
6

>  <Topological Polar Surface Area>
81.59

>  <Molecular Formula>
C24H32ClN5O2

>  <InChI>
InChI=1S/C24H32ClN5O2/c1-15(2)26-13-19(17-4-6-18(25)7-5-17)24(32)30-10-8-29(9-11-30)23-21-16(3)12-20(31)22(21)27-14-28-23/h4-7,14-16,19-20,26,31H,8-13H2,1-3H3/t16-,19-,20-/m1/s1

>  <InChI Key>
GRZXWCHAXNAUHY-NSISKUIASA-N

>  <BindingDB>
50398379

>  <PubChem>
24788740

>  <ChEMBL>
CHEMBL2177390

$$$$
104
Actelion Java MolfileCreator 2.0

  0  0  0  0  0  0              0 V3000
M  V30 BEGIN CTAB
M  V30 COUNTS 32 35 0 0 0
M  V30 BEGIN ATOM
M  V30 1 Cl 3.4641 -4.5 0.0 0
M  V30 2 C 3.4641 -3.5 0.0 0
M  V30 3 C 4.3301 -3.0 0.0 0
M  V30 4 C 2.598 -3.0 0.0 0
M  V30 5 C 4.3301 -1.9999 0.0 0
M  V30 6 C 2.598 -2.0 0.0 0
M  V30 7 C 3.4641 -1.5 0.0 0
M  V30 8 C 3.4641 -0.5 0.0 0 CFG=2
M  V30 9 C 4.3301 0.0 0.0 0
M  V30 10 C 2.598 0.0 0.0 0
M  V30 11 O 5.1961 -0.5 0.0 0
M  V30 12 N 4.3301 1.0 0.0 0
M  V30 13 N 1.732 -0.5 0.0 0
M  V30 14 C 5.1961 1.4999 0.0 0
M  V30 15 C 3.4641 1.5 0.0 0
M  V30 16 C 0.866 0.0 0.0 0
M  V30 17 C 5.1961 2.4999 0.0 0
M  V30 18 C 3.4641 2.5 0.0 0
M  V30 19 C 0.866 1.0 0.0 0
M  V30 20 C 0.0 -0.5 0.0 0
M  V30 21 N 4.3301 2.9999 0.0 0
M  V30 22 C 4.3301 4.0 0.0 0
M  V30 23 N 5.1961 4.4999 0.0 0
M  V30 24 C 3.4641 4.5 0.0 0
M  V30 25 C 5.1961 5.5 0.0 0
M  V30 26 C 3.4641 5.5 0.0 0
M  V30 27 C 2.513 4.1909 0.0 0 CFG=1
M  V30 28 N 4.3301 6.0 0.0 0
M  V30 29 C 2.513 5.809 0.0 0 CFG=1
M  V30 30 C 1.9252 5.0 0.0 0
M  V30 31 C 2.204 3.2399 0.0 0
M  V30 32 O 2.204 6.76 0.0 0
M  V30 END ATOM
M  V30 BEGIN BOND
M  V30 1 1 1 2
M  V30 2 2 2 3
M  V30 3 1 2 4
M  V30 4 1 3 5
M  V30 5 2 4 6
M  V30 6 2 5 7
M  V30 7 1 8 7
M  V30 8 1 8 9
M  V30 9 1 8 10 CFG=1
M  V30 10 2 9 11
M  V30 11 1 9 12
M  V30 12 1 10 13
M  V30 13 1 12 14
M  V30 14 1 12 15
M  V30 15 1 13 16
M  V30 16 1 14 17
M  V30 17 1 15 18
M  V30 18 1 16 19
M  V30 19 1 16 20
M  V30 20 1 17 21
M  V30 21 1 21 22
M  V30 22 2 22 23
M  V30 23 1 22 24
M  V30 24 1 23 25
M  V30 25 2 24 26
M  V30 26 1 27 24
M  V30 27 2 25 28
M  V30 28 1 29 26
M  V30 29 1 27 30
M  V30 30 1 27 31 CFG=3
M  V30 31 1 29 32 CFG=1
M  V30 32 1 6 7
M  V30 33 1 18 21
M  V30 34 1 26 28
M  V30 35 1 29 30
M  V30 END BOND
M  V30 BEGIN COLLECTION
M  V30 MDLV30/STEABS ATOMS=(3 8 27 29)
M  V30 END COLLECTION
M  V30 END CTAB
M  END
>  <Molecule Name>
Compound 320

>  <Molecule Name 2>
Compound 320

>  <Compound ID>
104

>  <Name>
GDC-0068

>  <Uniprot>
Q9Y243

>  <Target>
AKT3

>  <Smiles>
CC(C)NC[C@@H](C(=O)N1CCN(C2=NC=NC3=C2[C@H](C)C[C@H]3O)CC1)C1=CC=C(Cl)C=C1

>  <Kd (nM)>


>  <Assay (Kd)>


>  <Ki (nM)>


>  <Assay (Ki)>


>  <IC50 (nM)>
8

>  <Assay (IC50)>
IC50 of AKT3 was tested by fluorescence polarization assay

>  <EC50 (nM)>


>  <Assay (EC50)>


>  <Article DOI>
10.1021/jm301024w

>  <Molecular Weight>
458.006

>  <Exact Mass>
457.2244529

>  <XLogP3>
2.46

>  <Heavy Atom Count>
32

>  <Ring Count>
4

>  <Hydrogen Bond Acceptor Count>
6

>  <Hydrogen Bond Donor Count>
2

>  <Rotatable Bond Count>
6

>  <Topological Polar Surface Area>
81.59

>  <Molecular Formula>
C24H32ClN5O2

>  <InChI>
InChI=1S/C24H32ClN5O2/c1-15(2)26-13-19(17-4-6-18(25)7-5-17)24(32)30-10-8-29(9-11-30)23-21-16(3)12-20(31)22(21)27-14-28-23/h4-7,14-16,19-20,26,31H,8-13H2,1-3H3/t16-,19-,20-/m1/s1

>  <InChI Key>
GRZXWCHAXNAUHY-NSISKUIASA-N

>  <BindingDB>
50398379

>  <PubChem>
24788740

>  <ChEMBL>
CHEMBL2177390

$$$$
104
Actelion Java MolfileCreator 2.0

  0  0  0  0  0  0              0 V3000
M  V30 BEGIN CTAB
M  V30 COUNTS 32 35 0 0 0
M  V30 BEGIN ATOM
M  V30 1 Cl 3.4641 -4.5 0.0 0
M  V30 2 C 3.4641 -3.5 0.0 0
M  V30 3 C 4.3301 -3.0 0.0 0
M  V30 4 C 2.598 -3.0 0.0 0
M  V30 5 C 4.3301 -1.9999 0.0 0
M  V30 6 C 2.598 -2.0 0.0 0
M  V30 7 C 3.4641 -1.5 0.0 0
M  V30 8 C 3.4641 -0.5 0.0 0 CFG=2
M  V30 9 C 4.3301 0.0 0.0 0
M  V30 10 C 2.598 0.0 0.0 0
M  V30 11 O 5.1961 -0.5 0.0 0
M  V30 12 N 4.3301 1.0 0.0 0
M  V30 13 N 1.732 -0.5 0.0 0
M  V30 14 C 5.1961 1.4999 0.0 0
M  V30 15 C 3.4641 1.5 0.0 0
M  V30 16 C 0.866 0.0 0.0 0
M  V30 17 C 5.1961 2.4999 0.0 0
M  V30 18 C 3.4641 2.5 0.0 0
M  V30 19 C 0.866 1.0 0.0 0
M  V30 20 C 0.0 -0.5 0.0 0
M  V30 21 N 4.3301 2.9999 0.0 0
M  V30 22 C 4.3301 4.0 0.0 0
M  V30 23 N 5.1961 4.4999 0.0 0
M  V30 24 C 3.4641 4.5 0.0 0
M  V30 25 C 5.1961 5.5 0.0 0
M  V30 26 C 3.4641 5.5 0.0 0
M  V30 27 C 2.513 4.1909 0.0 0 CFG=1
M  V30 28 N 4.3301 6.0 0.0 0
M  V30 29 C 2.513 5.809 0.0 0 CFG=1
M  V30 30 C 1.9252 5.0 0.0 0
M  V30 31 C 2.204 3.2399 0.0 0
M  V30 32 O 2.204 6.76 0.0 0
M  V30 END ATOM
M  V30 BEGIN BOND
M  V30 1 1 1 2
M  V30 2 2 2 3
M  V30 3 1 2 4
M  V30 4 1 3 5
M  V30 5 2 4 6
M  V30 6 2 5 7
M  V30 7 1 8 7
M  V30 8 1 8 9
M  V30 9 1 8 10 CFG=1
M  V30 10 2 9 11
M  V30 11 1 9 12
M  V30 12 1 10 13
M  V30 13 1 12 14
M  V30 14 1 12 15
M  V30 15 1 13 16
M  V30 16 1 14 17
M  V30 17 1 15 18
M  V30 18 1 16 19
M  V30 19 1 16 20
M  V30 20 1 17 21
M  V30 21 1 21 22
M  V30 22 2 22 23
M  V30 23 1 22 24
M  V30 24 1 23 25
M  V30 25 2 24 26
M  V30 26 1 27 24
M  V30 27 2 25 28
M  V30 28 1 29 26
M  V30 29 1 27 30
M  V30 30 1 27 31 CFG=3
M  V30 31 1 29 32 CFG=1
M  V30 32 1 6 7
M  V30 33 1 18 21
M  V30 34 1 26 28
M  V30 35 1 29 30
M  V30 END BOND
M  V30 BEGIN COLLECTION
M  V30 MDLV30/STEABS ATOMS=(3 8 27 29)
M  V30 END COLLECTION
M  V30 END CTAB
M  END
>  <Molecule Name>
Compound 321

>  <Molecule Name 2>
Compound 321

>  <Compound ID>
104

>  <Name>
GDC-0068

>  <Uniprot>
O14874

>  <Target>
BCKDK

>  <Smiles>
CC(C)NC[C@@H](C(=O)N1CCN(C2=NC=NC3=C2[C@H](C)C[C@H]3O)CC1)C1=CC=C(Cl)C=C1

>  <Kd (nM)>


>  <Assay (Kd)>


>  <Ki (nM)>


>  <Assay (Ki)>


>  <IC50 (nM)>


>  <Assay (IC50)>


>  <EC50 (nM)>


>  <Assay (EC50)>


>  <Article DOI>
10.1016/j.cell.2020.10.038

>  <Molecular Weight>
458.006

>  <Exact Mass>
457.2244529

>  <XLogP3>
2.46

>  <Heavy Atom Count>
32

>  <Ring Count>
4

>  <Hydrogen Bond Acceptor Count>
6

>  <Hydrogen Bond Donor Count>
2

>  <Rotatable Bond Count>
6

>  <Topological Polar Surface Area>
81.59

>  <Molecular Formula>
C24H32ClN5O2

>  <InChI>
InChI=1S/C24H32ClN5O2/c1-15(2)26-13-19(17-4-6-18(25)7-5-17)24(32)30-10-8-29(9-11-30)23-21-16(3)12-20(31)22(21)27-14-28-23/h4-7,14-16,19-20,26,31H,8-13H2,1-3H3/t16-,19-,20-/m1/s1

>  <InChI Key>
GRZXWCHAXNAUHY-NSISKUIASA-N

>  <BindingDB>
50398379

>  <PubChem>
24788740

>  <ChEMBL>
CHEMBL2177390

$$$$
104
Actelion Java MolfileCreator 2.0

  0  0  0  0  0  0              0 V3000
M  V30 BEGIN CTAB
M  V30 COUNTS 32 35 0 0 0
M  V30 BEGIN ATOM
M  V30 1 Cl 3.4641 -4.5 0.0 0
M  V30 2 C 3.4641 -3.5 0.0 0
M  V30 3 C 4.3301 -3.0 0.0 0
M  V30 4 C 2.598 -3.0 0.0 0
M  V30 5 C 4.3301 -1.9999 0.0 0
M  V30 6 C 2.598 -2.0 0.0 0
M  V30 7 C 3.4641 -1.5 0.0 0
M  V30 8 C 3.4641 -0.5 0.0 0 CFG=2
M  V30 9 C 4.3301 0.0 0.0 0
M  V30 10 C 2.598 0.0 0.0 0
M  V30 11 O 5.1961 -0.5 0.0 0
M  V30 12 N 4.3301 1.0 0.0 0
M  V30 13 N 1.732 -0.5 0.0 0
M  V30 14 C 5.1961 1.4999 0.0 0
M  V30 15 C 3.4641 1.5 0.0 0
M  V30 16 C 0.866 0.0 0.0 0
M  V30 17 C 5.1961 2.4999 0.0 0
M  V30 18 C 3.4641 2.5 0.0 0
M  V30 19 C 0.866 1.0 0.0 0
M  V30 20 C 0.0 -0.5 0.0 0
M  V30 21 N 4.3301 2.9999 0.0 0
M  V30 22 C 4.3301 4.0 0.0 0
M  V30 23 N 5.1961 4.4999 0.0 0
M  V30 24 C 3.4641 4.5 0.0 0
M  V30 25 C 5.1961 5.5 0.0 0
M  V30 26 C 3.4641 5.5 0.0 0
M  V30 27 C 2.513 4.1909 0.0 0 CFG=1
M  V30 28 N 4.3301 6.0 0.0 0
M  V30 29 C 2.513 5.809 0.0 0 CFG=1
M  V30 30 C 1.9252 5.0 0.0 0
M  V30 31 C 2.204 3.2399 0.0 0
M  V30 32 O 2.204 6.76 0.0 0
M  V30 END ATOM
M  V30 BEGIN BOND
M  V30 1 1 1 2
M  V30 2 2 2 3
M  V30 3 1 2 4
M  V30 4 1 3 5
M  V30 5 2 4 6
M  V30 6 2 5 7
M  V30 7 1 8 7
M  V30 8 1 8 9
M  V30 9 1 8 10 CFG=1
M  V30 10 2 9 11
M  V30 11 1 9 12
M  V30 12 1 10 13
M  V30 13 1 12 14
M  V30 14 1 12 15
M  V30 15 1 13 16
M  V30 16 1 14 17
M  V30 17 1 15 18
M  V30 18 1 16 19
M  V30 19 1 16 20
M  V30 20 1 17 21
M  V30 21 1 21 22
M  V30 22 2 22 23
M  V30 23 1 22 24
M  V30 24 1 23 25
M  V30 25 2 24 26
M  V30 26 1 27 24
M  V30 27 2 25 28
M  V30 28 1 29 26
M  V30 29 1 27 30
M  V30 30 1 27 31 CFG=3
M  V30 31 1 29 32 CFG=1
M  V30 32 1 6 7
M  V30 33 1 18 21
M  V30 34 1 26 28
M  V30 35 1 29 30
M  V30 END BOND
M  V30 BEGIN COLLECTION
M  V30 MDLV30/STEABS ATOMS=(3 8 27 29)
M  V30 END COLLECTION
M  V30 END CTAB
M  END
>  <Molecule Name>
Compound 322

>  <Molecule Name 2>
Compound 322

>  <Compound ID>
104

>  <Name>
GDC-0068

>  <Uniprot>
P11802

>  <Target>
CDK4

>  <Smiles>
CC(C)NC[C@@H](C(=O)N1CCN(C2=NC=NC3=C2[C@H](C)C[C@H]3O)CC1)C1=CC=C(Cl)C=C1

>  <Kd (nM)>


>  <Assay (Kd)>


>  <Ki (nM)>


>  <Assay (Ki)>


>  <IC50 (nM)>


>  <Assay (IC50)>


>  <EC50 (nM)>


>  <Assay (EC50)>


>  <Article DOI>
10.1016/j.cell.2020.10.038

>  <Molecular Weight>
458.006

>  <Exact Mass>
457.2244529

>  <XLogP3>
2.46

>  <Heavy Atom Count>
32

>  <Ring Count>
4

>  <Hydrogen Bond Acceptor Count>
6

>  <Hydrogen Bond Donor Count>
2

>  <Rotatable Bond Count>
6

>  <Topological Polar Surface Area>
81.59

>  <Molecular Formula>
C24H32ClN5O2

>  <InChI>
InChI=1S/C24H32ClN5O2/c1-15(2)26-13-19(17-4-6-18(25)7-5-17)24(32)30-10-8-29(9-11-30)23-21-16(3)12-20(31)22(21)27-14-28-23/h4-7,14-16,19-20,26,31H,8-13H2,1-3H3/t16-,19-,20-/m1/s1

>  <InChI Key>
GRZXWCHAXNAUHY-NSISKUIASA-N

>  <BindingDB>
50398379

>  <PubChem>
24788740

>  <ChEMBL>
CHEMBL2177390

$$$$
104
Actelion Java MolfileCreator 2.0

  0  0  0  0  0  0              0 V3000
M  V30 BEGIN CTAB
M  V30 COUNTS 32 35 0 0 0
M  V30 BEGIN ATOM
M  V30 1 Cl 3.4641 -4.5 0.0 0
M  V30 2 C 3.4641 -3.5 0.0 0
M  V30 3 C 4.3301 -3.0 0.0 0
M  V30 4 C 2.598 -3.0 0.0 0
M  V30 5 C 4.3301 -1.9999 0.0 0
M  V30 6 C 2.598 -2.0 0.0 0
M  V30 7 C 3.4641 -1.5 0.0 0
M  V30 8 C 3.4641 -0.5 0.0 0 CFG=2
M  V30 9 C 4.3301 0.0 0.0 0
M  V30 10 C 2.598 0.0 0.0 0
M  V30 11 O 5.1961 -0.5 0.0 0
M  V30 12 N 4.3301 1.0 0.0 0
M  V30 13 N 1.732 -0.5 0.0 0
M  V30 14 C 5.1961 1.4999 0.0 0
M  V30 15 C 3.4641 1.5 0.0 0
M  V30 16 C 0.866 0.0 0.0 0
M  V30 17 C 5.1961 2.4999 0.0 0
M  V30 18 C 3.4641 2.5 0.0 0
M  V30 19 C 0.866 1.0 0.0 0
M  V30 20 C 0.0 -0.5 0.0 0
M  V30 21 N 4.3301 2.9999 0.0 0
M  V30 22 C 4.3301 4.0 0.0 0
M  V30 23 N 5.1961 4.4999 0.0 0
M  V30 24 C 3.4641 4.5 0.0 0
M  V30 25 C 5.1961 5.5 0.0 0
M  V30 26 C 3.4641 5.5 0.0 0
M  V30 27 C 2.513 4.1909 0.0 0 CFG=1
M  V30 28 N 4.3301 6.0 0.0 0
M  V30 29 C 2.513 5.809 0.0 0 CFG=1
M  V30 30 C 1.9252 5.0 0.0 0
M  V30 31 C 2.204 3.2399 0.0 0
M  V30 32 O 2.204 6.76 0.0 0
M  V30 END ATOM
M  V30 BEGIN BOND
M  V30 1 1 1 2
M  V30 2 2 2 3
M  V30 3 1 2 4
M  V30 4 1 3 5
M  V30 5 2 4 6
M  V30 6 2 5 7
M  V30 7 1 8 7
M  V30 8 1 8 9
M  V30 9 1 8 10 CFG=1
M  V30 10 2 9 11
M  V30 11 1 9 12
M  V30 12 1 10 13
M  V30 13 1 12 14
M  V30 14 1 12 15
M  V30 15 1 13 16
M  V30 16 1 14 17
M  V30 17 1 15 18
M  V30 18 1 16 19
M  V30 19 1 16 20
M  V30 20 1 17 21
M  V30 21 1 21 22
M  V30 22 2 22 23
M  V30 23 1 22 24
M  V30 24 1 23 25
M  V30 25 2 24 26
M  V30 26 1 27 24
M  V30 27 2 25 28
M  V30 28 1 29 26
M  V30 29 1 27 30
M  V30 30 1 27 31 CFG=3
M  V30 31 1 29 32 CFG=1
M  V30 32 1 6 7
M  V30 33 1 18 21
M  V30 34 1 26 28
M  V30 35 1 29 30
M  V30 END BOND
M  V30 BEGIN COLLECTION
M  V30 MDLV30/STEABS ATOMS=(3 8 27 29)
M  V30 END COLLECTION
M  V30 END CTAB
M  END
>  <Molecule Name>
Compound 323

>  <Molecule Name 2>
Compound 323

>  <Compound ID>
104

>  <Name>
GDC-0068

>  <Uniprot>
Q16659

>  <Target>
MAPK6

>  <Smiles>
CC(C)NC[C@@H](C(=O)N1CCN(C2=NC=NC3=C2[C@H](C)C[C@H]3O)CC1)C1=CC=C(Cl)C=C1

>  <Kd (nM)>


>  <Assay (Kd)>


>  <Ki (nM)>


>  <Assay (Ki)>


>  <IC50 (nM)>


>  <Assay (IC50)>


>  <EC50 (nM)>


>  <Assay (EC50)>


>  <Article DOI>
10.1016/j.cell.2020.10.038

>  <Molecular Weight>
458.006

>  <Exact Mass>
457.2244529

>  <XLogP3>
2.46

>  <Heavy Atom Count>
32

>  <Ring Count>
4

>  <Hydrogen Bond Acceptor Count>
6

>  <Hydrogen Bond Donor Count>
2

>  <Rotatable Bond Count>
6

>  <Topological Polar Surface Area>
81.59

>  <Molecular Formula>
C24H32ClN5O2

>  <InChI>
InChI=1S/C24H32ClN5O2/c1-15(2)26-13-19(17-4-6-18(25)7-5-17)24(32)30-10-8-29(9-11-30)23-21-16(3)12-20(31)22(21)27-14-28-23/h4-7,14-16,19-20,26,31H,8-13H2,1-3H3/t16-,19-,20-/m1/s1

>  <InChI Key>
GRZXWCHAXNAUHY-NSISKUIASA-N

>  <BindingDB>
50398379

>  <PubChem>
24788740

>  <ChEMBL>
CHEMBL2177390

$$$$
104
Actelion Java MolfileCreator 2.0

  0  0  0  0  0  0              0 V3000
M  V30 BEGIN CTAB
M  V30 COUNTS 32 35 0 0 0
M  V30 BEGIN ATOM
M  V30 1 Cl 3.4641 -4.5 0.0 0
M  V30 2 C 3.4641 -3.5 0.0 0
M  V30 3 C 4.3301 -3.0 0.0 0
M  V30 4 C 2.598 -3.0 0.0 0
M  V30 5 C 4.3301 -1.9999 0.0 0
M  V30 6 C 2.598 -2.0 0.0 0
M  V30 7 C 3.4641 -1.5 0.0 0
M  V30 8 C 3.4641 -0.5 0.0 0 CFG=2
M  V30 9 C 4.3301 0.0 0.0 0
M  V30 10 C 2.598 0.0 0.0 0
M  V30 11 O 5.1961 -0.5 0.0 0
M  V30 12 N 4.3301 1.0 0.0 0
M  V30 13 N 1.732 -0.5 0.0 0
M  V30 14 C 5.1961 1.4999 0.0 0
M  V30 15 C 3.4641 1.5 0.0 0
M  V30 16 C 0.866 0.0 0.0 0
M  V30 17 C 5.1961 2.4999 0.0 0
M  V30 18 C 3.4641 2.5 0.0 0
M  V30 19 C 0.866 1.0 0.0 0
M  V30 20 C 0.0 -0.5 0.0 0
M  V30 21 N 4.3301 2.9999 0.0 0
M  V30 22 C 4.3301 4.0 0.0 0
M  V30 23 N 5.1961 4.4999 0.0 0
M  V30 24 C 3.4641 4.5 0.0 0
M  V30 25 C 5.1961 5.5 0.0 0
M  V30 26 C 3.4641 5.5 0.0 0
M  V30 27 C 2.513 4.1909 0.0 0 CFG=1
M  V30 28 N 4.3301 6.0 0.0 0
M  V30 29 C 2.513 5.809 0.0 0 CFG=1
M  V30 30 C 1.9252 5.0 0.0 0
M  V30 31 C 2.204 3.2399 0.0 0
M  V30 32 O 2.204 6.76 0.0 0
M  V30 END ATOM
M  V30 BEGIN BOND
M  V30 1 1 1 2
M  V30 2 2 2 3
M  V30 3 1 2 4
M  V30 4 1 3 5
M  V30 5 2 4 6
M  V30 6 2 5 7
M  V30 7 1 8 7
M  V30 8 1 8 9
M  V30 9 1 8 10 CFG=1
M  V30 10 2 9 11
M  V30 11 1 9 12
M  V30 12 1 10 13
M  V30 13 1 12 14
M  V30 14 1 12 15
M  V30 15 1 13 16
M  V30 16 1 14 17
M  V30 17 1 15 18
M  V30 18 1 16 19
M  V30 19 1 16 20
M  V30 20 1 17 21
M  V30 21 1 21 22
M  V30 22 2 22 23
M  V30 23 1 22 24
M  V30 24 1 23 25
M  V30 25 2 24 26
M  V30 26 1 27 24
M  V30 27 2 25 28
M  V30 28 1 29 26
M  V30 29 1 27 30
M  V30 30 1 27 31 CFG=3
M  V30 31 1 29 32 CFG=1
M  V30 32 1 6 7
M  V30 33 1 18 21
M  V30 34 1 26 28
M  V30 35 1 29 30
M  V30 END BOND
M  V30 BEGIN COLLECTION
M  V30 MDLV30/STEABS ATOMS=(3 8 27 29)
M  V30 END COLLECTION
M  V30 END CTAB
M  END
>  <Molecule Name>
Compound 324

>  <Molecule Name 2>
Compound 324

>  <Compound ID>
104

>  <Name>
GDC-0068

>  <Uniprot>
Q15118

>  <Target>
PDK1

>  <Smiles>
CC(C)NC[C@@H](C(=O)N1CCN(C2=NC=NC3=C2[C@H](C)C[C@H]3O)CC1)C1=CC=C(Cl)C=C1

>  <Kd (nM)>


>  <Assay (Kd)>


>  <Ki (nM)>


>  <Assay (Ki)>


>  <IC50 (nM)>


>  <Assay (IC50)>


>  <EC50 (nM)>


>  <Assay (EC50)>


>  <Article DOI>
10.1016/j.cell.2020.10.038

>  <Molecular Weight>
458.006

>  <Exact Mass>
457.2244529

>  <XLogP3>
2.46

>  <Heavy Atom Count>
32

>  <Ring Count>
4

>  <Hydrogen Bond Acceptor Count>
6

>  <Hydrogen Bond Donor Count>
2

>  <Rotatable Bond Count>
6

>  <Topological Polar Surface Area>
81.59

>  <Molecular Formula>
C24H32ClN5O2

>  <InChI>
InChI=1S/C24H32ClN5O2/c1-15(2)26-13-19(17-4-6-18(25)7-5-17)24(32)30-10-8-29(9-11-30)23-21-16(3)12-20(31)22(21)27-14-28-23/h4-7,14-16,19-20,26,31H,8-13H2,1-3H3/t16-,19-,20-/m1/s1

>  <InChI Key>
GRZXWCHAXNAUHY-NSISKUIASA-N

>  <BindingDB>
50398379

>  <PubChem>
24788740

>  <ChEMBL>
CHEMBL2177390

$$$$
104
Actelion Java MolfileCreator 2.0

  0  0  0  0  0  0              0 V3000
M  V30 BEGIN CTAB
M  V30 COUNTS 32 35 0 0 0
M  V30 BEGIN ATOM
M  V30 1 Cl 3.4641 -4.5 0.0 0
M  V30 2 C 3.4641 -3.5 0.0 0
M  V30 3 C 4.3301 -3.0 0.0 0
M  V30 4 C 2.598 -3.0 0.0 0
M  V30 5 C 4.3301 -1.9999 0.0 0
M  V30 6 C 2.598 -2.0 0.0 0
M  V30 7 C 3.4641 -1.5 0.0 0
M  V30 8 C 3.4641 -0.5 0.0 0 CFG=2
M  V30 9 C 4.3301 0.0 0.0 0
M  V30 10 C 2.598 0.0 0.0 0
M  V30 11 O 5.1961 -0.5 0.0 0
M  V30 12 N 4.3301 1.0 0.0 0
M  V30 13 N 1.732 -0.5 0.0 0
M  V30 14 C 5.1961 1.4999 0.0 0
M  V30 15 C 3.4641 1.5 0.0 0
M  V30 16 C 0.866 0.0 0.0 0
M  V30 17 C 5.1961 2.4999 0.0 0
M  V30 18 C 3.4641 2.5 0.0 0
M  V30 19 C 0.866 1.0 0.0 0
M  V30 20 C 0.0 -0.5 0.0 0
M  V30 21 N 4.3301 2.9999 0.0 0
M  V30 22 C 4.3301 4.0 0.0 0
M  V30 23 N 5.1961 4.4999 0.0 0
M  V30 24 C 3.4641 4.5 0.0 0
M  V30 25 C 5.1961 5.5 0.0 0
M  V30 26 C 3.4641 5.5 0.0 0
M  V30 27 C 2.513 4.1909 0.0 0 CFG=1
M  V30 28 N 4.3301 6.0 0.0 0
M  V30 29 C 2.513 5.809 0.0 0 CFG=1
M  V30 30 C 1.9252 5.0 0.0 0
M  V30 31 C 2.204 3.2399 0.0 0
M  V30 32 O 2.204 6.76 0.0 0
M  V30 END ATOM
M  V30 BEGIN BOND
M  V30 1 1 1 2
M  V30 2 2 2 3
M  V30 3 1 2 4
M  V30 4 1 3 5
M  V30 5 2 4 6
M  V30 6 2 5 7
M  V30 7 1 8 7
M  V30 8 1 8 9
M  V30 9 1 8 10 CFG=1
M  V30 10 2 9 11
M  V30 11 1 9 12
M  V30 12 1 10 13
M  V30 13 1 12 14
M  V30 14 1 12 15
M  V30 15 1 13 16
M  V30 16 1 14 17
M  V30 17 1 15 18
M  V30 18 1 16 19
M  V30 19 1 16 20
M  V30 20 1 17 21
M  V30 21 1 21 22
M  V30 22 2 22 23
M  V30 23 1 22 24
M  V30 24 1 23 25
M  V30 25 2 24 26
M  V30 26 1 27 24
M  V30 27 2 25 28
M  V30 28 1 29 26
M  V30 29 1 27 30
M  V30 30 1 27 31 CFG=3
M  V30 31 1 29 32 CFG=1
M  V30 32 1 6 7
M  V30 33 1 18 21
M  V30 34 1 26 28
M  V30 35 1 29 30
M  V30 END BOND
M  V30 BEGIN COLLECTION
M  V30 MDLV30/STEABS ATOMS=(3 8 27 29)
M  V30 END COLLECTION
M  V30 END CTAB
M  END
>  <Molecule Name>
Compound 325

>  <Molecule Name 2>
Compound 325

>  <Compound ID>
104

>  <Name>
GDC-0068

>  <Uniprot>
Q9UEE5

>  <Target>
STK17A

>  <Smiles>
CC(C)NC[C@@H](C(=O)N1CCN(C2=NC=NC3=C2[C@H](C)C[C@H]3O)CC1)C1=CC=C(Cl)C=C1

>  <Kd (nM)>


>  <Assay (Kd)>


>  <Ki (nM)>


>  <Assay (Ki)>


>  <IC50 (nM)>


>  <Assay (IC50)>


>  <EC50 (nM)>


>  <Assay (EC50)>


>  <Article DOI>
10.1016/j.cell.2020.10.038

>  <Molecular Weight>
458.006

>  <Exact Mass>
457.2244529

>  <XLogP3>
2.46

>  <Heavy Atom Count>
32

>  <Ring Count>
4

>  <Hydrogen Bond Acceptor Count>
6

>  <Hydrogen Bond Donor Count>
2

>  <Rotatable Bond Count>
6

>  <Topological Polar Surface Area>
81.59

>  <Molecular Formula>
C24H32ClN5O2

>  <InChI>
InChI=1S/C24H32ClN5O2/c1-15(2)26-13-19(17-4-6-18(25)7-5-17)24(32)30-10-8-29(9-11-30)23-21-16(3)12-20(31)22(21)27-14-28-23/h4-7,14-16,19-20,26,31H,8-13H2,1-3H3/t16-,19-,20-/m1/s1

>  <InChI Key>
GRZXWCHAXNAUHY-NSISKUIASA-N

>  <BindingDB>
50398379

>  <PubChem>
24788740

>  <ChEMBL>
CHEMBL2177390

$$$$
105
Actelion Java MolfileCreator 2.0

  0  0  0  0  0  0              0 V3000
M  V30 BEGIN CTAB
M  V30 COUNTS 33 37 0 0 0
M  V30 BEGIN ATOM
M  V30 1 Cl 6.9282 -1.5 0.0 0
M  V30 2 C 6.9282 -0.4999 0.0 0
M  V30 3 C 7.7942 0.0 0.0 0
M  V30 4 C 6.0621 0.0 0.0 0
M  V30 5 C 7.7942 1.0 0.0 0
M  V30 6 C 8.6602 -0.4999 0.0 0
M  V30 7 C 6.0621 1.0 0.0 0
M  V30 8 F 8.6602 1.5 0.0 0
M  V30 9 C 6.9282 1.5 0.0 0
M  V30 10 C 8.6602 -1.5 0.0 0
M  V30 11 C 9.5262 0.0 0.0 0
M  V30 12 C 5.1961 1.5 0.0 0
M  V30 13 N 6.9282 2.5 0.0 0
M  V30 14 C 9.5262 -2.0 0.0 0
M  V30 15 C 7.7942 -2.0 0.0 0
M  V30 16 C 10.3923 -0.5 0.0 0
M  V30 17 N 5.1961 2.5 0.0 0
M  V30 18 N 4.3301 1.0 0.0 0
M  V30 19 C 6.0621 3.0 0.0 0
M  V30 20 C 10.3923 -1.4999 0.0 0
M  V30 21 C 9.5262 -3.0 0.0 0
M  V30 22 C 7.7942 -2.9999 0.0 0
M  V30 23 O 11.2583 0.0 0.0 0
M  V30 24 C 3.4641 1.5 0.0 0
M  V30 25 C 4.3301 0.0 0.0 0
M  V30 26 C 8.6602 -3.5 0.0 0
M  V30 27 C 2.598 0.9999 0.0 0
M  V30 28 C 3.4641 -0.4999 0.0 0
M  V30 29 N 2.598 0.0 0.0 0
M  V30 30 C 1.732 -0.5 0.0 0
M  V30 31 O 1.732 -1.5 0.0 0
M  V30 32 C 0.866 0.0 0.0 0
M  V30 33 C 0.0 -0.5 0.0 0
M  V30 END ATOM
M  V30 BEGIN BOND
M  V30 1 1 1 2
M  V30 2 1 3 2 CFG=1
M  V30 3 2 2 4
M  V30 4 2 3 5
M  V30 5 1 3 6
M  V30 6 1 4 7
M  V30 7 1 5 8
M  V30 8 1 5 9
M  V30 9 1 6 10
M  V30 10 2 6 11
M  V30 11 2 7 12
M  V30 12 2 9 13
M  V30 13 1 10 14
M  V30 14 2 10 15
M  V30 15 1 11 16
M  V30 16 1 12 17
M  V30 17 1 12 18
M  V30 18 1 13 19
M  V30 19 1 14 20
M  V30 20 2 14 21
M  V30 21 1 15 22
M  V30 22 1 16 23
M  V30 23 1 18 24
M  V30 24 1 18 25
M  V30 25 1 21 26
M  V30 26 1 24 27
M  V30 27 1 25 28
M  V30 28 1 27 29
M  V30 29 1 29 30
M  V30 30 2 30 31
M  V30 31 1 30 32
M  V30 32 2 32 33
M  V30 33 1 7 9
M  V30 34 2 16 20
M  V30 35 2 17 19
M  V30 36 2 22 26
M  V30 37 1 28 29
M  V30 END BOND
M  V30 BEGIN COLLECTION
M  V30 MDLV30/STERAC1 BONDS=(1 5)
M  V30 END COLLECTION
M  V30 END CTAB
M  END
>  <Molecule Name>
Compound 326

>  <Molecule Name 2>
Compound 326

>  <Compound ID>
105

>  <Name>


>  <Uniprot>
P01116

>  <Target>
KRAS G12C

>  <Smiles>
C=CC(=O)N1CCN(C2=NC=NC3=C(F)C(C4=CC(O)=CC5=CC=CC=C45)=C(Cl)C=C23)CC1

>  <Kd (nM)>


>  <Assay (Kd)>


>  <Ki (nM)>


>  <Assay (Ki)>


>  <IC50 (nM)>


>  <Assay (IC50)>


>  <EC50 (nM)>


>  <Assay (EC50)>


>  <Article DOI>


>  <Molecular Weight>
462.912

>  <Exact Mass>
462.1258818

>  <XLogP3>
5.11

>  <Heavy Atom Count>
33

>  <Ring Count>
5

>  <Hydrogen Bond Acceptor Count>
5

>  <Hydrogen Bond Donor Count>
1

>  <Rotatable Bond Count>
3

>  <Topological Polar Surface Area>
69.56

>  <Molecular Formula>
C25H20ClFN4O2

>  <InChI>
InChI=1S/C25H20ClFN4O2/c1-2-21(33)30-7-9-31(10-8-30)25-19-13-20(26)22(23(27)24(19)28-14-29-25)18-12-16(32)11-15-5-3-4-6-17(15)18/h2-6,11-14,32H,1,7-10H2

>  <InChI Key>
JIPIHCUZVBBERR-UHFFFAOYSA-N

>  <BindingDB>


>  <PubChem>
118019082

>  <ChEMBL>


$$$$
105
Actelion Java MolfileCreator 2.0

  0  0  0  0  0  0              0 V3000
M  V30 BEGIN CTAB
M  V30 COUNTS 33 37 0 0 0
M  V30 BEGIN ATOM
M  V30 1 Cl 6.9282 -1.5 0.0 0
M  V30 2 C 6.9282 -0.4999 0.0 0
M  V30 3 C 7.7942 0.0 0.0 0
M  V30 4 C 6.0621 0.0 0.0 0
M  V30 5 C 7.7942 1.0 0.0 0
M  V30 6 C 8.6602 -0.4999 0.0 0
M  V30 7 C 6.0621 1.0 0.0 0
M  V30 8 F 8.6602 1.5 0.0 0
M  V30 9 C 6.9282 1.5 0.0 0
M  V30 10 C 8.6602 -1.5 0.0 0
M  V30 11 C 9.5262 0.0 0.0 0
M  V30 12 C 5.1961 1.5 0.0 0
M  V30 13 N 6.9282 2.5 0.0 0
M  V30 14 C 9.5262 -2.0 0.0 0
M  V30 15 C 7.7942 -2.0 0.0 0
M  V30 16 C 10.3923 -0.5 0.0 0
M  V30 17 N 5.1961 2.5 0.0 0
M  V30 18 N 4.3301 1.0 0.0 0
M  V30 19 C 6.0621 3.0 0.0 0
M  V30 20 C 10.3923 -1.4999 0.0 0
M  V30 21 C 9.5262 -3.0 0.0 0
M  V30 22 C 7.7942 -2.9999 0.0 0
M  V30 23 O 11.2583 0.0 0.0 0
M  V30 24 C 3.4641 1.5 0.0 0
M  V30 25 C 4.3301 0.0 0.0 0
M  V30 26 C 8.6602 -3.5 0.0 0
M  V30 27 C 2.598 0.9999 0.0 0
M  V30 28 C 3.4641 -0.4999 0.0 0
M  V30 29 N 2.598 0.0 0.0 0
M  V30 30 C 1.732 -0.5 0.0 0
M  V30 31 O 1.732 -1.5 0.0 0
M  V30 32 C 0.866 0.0 0.0 0
M  V30 33 C 0.0 -0.5 0.0 0
M  V30 END ATOM
M  V30 BEGIN BOND
M  V30 1 1 1 2
M  V30 2 1 3 2 CFG=1
M  V30 3 2 2 4
M  V30 4 2 3 5
M  V30 5 1 3 6
M  V30 6 1 4 7
M  V30 7 1 5 8
M  V30 8 1 5 9
M  V30 9 1 6 10
M  V30 10 2 6 11
M  V30 11 2 7 12
M  V30 12 2 9 13
M  V30 13 1 10 14
M  V30 14 2 10 15
M  V30 15 1 11 16
M  V30 16 1 12 17
M  V30 17 1 12 18
M  V30 18 1 13 19
M  V30 19 1 14 20
M  V30 20 2 14 21
M  V30 21 1 15 22
M  V30 22 1 16 23
M  V30 23 1 18 24
M  V30 24 1 18 25
M  V30 25 1 21 26
M  V30 26 1 24 27
M  V30 27 1 25 28
M  V30 28 1 27 29
M  V30 29 1 29 30
M  V30 30 2 30 31
M  V30 31 1 30 32
M  V30 32 2 32 33
M  V30 33 1 7 9
M  V30 34 2 16 20
M  V30 35 2 17 19
M  V30 36 2 22 26
M  V30 37 1 28 29
M  V30 END BOND
M  V30 BEGIN COLLECTION
M  V30 MDLV30/STERAC1 BONDS=(1 5)
M  V30 END COLLECTION
M  V30 END CTAB
M  END
>  <Molecule Name>
Compound 327

>  <Molecule Name 2>
Compound 327

>  <Compound ID>
105

>  <Name>


>  <Uniprot>
P01116

>  <Target>
KRAS

>  <Smiles>
C=CC(=O)N1CCN(C2=NC=NC3=C(F)C(C4=CC(O)=CC5=CC=CC=C45)=C(Cl)C=C23)CC1

>  <Kd (nM)>


>  <Assay (Kd)>


>  <Ki (nM)>


>  <Assay (Ki)>


>  <IC50 (nM)>


>  <Assay (IC50)>


>  <EC50 (nM)>


>  <Assay (EC50)>


>  <Article DOI>


>  <Molecular Weight>
462.912

>  <Exact Mass>
462.1258818

>  <XLogP3>
5.11

>  <Heavy Atom Count>
33

>  <Ring Count>
5

>  <Hydrogen Bond Acceptor Count>
5

>  <Hydrogen Bond Donor Count>
1

>  <Rotatable Bond Count>
3

>  <Topological Polar Surface Area>
69.56

>  <Molecular Formula>
C25H20ClFN4O2

>  <InChI>
InChI=1S/C25H20ClFN4O2/c1-2-21(33)30-7-9-31(10-8-30)25-19-13-20(26)22(23(27)24(19)28-14-29-25)18-12-16(32)11-15-5-3-4-6-17(15)18/h2-6,11-14,32H,1,7-10H2

>  <InChI Key>
JIPIHCUZVBBERR-UHFFFAOYSA-N

>  <BindingDB>


>  <PubChem>
118019082

>  <ChEMBL>


$$$$
106
Actelion Java MolfileCreator 2.0

  0  0  0  0  0  0              0 V3000
M  V30 BEGIN CTAB
M  V30 COUNTS 30 32 0 0 0
M  V30 BEGIN ATOM
M  V30 1 F 11.3923 1.5 0.0 0
M  V30 2 C 10.3923 1.5 0.0 0
M  V30 3 F 10.3923 0.5 0.0 0
M  V30 4 F 9.3923 1.4999 0.0 0
M  V30 5 O 10.3923 2.5 0.0 0
M  V30 6 C 9.5262 3.0 0.0 0
M  V30 7 C 9.5262 4.0 0.0 0
M  V30 8 C 8.6602 2.4999 0.0 0
M  V30 9 C 8.6602 4.5 0.0 0
M  V30 10 C 7.7942 3.0 0.0 0
M  V30 11 C 7.7942 4.0 0.0 0
M  V30 12 N 6.9282 4.5 0.0 0
M  V30 13 C 6.0621 4.0 0.0 0
M  V30 14 N 5.1961 4.5 0.0 0
M  V30 15 C 6.0621 3.0 0.0 0
M  V30 16 C 4.3301 3.9999 0.0 0
M  V30 17 C 5.1961 2.5 0.0 0
M  V30 18 N 4.3301 3.0 0.0 0
M  V30 19 C 5.1961 1.5 0.0 0
M  V30 20 C 4.3301 1.0 0.0 0
M  V30 21 C 6.0621 0.9999 0.0 0
M  V30 22 C 4.3301 0.0 0.0 0
M  V30 23 C 6.0621 0.0 0.0 0
M  V30 24 C 3.4641 -0.5 0.0 0
M  V30 25 C 5.1961 -0.5 0.0 0
M  V30 26 O 3.4641 -1.5 0.0 0
M  V30 27 N 2.598 0.0 0.0 0
M  V30 28 C 1.732 -0.5 0.0 0
M  V30 29 C 0.866 0.0 0.0 0
M  V30 30 O 0.0 -0.5 0.0 0
M  V30 END ATOM
M  V30 BEGIN BOND
M  V30 1 1 1 2
M  V30 2 1 2 3
M  V30 3 1 2 4
M  V30 4 1 2 5
M  V30 5 1 5 6
M  V30 6 2 6 7
M  V30 7 1 6 8
M  V30 8 1 7 9
M  V30 9 2 8 10
M  V30 10 2 9 11
M  V30 11 1 11 12
M  V30 12 1 12 13
M  V30 13 2 13 14
M  V30 14 1 13 15
M  V30 15 1 14 16
M  V30 16 2 15 17
M  V30 17 2 16 18
M  V30 18 1 17 19
M  V30 19 2 19 20
M  V30 20 1 19 21
M  V30 21 1 20 22
M  V30 22 2 21 23
M  V30 23 1 22 24
M  V30 24 2 22 25
M  V30 25 2 24 26
M  V30 26 1 24 27
M  V30 27 1 27 28
M  V30 28 1 28 29
M  V30 29 1 29 30
M  V30 30 1 10 11
M  V30 31 1 17 18
M  V30 32 1 23 25
M  V30 END BOND
M  V30 END CTAB
M  END
>  <Molecule Name>
Compound 328

>  <Molecule Name 2>
Compound 328

>  <Compound ID>
106

>  <Name>
GNF-5

>  <Uniprot>


>  <Target>
BCR-ABL

>  <Smiles>
O=C(NCCO)C1=CC=CC(C2=CC(NC3=CC=C(OC(F)(F)F)C=C3)=NC=N2)=C1

>  <Kd (nM)>


>  <Assay (Kd)>


>  <Ki (nM)>


>  <Assay (Ki)>


>  <IC50 (nM)>


>  <Assay (IC50)>


>  <EC50 (nM)>
430

>  <Assay (EC50)>
Inhibition of Bcr-Abl in mouse BA/F3 cells

>  <Article DOI>
10.1021/jm100555f

>  <Molecular Weight>
418.375

>  <Exact Mass>
418.1252751

>  <XLogP3>
3.51

>  <Heavy Atom Count>
30

>  <Ring Count>
3

>  <Hydrogen Bond Acceptor Count>
6

>  <Hydrogen Bond Donor Count>
3

>  <Rotatable Bond Count>
7

>  <Topological Polar Surface Area>
96.37

>  <Molecular Formula>
C20H17F3N4O3

>  <InChI>
InChI=1S/C20H17F3N4O3/c21-20(22,23)30-16-6-4-15(5-7-16)27-18-11-17(25-12-26-18)13-2-1-3-14(10-13)19(29)24-8-9-28/h1-7,10-12,28H,8-9H2,(H,24,29)(H,25,26,27)

>  <InChI Key>
IIQUYGWWHIHOCF-UHFFFAOYSA-N

>  <BindingDB>
50328152

>  <PubChem>
44129660

>  <ChEMBL>
CHEMBL1257423

$$$$
107
Actelion Java MolfileCreator 2.0

  0  0  0  0  0  0              0 V3000
M  V30 BEGIN CTAB
M  V30 COUNTS 65 68 0 0 0
M  V30 BEGIN ATOM
M  V30 1 O 6.806 -3.3085 0.0 0
M  V30 2 C 6.7699 -2.3092 0.0 0
M  V30 3 N 5.7726 -2.237 0.0 0
M  V30 4 C 7.7595 -2.1653 0.0 0
M  V30 5 C 4.814 -1.9522 0.0 0 CFG=2
M  V30 6 C 6.0051 -3.2096 0.0 0
M  V30 7 O 7.975 -3.1418 0.0 0
M  V30 8 C 8.8769 -1.8319 0.0 0 CFG=1
M  V30 9 C 3.9391 -1.4679 0.0 0
M  V30 10 C 4.088 -2.6399 0.0 0
M  V30 11 C 5.2791 -3.8973 0.0 0
M  V30 12 O 9.2302 -0.8964 0.0 0
M  V30 13 O 8.5839 -2.788 0.0 0
M  V30 14 C 9.5104 -2.6056 0.0 0 CFG=1
M  V30 15 O 3.363 -2.2853 0.0 0
M  V30 16 O 3.1887 -0.8068 0.0 0
M  V30 17 C 4.3206 -3.6124 0.0 0
M  V30 18 C 10.2171 -0.7346 0.0 0 CFG=2
M  V30 19 C 10.4973 -2.4438 0.0 0
M  V30 20 C 9.1571 -3.5411 0.0 0
M  V30 21 C 2.598 0.0 0.0 0 CFG=2
M  V30 22 C 10.7644 0.295 0.0 0
M  V30 23 C 10.8506 -1.5083 0.0 0
M  V30 24 C 1.732 -0.5 0.0 0 CFG=1
M  V30 25 C 2.1946 0.915 0.0 0
M  V30 26 C 11.1007 1.2367 0.0 0 CFG=2
M  V30 27 C 0.866 0.0 0.0 0
M  V30 28 C 1.732 -1.5 0.0 0
M  V30 29 C 1.9973 1.8953 0.0 0
M  V30 30 O 12.0733 1.0041 0.0 0
M  V30 31 C 11.2268 2.2287 0.0 0
M  V30 32 C 0.0 -0.5 0.0 0 CFG=1
M  V30 33 O 1.0014 1.8051 0.0 0
M  V30 34 C 2.0153 2.8951 0.0 0 CFG=1
M  V30 35 C 12.3582 0.0456 0.0 0
M  V30 36 C 10.9246 3.182 0.0 0
M  V30 37 C 12.2227 2.3189 0.0 0
M  V30 38 C -0.866 0.0 0.0 0
M  V30 39 C 0.0 -1.4999 0.0 0
M  V30 40 C 2.4515 3.795 0.0 0
M  V30 41 C 1.0428 3.1277 0.0 0
M  V30 42 C 10.8345 4.1779 0.0 0
M  V30 43 C -1.732 -0.4999 0.0 0 CFG=1
M  V30 44 C -0.866 -1.9999 0.0 0
M  V30 45 C 2.6841 4.7676 0.0 0
M  V30 46 C 10.16 4.9162 0.0 0
M  V30 47 O -2.598 0.0 0.0 0
M  V30 48 C -1.732 -1.4999 0.0 0 CFG=1
M  V30 49 C 3.3036 5.5526 0.0 0 CFG=1
M  V30 50 C 1.7843 5.2038 0.0 0
M  V30 51 C 9.66 5.7822 0.0 0
M  V30 52 C -3.4641 -0.4999 0.0 0
M  V30 53 O -2.598 -1.9999 0.0 0
M  V30 54 O 2.5901 6.2533 0.0 0
M  V30 55 C 4.0773 6.1861 0.0 0 CFG=1
M  V30 56 C 8.7379 6.1691 0.0 0
M  V30 57 O 3.5311 7.0238 0.0 0
M  V30 58 C 4.9691 6.6385 0.0 0
M  V30 59 C 7.9204 6.7451 0.0 0 CFG=2
M  V30 60 C 2.5326 6.9697 0.0 0
M  V30 61 O 4.6158 7.574 0.0 0
M  V30 62 C 5.9373 6.8886 0.0 0 CFG=1
M  V30 63 C 6.9367 6.9247 0.0 0
M  V30 64 C 8.3073 7.6673 0.0 0
M  V30 65 C 5.7934 7.8782 0.0 0
M  V30 END ATOM
M  V30 BEGIN BOND
M  V30 1 2 1 2
M  V30 2 1 2 3
M  V30 3 1 2 4
M  V30 4 1 5 3 CFG=1
M  V30 5 1 3 6
M  V30 6 2 4 7
M  V30 7 1 8 4
M  V30 8 1 5 9
M  V30 9 1 5 10
M  V30 10 1 6 11
M  V30 11 1 8 12
M  V30 12 1 8 13 CFG=1
M  V30 13 1 14 8
M  V30 14 2 9 15
M  V30 15 1 9 16
M  V30 16 1 10 17
M  V30 17 1 18 12 CFG=3
M  V30 18 1 14 19
M  V30 19 1 14 20 CFG=1
M  V30 20 1 21 16 CFG=3
M  V30 21 1 18 22
M  V30 22 1 18 23
M  V30 23 1 24 21
M  V30 24 1 21 25
M  V30 25 1 26 22
M  V30 26 1 24 27
M  V30 27 1 24 28 CFG=3
M  V30 28 1 25 29
M  V30 29 1 26 30 CFG=1
M  V30 30 1 26 31
M  V30 31 1 32 27 CFG=3
M  V30 32 2 29 33
M  V30 33 1 34 29
M  V30 34 1 30 35
M  V30 35 2 31 36
M  V30 36 1 31 37
M  V30 37 1 32 38
M  V30 38 1 32 39
M  V30 39 1 34 40
M  V30 40 1 34 41 CFG=3
M  V30 41 1 36 42
M  V30 42 1 43 38
M  V30 43 1 39 44
M  V30 44 2 40 45
M  V30 45 2 42 46
M  V30 46 1 43 47 CFG=3
M  V30 47 1 48 43
M  V30 48 1 49 45
M  V30 49 1 45 50
M  V30 50 1 46 51
M  V30 51 1 47 52
M  V30 52 1 48 53 CFG=1
M  V30 53 1 49 54 CFG=1
M  V30 54 1 55 49
M  V30 55 2 51 56
M  V30 56 1 55 57 CFG=1
M  V30 57 1 55 58
M  V30 58 1 59 56
M  V30 59 1 57 60
M  V30 60 2 58 61
M  V30 61 1 62 58
M  V30 62 1 59 63
M  V30 63 1 59 64 CFG=3
M  V30 64 1 62 65 CFG=3
M  V30 65 1 11 17
M  V30 66 1 19 23
M  V30 67 1 44 48
M  V30 68 1 62 63
M  V30 END BOND
M  V30 BEGIN COLLECTION
M  V30 MDLV30/STEABS ATOMS=(15 5 8 14 18 21 24 26 32 34 43 48 49 55 59 62)
M  V30 END COLLECTION
M  V30 END CTAB
M  END
>  <Molecule Name>
Compound 329

>  <Molecule Name 2>
Compound 329

>  <Compound ID>
107

>  <Name>
rapamycin

>  <Uniprot>
P62942

>  <Target>
FKBP12

>  <Smiles>
CO[C@H]1C[C@@H]2CC[C@@H](C)[C@@](O)(O2)C(=O)C(=O)N2CCCC[C@H]2C(=O)O[C@H]([C@H](C)C[C@@H]2CC[C@@H](O)[C@H](OC)C2)CC(=O)[C@H](C)/C=C(\C)[C@@H](O)[C@@H](OC)C(=O)[C@H](C)C[C@H](C)/C=C/C=C/C=C/1C

>  <Kd (nM)>
0.2

>  <Assay (Kd)>
Kd of FKBP12

>  <Ki (nM)>


>  <Assay (Ki)>


>  <IC50 (nM)>


>  <Assay (IC50)>


>  <EC50 (nM)>


>  <Assay (EC50)>


>  <Article DOI>
10.1021/ja00004a051

>  <Molecular Weight>
914.187

>  <Exact Mass>
913.5551416

>  <XLogP3>
6.02

>  <Heavy Atom Count>
65

>  <Ring Count>
4

>  <Hydrogen Bond Acceptor Count>
13

>  <Hydrogen Bond Donor Count>
3

>  <Rotatable Bond Count>
6

>  <Topological Polar Surface Area>
195.43

>  <Molecular Formula>
C51H79NO13

>  <InChI>
InChI=1S/C51H79NO13/c1-30-16-12-11-13-17-31(2)42(61-8)28-38-21-19-36(7)51(60,65-38)48(57)49(58)52-23-15-14-18-39(52)50(59)64-43(33(4)26-37-20-22-40(53)44(27-37)62-9)29-41(54)32(3)25-35(6)46(56)47(63-10)45(55)34(5)24-30/h11-13,16-17,25,30,32-34,36-40,42-44,46-47,53,56,60H,14-15,18-24,26-29H2,1-10H3/b13-11+,16-12+,31-17+,35-25+/t30-,32-,33-,34-,36-,37+,38+,39+,40-,42+,43+,44-,46-,47+,51-/m1/s1

>  <InChI Key>
QFJCIRLUMZQUOT-HPLJOQBZSA-N

>  <BindingDB>


>  <PubChem>


>  <ChEMBL>


$$$$
108
Actelion Java MolfileCreator 2.0

  0  0  0  0  0  0              0 V3000
M  V30 BEGIN CTAB
M  V30 COUNTS 26 28 0 0 0
M  V30 BEGIN ATOM
M  V30 1 S 0.0 -5.25 0.0 0
M  V30 2 O 0.75 -6.549 0.0 0
M  V30 3 O -0.75 -6.549 0.0 0
M  V30 4 C 1.299 -4.5 0.0 0
M  V30 5 C -1.299 -4.5 0.0 0
M  V30 6 C 2.598 -5.25 0.0 0
M  V30 7 C 1.299 -3.0 0.0 0
M  V30 8 C -0.549 -3.2009 0.0 0
M  V30 9 C -2.598 -3.75 0.0 0
M  V30 10 C -2.049 -5.799 0.0 0
M  V30 11 O 2.598 -6.75 0.0 0
M  V30 12 C 3.8971 -4.5 0.0 0
M  V30 13 C 2.598 -2.25 0.0 0
M  V30 14 C 3.8971 -3.0 0.0 0
M  V30 15 C 2.598 -0.75 0.0 0
M  V30 16 N 5.1961 -2.25 0.0 0
M  V30 17 N 3.8971 0.0 0.0 0
M  V30 18 N 1.299 0.0 0.0 0
M  V30 19 C 5.1961 -0.75 0.0 0
M  V30 20 C 1.299 1.5 0.0 0
M  V30 21 N 0.0855 2.3816 0.0 0
M  V30 22 C 2.5125 2.3816 0.0 0
M  V30 23 N 0.549 3.8082 0.0 0
M  V30 24 C 2.049 3.8082 0.0 0
M  V30 25 C 3.9391 1.9181 0.0 0
M  V30 26 C 2.9307 5.0217 0.0 0
M  V30 END ATOM
M  V30 BEGIN BOND
M  V30 1 2 1 2
M  V30 2 2 1 3
M  V30 3 1 1 4
M  V30 4 1 1 5
M  V30 5 1 4 6
M  V30 6 2 4 7
M  V30 7 1 5 8
M  V30 8 1 5 9
M  V30 9 1 5 10
M  V30 10 1 6 11
M  V30 11 2 6 12
M  V30 12 1 7 13
M  V30 13 1 12 14
M  V30 14 2 13 15
M  V30 15 2 14 16
M  V30 16 1 15 17
M  V30 17 1 15 18
M  V30 18 1 16 19
M  V30 19 1 18 20
M  V30 20 2 20 21
M  V30 21 1 20 22
M  V30 22 1 21 23
M  V30 23 2 22 24
M  V30 24 1 22 25
M  V30 25 1 24 26
M  V30 26 1 13 14
M  V30 27 2 17 19
M  V30 28 1 23 24
M  V30 END BOND
M  V30 END CTAB
M  END
>  <Molecule Name>
Compound 330

>  <Molecule Name 2>
Compound 330

>  <Compound ID>
108

>  <Name>


>  <Uniprot>
O43353

>  <Target>
RIPK2

>  <Smiles>
CC1=C(C)C(NC2=NC=NC3=CC(O)=C(S(=O)(=O)C(C)(C)C)C=C23)=N[NH]1

>  <Kd (nM)>


>  <Assay (Kd)>


>  <Ki (nM)>


>  <Assay (Ki)>


>  <IC50 (nM)>


>  <Assay (IC50)>


>  <EC50 (nM)>


>  <Assay (EC50)>


>  <Article DOI>


>  <Molecular Weight>
375.454

>  <Exact Mass>
375.1365105

>  <XLogP3>
3.23

>  <Heavy Atom Count>
26

>  <Ring Count>
3

>  <Hydrogen Bond Acceptor Count>
7

>  <Hydrogen Bond Donor Count>
3

>  <Rotatable Bond Count>
3

>  <Topological Polar Surface Area>
120.86

>  <Molecular Formula>
C17H21N5O3S

>  <InChI>
InChI=1S/C17H21N5O3S/c1-9-10(2)21-22-15(9)20-16-11-6-14(26(24,25)17(3,4)5)13(23)7-12(11)18-8-19-16/h6-8,23H,1-5H3,(H2,18,19,20,21,22)

>  <InChI Key>
PSLSXLGIHYOELW-UHFFFAOYSA-N

>  <BindingDB>


>  <PubChem>
137146568

>  <ChEMBL>


$$$$
109
Actelion Java MolfileCreator 2.0

  0  0  0  0  0  0              0 V3000
M  V30 BEGIN CTAB
M  V30 COUNTS 20 20 0 0 0
M  V30 BEGIN ATOM
M  V30 1 Cl 7.5932 1.5 0.0 0
M  V30 2 C 9.0932 1.5 0.0 0
M  V30 3 Cl 9.0932 3.0 0.0 0
M  V30 4 Cl 10.5932 1.4999 0.0 0
M  V30 5 C 9.0932 0.0 0.0 0 CFG=2
M  V30 6 N 10.3923 -0.75 0.0 0
M  V30 7 N 7.7942 -0.75 0.0 0
M  V30 8 C 10.3923 -2.25 0.0 0
M  V30 9 C 6.4951 0.0 0.0 0
M  V30 10 N 11.6913 -3.0 0.0 0
M  V30 11 N 9.0932 -2.9999 0.0 0
M  V30 12 O 6.4951 1.5 0.0 0
M  V30 13 O 5.1961 -0.75 0.0 0
M  V30 14 C 11.6913 -4.5 0.0 0
M  V30 15 C 9.0932 -4.5 0.0 0
M  V30 16 C 3.8971 0.0 0.0 0
M  V30 17 C 10.3923 -5.2499 0.0 0
M  V30 18 C 2.598 -0.75 0.0 0
M  V30 19 C 1.299 0.0 0.0 0
M  V30 20 N 0.0 -0.75 0.0 0
M  V30 END ATOM
M  V30 BEGIN BOND
M  V30 1 1 1 2
M  V30 2 1 2 3
M  V30 3 1 2 4
M  V30 4 1 5 2
M  V30 5 1 5 6 CFG=3
M  V30 6 1 5 7
M  V30 7 1 6 8
M  V30 8 1 7 9
M  V30 9 2 8 10
M  V30 10 1 8 11
M  V30 11 2 9 12
M  V30 12 1 9 13
M  V30 13 1 10 14
M  V30 14 2 11 15
M  V30 15 1 13 16
M  V30 16 2 14 17
M  V30 17 1 16 18
M  V30 18 1 18 19
M  V30 19 1 19 20
M  V30 20 1 15 17
M  V30 END BOND
M  V30 BEGIN COLLECTION
M  V30 MDLV30/STERAC1 ATOMS=(1 5)
M  V30 END COLLECTION
M  V30 END CTAB
M  END
>  <Molecule Name>
Compound 331

>  <Molecule Name 2>
Compound 331

>  <Compound ID>
109

>  <Name>
Apcin-A

>  <Uniprot>
Q12834

>  <Target>
Cdc20

>  <Smiles>
NCCCOC(=O)NC(NC1=NC=CC=N1)C(Cl)(Cl)Cl

>  <Kd (nM)>


>  <Assay (Kd)>


>  <Ki (nM)>


>  <Assay (Ki)>


>  <IC50 (nM)>


>  <Assay (IC50)>


>  <EC50 (nM)>


>  <Assay (EC50)>


>  <Article DOI>
10.1038/nature13660

>  <Molecular Weight>
342.614

>  <Exact Mass>
341.0213077

>  <XLogP3>
2.22

>  <Heavy Atom Count>
20

>  <Ring Count>
1

>  <Hydrogen Bond Acceptor Count>
6

>  <Hydrogen Bond Donor Count>
3

>  <Rotatable Bond Count>
6

>  <Topological Polar Surface Area>
102.16

>  <Molecular Formula>
C10H14Cl3N5O2

>  <InChI>
InChI=1S/C10H14Cl3N5O2/c11-10(12,13)7(17-8-15-4-2-5-16-8)18-9(19)20-6-1-3-14/h2,4-5,7H,1,3,6,14H2,(H,18,19)(H,15,16,17)

>  <InChI Key>
JQTSJVDIFMKETH-UHFFFAOYSA-N

>  <BindingDB>


>  <PubChem>
127243466

>  <ChEMBL>


$$$$
110
Actelion Java MolfileCreator 2.0

  0  0  0  0  0  0              0 V3000
M  V30 BEGIN CTAB
M  V30 COUNTS 33 35 0 0 0
M  V30 BEGIN ATOM
M  V30 1 S -2.6159 1.3754 0.0 0
M  V30 2 C -1.8069 0.7876 0.0 0
M  V30 3 C -3.4249 0.7876 0.0 0
M  V30 4 C -0.8558 1.0967 0.0 0
M  V30 5 C -2.1159 -0.1633 0.0 0
M  V30 6 N -3.1159 -0.1633 0.0 0
M  V30 7 C -0.6479 2.0748 0.0 0
M  V30 8 C -0.1127 0.4275 0.0 0
M  V30 9 C -1.5281 -0.9723 0.0 0
M  V30 10 C 0.3031 2.3838 0.0 0
M  V30 11 C 0.8383 0.7366 0.0 0
M  V30 12 C 1.0462 1.7147 0.0 0
M  V30 13 C 1.9973 2.0237 0.0 0
M  V30 14 N 2.7404 1.3546 0.0 0
M  V30 15 C 3.6915 1.6636 0.0 0
M  V30 16 O 3.8994 2.6418 0.0 0
M  V30 17 C 4.4346 0.9945 0.0 0 CFG=1
M  V30 18 N 4.3301 0.0 0.0 0
M  V30 19 C 5.4128 1.2024 0.0 0
M  V30 20 C 3.4641 -0.5 0.0 0
M  V30 21 C 5.2436 -0.4067 0.0 0
M  V30 22 C 5.9128 0.3364 0.0 0 CFG=2
M  V30 23 O 2.598 0.0 0.0 0
M  V30 24 C 3.4641 -1.5 0.0 0 CFG=1
M  V30 25 O 6.9073 0.2318 0.0 0
M  V30 26 N 2.598 -1.9999 0.0 0
M  V30 27 C 4.3301 -2.0 0.0 0
M  V30 28 C 1.732 -1.4999 0.0 0
M  V30 29 C 3.8301 -2.866 0.0 0
M  V30 30 C 5.1961 -2.5 0.0 0
M  V30 31 C 4.8301 -1.1339 0.0 0
M  V30 32 O 1.732 -0.4999 0.0 0
M  V30 33 C 0.866 -1.9999 0.0 0
M  V30 END ATOM
M  V30 BEGIN BOND
M  V30 1 1 1 2
M  V30 2 1 1 3
M  V30 3 1 2 4
M  V30 4 2 2 5
M  V30 5 2 3 6
M  V30 6 2 4 7
M  V30 7 1 4 8
M  V30 8 1 5 9
M  V30 9 1 7 10
M  V30 10 2 8 11
M  V30 11 2 10 12
M  V30 12 1 12 13
M  V30 13 1 13 14
M  V30 14 1 14 15
M  V30 15 2 15 16
M  V30 16 1 17 15 CFG=3
M  V30 17 1 17 18
M  V30 18 1 17 19
M  V30 19 1 18 20
M  V30 20 1 18 21
M  V30 21 1 22 19
M  V30 22 2 20 23
M  V30 23 1 24 20
M  V30 24 1 22 25 CFG=1
M  V30 25 1 24 26 CFG=3
M  V30 26 1 24 27
M  V30 27 1 26 28
M  V30 28 1 27 29
M  V30 29 1 27 30
M  V30 30 1 27 31
M  V30 31 2 28 32
M  V30 32 1 28 33
M  V30 33 1 5 6
M  V30 34 1 11 12
M  V30 35 1 21 22
M  V30 END BOND
M  V30 BEGIN COLLECTION
M  V30 MDLV30/STEABS ATOMS=(3 17 22 24)
M  V30 END COLLECTION
M  V30 END CTAB
M  END
>  <Molecule Name>
Compound 332

>  <Molecule Name 2>
Compound 332

>  <Compound ID>
110

>  <Name>
VH032

>  <Uniprot>
P40337

>  <Target>
VHL

>  <Smiles>
CC(=O)N[C@H](C(=O)N1C[C@H](O)C[C@H]1C(=O)NCC1=CC=C(C2=C(C)N=CS2)C=C1)C(C)(C)C

>  <Kd (nM)>
185/150

>  <Assay (Kd)>
ITC/FP

>  <Ki (nM)>


>  <Assay (Ki)>


>  <IC50 (nM)>


>  <Assay (IC50)>


>  <EC50 (nM)>


>  <Assay (EC50)>


>  <Article DOI>
10.1038/ncomms13312

>  <Molecular Weight>
472.611

>  <Exact Mass>
472.2144265

>  <XLogP3>
2.31

>  <Heavy Atom Count>
33

>  <Ring Count>
3

>  <Hydrogen Bond Acceptor Count>
6

>  <Hydrogen Bond Donor Count>
3

>  <Rotatable Bond Count>
6

>  <Topological Polar Surface Area>
111.63

>  <Molecular Formula>
C24H32N4O4S

>  <InChI>
InChI=1S/C24H32N4O4S/c1-14-20(33-13-26-14)17-8-6-16(7-9-17)11-25-22(31)19-10-18(30)12-28(19)23(32)21(24(3,4)5)27-15(2)29/h6-9,13,18-19,21,30H,10-12H2,1-5H3,(H,25,31)(H,27,29)/t18-,19+,21-/m1/s1

>  <InChI Key>
GFVIEZBZIUKYOG-SVFBPWRDSA-N

>  <BindingDB>
50099062

>  <PubChem>
77232228

>  <ChEMBL>
CHEMBL3344081

$$$$
111
Actelion Java MolfileCreator 2.0

  0  0  0  0  0  0              0 V3000
M  V30 BEGIN CTAB
M  V30 COUNTS 37 40 0 0 0
M  V30 BEGIN ATOM
M  V30 1 S -2.6159 1.3754 0.0 0
M  V30 2 C -1.8069 0.7876 0.0 0
M  V30 3 C -3.4249 0.7876 0.0 0
M  V30 4 C -0.8558 1.0967 0.0 0
M  V30 5 C -2.1159 -0.1633 0.0 0
M  V30 6 N -3.1159 -0.1633 0.0 0
M  V30 7 C -0.6479 2.0748 0.0 0
M  V30 8 C -0.1127 0.4275 0.0 0
M  V30 9 C -1.5281 -0.9723 0.0 0
M  V30 10 C 0.3031 2.3838 0.0 0
M  V30 11 C 0.8383 0.7366 0.0 0
M  V30 12 C 1.0462 1.7147 0.0 0
M  V30 13 C 1.9973 2.0237 0.0 0
M  V30 14 N 2.7404 1.3546 0.0 0
M  V30 15 C 3.6915 1.6636 0.0 0
M  V30 16 O 3.8994 2.6418 0.0 0
M  V30 17 C 4.4346 0.9945 0.0 0 CFG=1
M  V30 18 N 4.3301 0.0 0.0 0
M  V30 19 C 5.4128 1.2024 0.0 0
M  V30 20 C 3.4641 -0.5 0.0 0
M  V30 21 C 5.2436 -0.4067 0.0 0
M  V30 22 C 5.9128 0.3364 0.0 0 CFG=2
M  V30 23 O 2.598 0.0 0.0 0
M  V30 24 C 3.4641 -1.5 0.0 0 CFG=1
M  V30 25 O 6.9073 0.2318 0.0 0
M  V30 26 N 2.598 -1.9999 0.0 0
M  V30 27 C 4.3301 -2.0 0.0 0
M  V30 28 C 1.732 -1.4999 0.0 0
M  V30 29 C 3.8301 -2.866 0.0 0
M  V30 30 C 5.1961 -2.5 0.0 0
M  V30 31 C 4.8301 -1.1339 0.0 0
M  V30 32 O 1.732 -0.4999 0.0 0
M  V30 33 C 0.866 -1.9999 0.0 0
M  V30 34 C 1.5731 -2.7071 0.0 0
M  V30 35 C -0.0999 -1.7411 0.0 0
M  V30 36 C 0.6072 -1.034 0.0 0
M  V30 37 N 2.2802 -3.4142 0.0 0
M  V30 END ATOM
M  V30 BEGIN BOND
M  V30 1 1 1 2
M  V30 2 1 1 3
M  V30 3 1 2 4
M  V30 4 2 2 5
M  V30 5 2 3 6
M  V30 6 2 4 7
M  V30 7 1 4 8
M  V30 8 1 5 9
M  V30 9 1 7 10
M  V30 10 2 8 11
M  V30 11 2 10 12
M  V30 12 1 12 13
M  V30 13 1 13 14
M  V30 14 1 14 15
M  V30 15 2 15 16
M  V30 16 1 17 15 CFG=3
M  V30 17 1 17 18
M  V30 18 1 17 19
M  V30 19 1 18 20
M  V30 20 1 18 21
M  V30 21 1 22 19
M  V30 22 2 20 23
M  V30 23 1 24 20
M  V30 24 1 22 25 CFG=1
M  V30 25 1 24 26 CFG=3
M  V30 26 1 24 27
M  V30 27 1 26 28
M  V30 28 1 27 29
M  V30 29 1 27 30
M  V30 30 1 27 31
M  V30 31 2 28 32
M  V30 32 1 28 33
M  V30 33 1 33 34
M  V30 34 1 33 35
M  V30 35 1 33 36
M  V30 36 3 34 37
M  V30 37 1 5 6
M  V30 38 1 11 12
M  V30 39 1 21 22
M  V30 40 1 35 36
M  V30 END BOND
M  V30 BEGIN COLLECTION
M  V30 MDLV30/STEABS ATOMS=(3 17 22 24)
M  V30 END COLLECTION
M  V30 END CTAB
M  END
>  <Molecule Name>
Compound 333

>  <Molecule Name 2>
Compound 333

>  <Compound ID>
111

>  <Name>
VH298

>  <Uniprot>
P40337

>  <Target>
VHL

>  <Smiles>
CC1=C(C2=CC=C(CNC(=O)[C@@H]3C[C@@H](O)CN3C(=O)[C@@H](NC(=O)C3(C#N)CC3)C(C)(C)C)C=C2)SC=N1

>  <Kd (nM)>
90/80

>  <Assay (Kd)>
ITC/FP

>  <Ki (nM)>


>  <Assay (Ki)>


>  <IC50 (nM)>


>  <Assay (IC50)>


>  <EC50 (nM)>


>  <Assay (EC50)>


>  <Article DOI>
10.1038/ncomms13312

>  <Molecular Weight>
523.659

>  <Exact Mass>
523.2253255

>  <XLogP3>
2.54

>  <Heavy Atom Count>
37

>  <Ring Count>
4

>  <Hydrogen Bond Acceptor Count>
7

>  <Hydrogen Bond Donor Count>
3

>  <Rotatable Bond Count>
7

>  <Topological Polar Surface Area>
135.42

>  <Molecular Formula>
C27H33N5O4S

>  <InChI>
InChI=1S/C27H33N5O4S/c1-16-21(37-15-30-16)18-7-5-17(6-8-18)12-29-23(34)20-11-19(33)13-32(20)24(35)22(26(2,3)4)31-25(36)27(14-28)9-10-27/h5-8,15,19-20,22,33H,9-13H2,1-4H3,(H,29,34)(H,31,36)/t19-,20+,22-/m1/s1

>  <InChI Key>
NDVQUNZCNAMROD-RZUBCFFCSA-N

>  <BindingDB>
50459944

>  <PubChem>
122199236

>  <ChEMBL>
CHEMBL4225537

$$$$
112
Actelion Java MolfileCreator 2.0

  0  0  0  0  0  0              0 V3000
M  V30 BEGIN CTAB
M  V30 COUNTS 75 81 0 0 0
M  V30 BEGIN ATOM
M  V30 1 O 15.5884 -1.5 0.0 0
M  V30 2 C 14.7224 -2.0 0.0 0
M  V30 3 N 13.8564 -1.5 0.0 0
M  V30 4 C 14.7224 -3.0 0.0 0 CFG=1
M  V30 5 C 13.8564 -0.5 0.0 0
M  V30 6 C 12.9903 -2.0 0.0 0
M  V30 7 N 15.5884 -3.5 0.0 0
M  V30 8 C 13.8564 -3.5 0.0 0
M  V30 9 C 12.9903 0.0 0.0 0
M  V30 10 C 12.1243 -1.5 0.0 0
M  V30 11 N 15.6929 -4.4945 0.0 0
M  V30 12 C 16.502 -3.0932 0.0 0
M  V30 13 C 13.8564 -4.5 0.0 0
M  V30 14 N 12.1243 -0.5 0.0 0
M  V30 15 N 16.6711 -4.7024 0.0 0
M  V30 16 C 17.1711 -3.8364 0.0 0
M  V30 17 C 12.9903 -5.0 0.0 0
M  V30 18 C 14.7224 -5.0 0.0 0
M  V30 19 C 11.2583 0.0 0.0 0
M  V30 20 C 18.1656 -3.7318 0.0 0 CFG=1
M  V30 21 C 12.9903 -6.0 0.0 0
M  V30 22 C 14.7224 -6.0 0.0 0
M  V30 23 N 11.2583 0.9999 0.0 0
M  V30 24 N 10.3923 -0.5 0.0 0
M  V30 25 N 18.7534 -4.5408 0.0 0
M  V30 26 C 18.5723 -2.8183 0.0 0 CFG=2
M  V30 27 C 13.8564 -6.5 0.0 0
M  V30 28 C 10.3923 1.4999 0.0 0
M  V30 29 C 9.5262 0.0 0.0 0
M  V30 30 C 19.5669 -2.7138 0.0 0
M  V30 31 C 17.9846 -2.0093 0.0 0
M  V30 32 O 13.8564 -7.5 0.0 0
M  V30 33 N 9.5262 1.0 0.0 0
M  V30 34 N 10.3923 2.5 0.0 0
M  V30 35 N 8.6602 -0.5 0.0 0
M  V30 36 C 19.9736 -1.8002 0.0 0
M  V30 37 C 11.2583 3.0 0.0 0
M  V30 38 C 9.5262 3.0 0.0 0
M  V30 39 C 7.7942 0.0 0.0 0
M  V30 40 C 11.2583 4.0 0.0 0
M  V30 41 C 9.5262 3.9999 0.0 0
M  V30 42 C 6.9282 -0.5 0.0 0
M  V30 43 N 10.3923 4.4999 0.0 0
M  V30 44 O 6.0621 0.0 0.0 0
M  V30 45 C 10.3923 5.5 0.0 0
M  V30 46 C 5.1961 -0.5 0.0 0
M  V30 47 O 11.2583 6.0 0.0 0
M  V30 48 C 9.5262 6.0 0.0 0 CFG=1
M  V30 49 C 4.3301 0.0 0.0 0
M  V30 50 N 8.6602 5.5 0.0 0
M  V30 51 C 9.5262 7.0 0.0 0
M  V30 52 O 3.4641 -0.5 0.0 0
M  V30 53 N 7.7467 5.9067 0.0 0
M  V30 54 C 8.5557 4.5054 0.0 0
M  V30 55 C 8.6602 7.4999 0.0 0
M  V30 56 C 2.598 0.0 0.0 0
M  V30 57 N 7.0775 5.1635 0.0 0
M  V30 58 C 7.5775 4.2975 0.0 0
M  V30 59 C 8.6602 8.5 0.0 0
M  V30 60 C 7.7942 7.0 0.0 0
M  V30 61 C 1.732 -0.5 0.0 0
M  V30 62 C 7.1708 3.384 0.0 0 CFG=1
M  V30 63 C 7.7942 8.9999 0.0 0
M  V30 64 C 6.9282 7.5 0.0 0
M  V30 65 O 0.866 0.0 0.0 0
M  V30 66 N 6.1763 3.2794 0.0 0
M  V30 67 C 7.7586 2.575 0.0 0 CFG=2
M  V30 68 C 6.9282 8.5 0.0 0
M  V30 69 C 0.0 -0.5 0.0 0
M  V30 70 C 7.3518 1.6614 0.0 0
M  V30 71 C 8.7531 2.6795 0.0 0
M  V30 72 O 6.0621 9.0 0.0 0
M  V30 73 C 0.0 -1.5 0.0 0
M  V30 74 C 7.9396 0.8524 0.0 0
M  V30 75 C 0.0 -2.5 0.0 0
M  V30 END ATOM
M  V30 BEGIN BOND
M  V30 1 2 1 2
M  V30 2 1 2 3
M  V30 3 1 4 2
M  V30 4 1 3 5
M  V30 5 1 3 6
M  V30 6 1 4 7 CFG=1
M  V30 7 1 4 8
M  V30 8 1 5 9
M  V30 9 1 6 10
M  V30 10 1 7 11
M  V30 11 1 7 12
M  V30 12 1 8 13
M  V30 13 1 9 14
M  V30 14 2 11 15
M  V30 15 2 12 16
M  V30 16 2 13 17
M  V30 17 1 13 18
M  V30 18 1 14 19
M  V30 19 1 20 16
M  V30 20 1 17 21
M  V30 21 2 18 22
M  V30 22 2 19 23
M  V30 23 1 19 24
M  V30 24 1 20 25 CFG=3
M  V30 25 1 26 20
M  V30 26 2 21 27
M  V30 27 1 23 28
M  V30 28 2 24 29
M  V30 29 1 26 30
M  V30 30 1 26 31 CFG=1
M  V30 31 1 27 32
M  V30 32 2 28 33
M  V30 33 1 28 34
M  V30 34 1 29 35
M  V30 35 1 30 36
M  V30 36 1 34 37
M  V30 37 1 34 38
M  V30 38 1 35 39
M  V30 39 1 37 40
M  V30 40 1 38 41
M  V30 41 1 39 42
M  V30 42 1 40 43
M  V30 43 1 42 44
M  V30 44 1 43 45
M  V30 45 1 44 46
M  V30 46 2 45 47
M  V30 47 1 48 45
M  V30 48 1 46 49
M  V30 49 1 48 50 CFG=1
M  V30 50 1 48 51
M  V30 51 1 49 52
M  V30 52 1 50 53
M  V30 53 1 50 54
M  V30 54 1 51 55
M  V30 55 1 52 56
M  V30 56 2 53 57
M  V30 57 2 54 58
M  V30 58 2 55 59
M  V30 59 1 55 60
M  V30 60 1 56 61
M  V30 61 1 62 58
M  V30 62 1 59 63
M  V30 63 2 60 64
M  V30 64 1 61 65
M  V30 65 1 62 66 CFG=3
M  V30 66 1 67 62
M  V30 67 2 63 68
M  V30 68 1 65 69
M  V30 69 1 67 70
M  V30 70 1 67 71 CFG=1
M  V30 71 1 68 72
M  V30 72 1 69 73
M  V30 73 1 70 74
M  V30 74 3 73 75
M  V30 75 1 10 14
M  V30 76 1 15 16
M  V30 77 1 22 27
M  V30 78 1 29 33
M  V30 79 1 41 43
M  V30 80 1 57 58
M  V30 81 1 64 68
M  V30 END BOND
M  V30 BEGIN COLLECTION
M  V30 MDLV30/STEABS ATOMS=(6 4 20 26 48 62 67)
M  V30 END COLLECTION
M  V30 END CTAB
M  END
>  <Molecule Name>
Compound 334

>  <Molecule Name 2>
Compound 334

>  <Compound ID>
112

>  <Name>
IY-IY-TEG

>  <Uniprot>
Q16288

>  <Target>
TRKC

>  <Smiles>
C#CCOCCOCCOCCNC1=NC(N2CCN(C(=O)[C@H](CC3=CC=C(O)C=C3)N3C=C([C@@H](N)[C@@H](C)CC)N=N3)CC2)=NC(N2CCN(C(=O)[C@H](CC3=CC=C(O)C=C3)N3C=C([C@@H](N)[C@@H](C)CC)N=N3)CC2)=N1

>  <Kd (nM)>
112

>  <Assay (Kd)>
Kd was determined via a cell-based assay

>  <Ki (nM)>


>  <Assay (Ki)>


>  <IC50 (nM)>


>  <Assay (IC50)>


>  <EC50 (nM)>


>  <Assay (EC50)>


>  <Article DOI>
10.1021/acs.bioconjchem.8b00340

>  <Molecular Weight>
1035.269

>  <Exact Mass>
1034.592639

>  <XLogP3>
3.11

>  <Heavy Atom Count>
75

>  <Ring Count>
7

>  <Hydrogen Bond Acceptor Count>
21

>  <Hydrogen Bond Donor Count>
5

>  <Rotatable Bond Count>
27

>  <Topological Polar Surface Area>
279.41

>  <Molecular Formula>
C52H74N16O7

>  <InChI>
InChI=1S/C52H74N16O7/c1-6-26-73-28-30-75-31-29-74-27-17-55-50-56-51(65-22-18-63(19-23-65)48(71)44(32-38-9-13-40(69)14-10-38)67-34-42(59-61-67)46(53)36(4)7-2)58-52(57-50)66-24-20-64(21-25-66)49(72)45(33-39-11-15-41(70)16-12-39)68-35-43(60-62-68)47(54)37(5)8-3/h1,9-16,34-37,44-47,69-70H,7-8,17-33,53-54H2,2-5H3,(H,55,56,57,58)/t36-,37-,44-,45-,46-,47-/m0/s1

>  <InChI Key>
ZAYRSYRBEBTRDO-ZGLAXZLGSA-N

>  <BindingDB>


>  <PubChem>
71453978

>  <ChEMBL>
CHEMBL2203448

$$$$
113
Actelion Java MolfileCreator 2.0

  0  0  0  0  0  0              0 V3000
M  V30 BEGIN CTAB
M  V30 COUNTS 43 48 0 0 0
M  V30 BEGIN ATOM
M  V30 1 S 2.7026 0.9945 0.0 0
M  V30 2 C 2.598 0.0 0.0 0
M  V30 3 C 3.6807 1.2024 0.0 0
M  V30 4 N 3.5116 -0.4067 0.0 0
M  V30 5 N 1.732 -0.5 0.0 0
M  V30 6 N 4.1807 2.0684 0.0 0
M  V30 7 C 4.1807 0.3364 0.0 0
M  V30 8 C 0.866 0.0 0.0 0
M  V30 9 C 5.1807 2.0684 0.0 0
M  V30 10 C 5.1807 0.3364 0.0 0
M  V30 11 O 0.866 1.0 0.0 0
M  V30 12 C 0.0 -0.5 0.0 0
M  V30 13 C 5.6807 2.9344 0.0 0
M  V30 14 C 5.6807 1.2024 0.0 0
M  V30 15 C -1.0 -0.4999 0.0 0
M  V30 16 C -0.5 -1.366 0.0 0
M  V30 17 C 6.6807 2.9344 0.0 0
M  V30 18 C 5.1807 3.8005 0.0 0
M  V30 19 C 7.1807 3.8005 0.0 0
M  V30 20 C 5.6807 4.6665 0.0 0
M  V30 21 C 8.1807 3.8005 0.0 0
M  V30 22 C 6.6807 4.6665 0.0 0
M  V30 23 O 8.6807 4.6665 0.0 0
M  V30 24 N 8.6807 2.9344 0.0 0
M  V30 25 C 9.6807 2.9344 0.0 0
M  V30 26 C 10.1807 2.0684 0.0 0
M  V30 27 C 10.1807 3.8005 0.0 0
M  V30 28 C 11.1807 2.0684 0.0 0
M  V30 29 C 11.1807 3.8005 0.0 0
M  V30 30 C 11.6807 2.9344 0.0 0
M  V30 31 C 11.6807 1.2024 0.0 0
M  V30 32 C 12.6807 2.9344 0.0 0
M  V30 33 F 12.5467 1.7024 0.0 0
M  V30 34 F 12.1807 0.3364 0.0 0
M  V30 35 F 10.8147 0.7024 0.0 0
M  V30 36 N 13.1807 3.8005 0.0 0
M  V30 37 C 14.1807 3.8005 0.0 0
M  V30 38 C 12.6807 4.6665 0.0 0
M  V30 39 C 14.6807 4.6665 0.0 0
M  V30 40 C 13.1807 5.5325 0.0 0
M  V30 41 N 14.1807 5.5325 0.0 0
M  V30 42 C 14.6807 6.3985 0.0 0
M  V30 43 C 14.1807 7.2646 0.0 0
M  V30 END ATOM
M  V30 BEGIN BOND
M  V30 1 1 1 2
M  V30 2 1 1 3
M  V30 3 2 2 4
M  V30 4 1 2 5
M  V30 5 2 3 6
M  V30 6 1 3 7
M  V30 7 1 5 8
M  V30 8 1 6 9
M  V30 9 2 7 10
M  V30 10 2 8 11
M  V30 11 1 8 12
M  V30 12 1 9 13
M  V30 13 2 9 14
M  V30 14 1 12 15
M  V30 15 1 12 16
M  V30 16 2 13 17
M  V30 17 1 13 18
M  V30 18 1 17 19
M  V30 19 2 18 20
M  V30 20 1 19 21
M  V30 21 2 19 22
M  V30 22 2 21 23
M  V30 23 1 21 24
M  V30 24 1 24 25
M  V30 25 2 25 26
M  V30 26 1 25 27
M  V30 27 1 26 28
M  V30 28 2 27 29
M  V30 29 2 28 30
M  V30 30 1 28 31
M  V30 31 1 30 32
M  V30 32 1 31 33
M  V30 33 1 31 34
M  V30 34 1 31 35
M  V30 35 1 32 36
M  V30 36 1 36 37
M  V30 37 1 36 38
M  V30 38 1 37 39
M  V30 39 1 38 40
M  V30 40 1 39 41
M  V30 41 1 41 42
M  V30 42 1 42 43
M  V30 43 1 4 7
M  V30 44 1 10 14
M  V30 45 1 15 16
M  V30 46 1 20 22
M  V30 47 1 29 30
M  V30 48 1 40 41
M  V30 END BOND
M  V30 END CTAB
M  END
>  <Molecule Name>
Compound 335

>  <Molecule Name 2>
Compound 335

>  <Compound ID>
113

>  <Name>
HG-7-85-01

>  <Uniprot>


>  <Target>
BCR-ABL

>  <Smiles>
CCN1CCN(CC2=CC=C(NC(=O)C3=CC=CC(C4=CC=C5N=C(NC(=O)C6CC6)SC5=N4)=C3)C=C2C(F)(F)F)CC1

>  <Kd (nM)>
3.3

>  <Assay (Kd)>
KINOMEscan

>  <Ki (nM)>


>  <Assay (Ki)>


>  <IC50 (nM)>


>  <Assay (IC50)>


>  <EC50 (nM)>


>  <Assay (EC50)>


>  <Article DOI>


>  <Molecular Weight>
608.69

>  <Exact Mass>
608.2181299

>  <XLogP3>
5

>  <Heavy Atom Count>
43

>  <Ring Count>
6

>  <Hydrogen Bond Acceptor Count>
7

>  <Hydrogen Bond Donor Count>
2

>  <Rotatable Bond Count>
8

>  <Topological Polar Surface Area>
90.46

>  <Molecular Formula>
C31H31F3N6O2S

>  <InChI>
InChI=1S/C31H31F3N6O2S/c1-2-39-12-14-40(15-13-39)18-22-8-9-23(17-24(22)31(32,33)34)35-28(42)21-5-3-4-20(16-21)25-10-11-26-29(36-25)43-30(37-26)38-27(41)19-6-7-19/h3-5,8-11,16-17,19H,2,6-7,12-15,18H2,1H3,(H,35,42)(H,37,38,41)

>  <InChI Key>
VTWWRKFUHCSCEW-UHFFFAOYSA-N

>  <BindingDB>
124970

>  <PubChem>
51359962

>  <ChEMBL>
CHEMBL2148124

$$$$
114
Actelion Java MolfileCreator 2.0

  0  0  0  0  0  0              0 V3000
M  V30 BEGIN CTAB
M  V30 COUNTS 34 37 0 0 0
M  V30 BEGIN ATOM
M  V30 1 Cl 6.5621 1.866 0.0 0
M  V30 2 C 6.0621 1.0 0.0 0
M  V30 3 F 6.9282 0.5 0.0 0
M  V30 4 F 5.5621 0.1339 0.0 0
M  V30 5 O 5.1961 1.5 0.0 0
M  V30 6 C 4.3301 1.0 0.0 0
M  V30 7 C 3.4641 1.5 0.0 0
M  V30 8 C 4.3301 0.0 0.0 0
M  V30 9 C 2.598 0.9999 0.0 0
M  V30 10 C 3.4641 -0.4999 0.0 0
M  V30 11 C 2.598 0.0 0.0 0
M  V30 12 N 1.732 -0.5 0.0 0
M  V30 13 C 0.866 0.0 0.0 0
M  V30 14 O 0.866 1.0 0.0 0
M  V30 15 C 0.0 -0.5 0.0 0
M  V30 16 C -0.866 0.0 0.0 0
M  V30 17 C 0.0 -1.4999 0.0 0
M  V30 18 N -1.732 -0.4999 0.0 0
M  V30 19 C -0.866 -1.9999 0.0 0
M  V30 20 C -1.732 -1.4999 0.0 0
M  V30 21 C -0.866 -2.9999 0.0 0
M  V30 22 N -2.598 -1.9999 0.0 0
M  V30 23 N -1.675 -3.5877 0.0 0
M  V30 24 C -0.057 -3.5877 0.0 0
M  V30 25 C -3.5116 -1.5932 0.0 0
M  V30 26 C -2.7026 -2.9945 0.0 0
M  V30 27 N -1.366 -4.5388 0.0 0
M  V30 28 C -0.366 -4.5388 0.0 0
M  V30 29 C -4.1807 -2.3364 0.0 0 CFG=2
M  V30 30 C -3.6807 -3.2024 0.0 0
M  V30 31 C -5.1752 -2.2318 0.0 0
M  V30 32 O -5.763 -3.0408 0.0 0
M  V30 33 O -5.582 -1.3183 0.0 0
M  V30 34 C -6.5765 -1.2138 0.0 0
M  V30 END ATOM
M  V30 BEGIN BOND
M  V30 1 1 1 2
M  V30 2 1 2 3
M  V30 3 1 2 4
M  V30 4 1 2 5
M  V30 5 1 5 6
M  V30 6 2 6 7
M  V30 7 1 6 8
M  V30 8 1 7 9
M  V30 9 2 8 10
M  V30 10 2 9 11
M  V30 11 1 11 12
M  V30 12 1 12 13
M  V30 13 2 13 14
M  V30 14 1 13 15
M  V30 15 2 15 16
M  V30 16 1 15 17
M  V30 17 1 16 18
M  V30 18 2 17 19
M  V30 19 2 18 20
M  V30 20 1 19 21
M  V30 21 1 20 22
M  V30 22 1 21 23
M  V30 23 2 21 24
M  V30 24 1 22 25
M  V30 25 1 22 26
M  V30 26 1 23 27
M  V30 27 1 24 28
M  V30 28 1 29 25
M  V30 29 1 26 30
M  V30 30 1 29 31 CFG=3
M  V30 31 2 31 32
M  V30 32 1 31 33
M  V30 33 1 33 34
M  V30 34 1 10 11
M  V30 35 1 19 20
M  V30 36 2 27 28
M  V30 37 1 29 30
M  V30 END BOND
M  V30 BEGIN COLLECTION
M  V30 MDLV30/STERAC1 ATOMS=(1 29)
M  V30 END COLLECTION
M  V30 END CTAB
M  END
>  <Molecule Name>
Compound 336

>  <Molecule Name 2>
Compound 336

>  <Compound ID>
114

>  <Name>
ABL001 derivative

>  <Uniprot>


>  <Target>
BCR-ABL

>  <Smiles>
COC(=O)C1CCN(C2=NC=C(C(=O)NC3=CC=C(OC(F)(F)Cl)C=C3)C=C2C2=CC=N[NH]2)C1

>  <Kd (nM)>


>  <Assay (Kd)>


>  <Ki (nM)>


>  <Assay (Ki)>


>  <IC50 (nM)>
35

>  <Assay (IC50)>
IC50 was tested by the TR-FRET assay

>  <EC50 (nM)>


>  <Assay (EC50)>


>  <Article DOI>
10.1021/acsmedchemlett.7b00247

>  <Molecular Weight>
491.882

>  <Exact Mass>
491.1171882

>  <XLogP3>
3.52

>  <Heavy Atom Count>
34

>  <Ring Count>
4

>  <Hydrogen Bond Acceptor Count>
7

>  <Hydrogen Bond Donor Count>
2

>  <Rotatable Bond Count>
7

>  <Topological Polar Surface Area>
109.44

>  <Molecular Formula>
C22H20ClF2N5O4

>  <InChI>
InChI=1S/C22H20ClF2N5O4/c1-33-21(32)13-7-9-30(12-13)19-17(18-6-8-27-29-18)10-14(11-26-19)20(31)28-15-2-4-16(5-3-15)34-22(23,24)25/h2-6,8,10-11,13H,7,9,12H2,1H3,(H,27,29)(H,28,31)

>  <InChI Key>
WPYMGKMEOVWOFZ-UHFFFAOYSA-N

>  <BindingDB>
50279265

>  <PubChem>
72545853

>  <ChEMBL>
CHEMBL4162041

$$$$
115
Actelion Java MolfileCreator 2.0

  0  0  0  0  0  0              0 V3000
M  V30 BEGIN CTAB
M  V30 COUNTS 20 23 0 0 0
M  V30 BEGIN ATOM
M  V30 1 O 1.4931 5.9671 0.0 0
M  V30 2 C 1.3886 4.9726 0.0 0
M  V30 3 C 2.1976 4.3848 0.0 0
M  V30 4 C 0.4751 4.5658 0.0 0
M  V30 5 C 2.0931 3.3903 0.0 0
M  V30 6 C 0.3705 3.5713 0.0 0
M  V30 7 C 1.1796 2.9835 0.0 0
M  V30 8 C 2.9021 2.8025 0.0 0
M  V30 9 C 1.075 1.989 0.0 0 CFG=2
M  V30 10 C 2.7976 1.8079 0.0 0
M  V30 11 C 1.884 1.4012 0.0 0 CFG=1
M  V30 12 C 0.1615 1.5823 0.0 0
M  V30 13 C 1.7795 0.4067 0.0 0 CFG=1
M  V30 14 C 0.057 0.5877 0.0 0
M  V30 15 C 0.866 0.0 0.0 0 CFG=2
M  V30 16 C 2.4487 -0.3364 0.0 0
M  V30 17 C 0.9705 -0.9945 0.0 0 CFG=2
M  V30 18 C 0.0 -0.5 0.0 0
M  V30 19 C 1.9487 -1.2024 0.0 0
M  V30 20 O 0.2274 -1.6636 0.0 0
M  V30 END ATOM
M  V30 BEGIN BOND
M  V30 1 1 1 2
M  V30 2 2 2 3
M  V30 3 1 2 4
M  V30 4 1 3 5
M  V30 5 2 4 6
M  V30 6 2 5 7
M  V30 7 1 5 8
M  V30 8 1 9 7
M  V30 9 1 8 10
M  V30 10 1 11 9
M  V30 11 1 9 12 CFG=3
M  V30 12 1 13 11
M  V30 13 1 12 14
M  V30 14 1 15 13
M  V30 15 1 13 16 CFG=3
M  V30 16 1 17 15
M  V30 17 1 15 18 CFG=3
M  V30 18 1 16 19
M  V30 19 1 17 20 CFG=3
M  V30 20 1 6 7
M  V30 21 1 11 10 CFG=1
M  V30 22 1 14 15
M  V30 23 1 17 19
M  V30 END BOND
M  V30 BEGIN COLLECTION
M  V30 MDLV30/STEABS ATOMS=(5 9 11 13 15 17)
M  V30 END COLLECTION
M  V30 END CTAB
M  END
>  <Molecule Name>
Compound 337

>  <Molecule Name 2>
Compound 337

>  <Compound ID>
115

>  <Name>
Estradiol

>  <Uniprot>
P03372

>  <Target>
ER

>  <Smiles>
C[C@]12CC[C@@H]3C4=CC=C(O)C=C4CC[C@H]3[C@@H]1CC[C@@H]2O

>  <Kd (nM)>
0.2/0.5

>  <Assay (Kd)>
Kd of ERalpha/ERbeta was determined by Scatchard analysis

>  <Ki (nM)>


>  <Assay (Ki)>


>  <IC50 (nM)>


>  <Assay (IC50)>


>  <EC50 (nM)>


>  <Assay (EC50)>


>  <Article DOI>
10.1021/jm400157e

>  <Molecular Weight>
272.388

>  <Exact Mass>
272.17763

>  <XLogP3>
4.01

>  <Heavy Atom Count>
20

>  <Ring Count>
4

>  <Hydrogen Bond Acceptor Count>
2

>  <Hydrogen Bond Donor Count>
2

>  <Rotatable Bond Count>
0

>  <Topological Polar Surface Area>
40.46

>  <Molecular Formula>
C18H24O2

>  <InChI>
InChI=1S/C18H24O2/c1-18-9-8-14-13-5-3-12(19)10-11(13)2-4-15(14)16(18)6-7-17(18)20/h3,5,10,14-17,19-20H,2,4,6-9H2,1H3/t14-,15-,16+,17+,18+/m1/s1

>  <InChI Key>
VOXZDWNPVJITMN-ZBRFXRBCSA-N

>  <BindingDB>
17292

>  <PubChem>
5757

>  <ChEMBL>
CHEMBL135

$$$$
116
Actelion Java MolfileCreator 2.0

  0  0  0  0  0  0              0 V3000
M  V30 BEGIN CTAB
M  V30 COUNTS 32 34 0 0 0
M  V30 BEGIN ATOM
M  V30 1 Cl 12.9903 1.0 0.0 0
M  V30 2 C 12.9903 0.0 0.0 0
M  V30 3 C 12.1243 -0.4999 0.0 0
M  V30 4 C 13.8564 -0.4999 0.0 0
M  V30 5 N 11.2583 0.0 0.0 0
M  V30 6 C 12.1243 -1.4999 0.0 0
M  V30 7 N 13.8564 -1.4999 0.0 0
M  V30 8 C 10.3923 -0.4999 0.0 0
M  V30 9 Cl 11.2583 -1.9999 0.0 0
M  V30 10 C 12.9903 -1.9999 0.0 0
M  V30 11 C 9.5262 0.0 0.0 0
M  V30 12 C 10.3923 -1.4999 0.0 0
M  V30 13 C 8.6602 -0.4999 0.0 0
M  V30 14 C 9.5262 1.0 0.0 0
M  V30 15 C 9.5262 -1.9999 0.0 0
M  V30 16 O 8.6602 -1.4999 0.0 0
M  V30 17 C 7.7942 0.0 0.0 0
M  V30 18 C 8.6602 1.5 0.0 0
M  V30 19 O 9.5262 -2.9999 0.0 0
M  V30 20 O 6.9282 -0.5 0.0 0
M  V30 21 C 7.7942 1.0 0.0 0
M  V30 22 C 6.0621 0.0 0.0 0
M  V30 23 O 6.9282 1.5 0.0 0
M  V30 24 C 5.1961 -0.5 0.0 0
M  V30 25 C 6.0621 1.0 0.0 0
M  V30 26 C 4.3301 0.0 0.0 0
M  V30 27 C 3.4641 -0.5 0.0 0
M  V30 28 C 2.598 0.0 0.0 0
M  V30 29 C 1.732 -0.5 0.0 0
M  V30 30 C 0.866 0.0 0.0 0
M  V30 31 O 0.866 1.0 0.0 0
M  V30 32 O 0.0 -0.5 0.0 0
M  V30 END ATOM
M  V30 BEGIN BOND
M  V30 1 1 1 2
M  V30 2 2 2 3
M  V30 3 1 2 4
M  V30 4 1 3 5
M  V30 5 1 3 6
M  V30 6 2 4 7
M  V30 7 1 5 8
M  V30 8 1 6 9
M  V30 9 2 6 10
M  V30 10 1 8 11
M  V30 11 2 8 12
M  V30 12 2 11 13
M  V30 13 1 11 14
M  V30 14 1 12 15
M  V30 15 1 13 16
M  V30 16 1 13 17
M  V30 17 2 14 18
M  V30 18 2 15 19
M  V30 19 1 17 20
M  V30 20 2 17 21
M  V30 21 1 20 22
M  V30 22 1 21 23
M  V30 23 1 22 24
M  V30 24 1 23 25
M  V30 25 1 24 26
M  V30 26 1 26 27
M  V30 27 1 27 28
M  V30 28 1 28 29
M  V30 29 1 29 30
M  V30 30 2 30 31
M  V30 31 1 30 32
M  V30 32 1 7 10
M  V30 33 1 15 16
M  V30 34 1 18 21
M  V30 END BOND
M  V30 END CTAB
M  END
>  <Molecule Name>
Compound 338

>  <Molecule Name 2>
Compound 338

>  <Compound ID>
116

>  <Name>


>  <Uniprot>


>  <Target>
PDE4

>  <Smiles>
COC1=CC=C2C(NC3=C(Cl)C=NC=C3Cl)=CC(=O)OC2=C1OCCCCCCC(=O)O

>  <Kd (nM)>


>  <Assay (Kd)>


>  <Ki (nM)>


>  <Assay (Ki)>


>  <IC50 (nM)>
2

>  <Assay (IC50)>
IC50 of PDE4B

>  <EC50 (nM)>


>  <Assay (EC50)>


>  <Article DOI>
10.1016/j.bmcl.2010.03.023

>  <Molecular Weight>
481.332

>  <Exact Mass>
480.0854918

>  <XLogP3>
4.41

>  <Heavy Atom Count>
32

>  <Ring Count>
3

>  <Hydrogen Bond Acceptor Count>
7

>  <Hydrogen Bond Donor Count>
2

>  <Rotatable Bond Count>
11

>  <Topological Polar Surface Area>
110.89

>  <Molecular Formula>
C22H22Cl2N2O6

>  <InChI>
InChI=1S/C22H22Cl2N2O6/c1-30-17-8-7-13-16(26-20-14(23)11-25-12-15(20)24)10-19(29)32-21(13)22(17)31-9-5-3-2-4-6-18(27)28/h7-8,10-12H,2-6,9H2,1H3,(H,25,26)(H,27,28)

>  <InChI Key>
XKLHWRFMIJUKEU-UHFFFAOYSA-N

>  <BindingDB>
50317608

>  <PubChem>
24849846

>  <ChEMBL>
CHEMBL1098818

$$$$
117
Actelion Java MolfileCreator 2.0

  0  0  0  0  0  0              0 V3000
M  V30 BEGIN CTAB
M  V30 COUNTS 24 26 0 0 0
M  V30 BEGIN ATOM
M  V30 1 N 4.8484 -6.2701 0.0 0
M  V30 2 C 4.4416 -5.3566 0.0 0
M  V30 3 C 4.0349 -4.443 0.0 0
M  V30 4 C 4.6227 -3.634 0.0 0
M  V30 5 C 3.0404 -4.3385 0.0 0
M  V30 6 C 4.2159 -2.7205 0.0 0
M  V30 7 C 2.6336 -3.4249 0.0 0
M  V30 8 C 3.2214 -2.6159 0.0 0
M  V30 9 C 2.8147 -1.7024 0.0 0
M  V30 10 C 3.3147 -0.8364 0.0 0
M  V30 11 C 1.8365 -1.4945 0.0 0
M  V30 12 C 4.3092 -0.7318 0.0 0
M  V30 13 C 2.6455 -0.0932 0.0 0
M  V30 14 N 1.732 -0.5 0.0 0
M  V30 15 C 1.0934 -2.1636 0.0 0
M  V30 16 N 5.3037 -0.6273 0.0 0
M  V30 17 C 2.8535 0.8848 0.0 0
M  V30 18 C 0.866 0.0 0.0 0
M  V30 19 C 0.0 -0.5 0.0 0
M  V30 20 C -0.866 0.0 0.0 0
M  V30 21 C 0.0 -1.4999 0.0 0
M  V30 22 C -1.732 -0.4999 0.0 0
M  V30 23 C -0.866 -1.9999 0.0 0
M  V30 24 C -1.732 -1.4999 0.0 0
M  V30 END ATOM
M  V30 BEGIN BOND
M  V30 1 3 1 2
M  V30 2 1 2 3
M  V30 3 2 3 4
M  V30 4 1 3 5
M  V30 5 1 4 6
M  V30 6 2 5 7
M  V30 7 2 6 8
M  V30 8 1 8 9
M  V30 9 1 9 10
M  V30 10 2 9 11
M  V30 11 1 10 12
M  V30 12 2 10 13
M  V30 13 1 11 14
M  V30 14 1 11 15
M  V30 15 3 12 16
M  V30 16 1 13 17
M  V30 17 1 14 18
M  V30 18 1 18 19
M  V30 19 2 19 20
M  V30 20 1 19 21
M  V30 21 1 20 22
M  V30 22 2 21 23
M  V30 23 2 22 24
M  V30 24 1 7 8
M  V30 25 1 13 14
M  V30 26 1 23 24
M  V30 END BOND
M  V30 END CTAB
M  END
>  <Molecule Name>
Compound 339

>  <Molecule Name 2>
Compound 339

>  <Compound ID>
117

>  <Name>


>  <Uniprot>
P10275

>  <Target>
AR

>  <Smiles>
CC1=C(C#N)C(C2=CC=C(C#N)C=C2)=C(C)N1CC1=CC=CC=C1

>  <Kd (nM)>


>  <Assay (Kd)>


>  <Ki (nM)>


>  <Assay (Ki)>


>  <IC50 (nM)>
1.4/3

>  <Assay (IC50)>
IC50 of AR WT/T877A

>  <EC50 (nM)>


>  <Assay (EC50)>


>  <Article DOI>
10.1016/j.bmc.2011.10.067

>  <Molecular Weight>
311.388

>  <Exact Mass>
311.1422475

>  <XLogP3>
4.12

>  <Heavy Atom Count>
24

>  <Ring Count>
3

>  <Hydrogen Bond Acceptor Count>
3

>  <Hydrogen Bond Donor Count>
0

>  <Rotatable Bond Count>
3

>  <Topological Polar Surface Area>
52.51

>  <Molecular Formula>
C21H17N3

>  <InChI>
InChI=1S/C21H17N3/c1-15-20(13-23)21(19-10-8-17(12-22)9-11-19)16(2)24(15)14-18-6-4-3-5-7-18/h3-11H,14H2,1-2H3

>  <InChI Key>
ADPDINVHVCYFSE-UHFFFAOYSA-N

>  <BindingDB>
50360442

>  <PubChem>
56837418

>  <ChEMBL>
CHEMBL1934442

$$$$
118
Actelion Java MolfileCreator 2.0

  0  0  0  0  0  0              0 V3000
M  V30 BEGIN CTAB
M  V30 COUNTS 27 29 0 0 0
M  V30 BEGIN ATOM
M  V30 1 F 6.4951 -3.0 0.0 0
M  V30 2 C 5.1961 -2.2499 0.0 0
M  V30 3 C 5.1961 -0.75 0.0 0
M  V30 4 C 3.8971 -2.9999 0.0 0
M  V30 5 C 3.8971 0.0 0.0 0
M  V30 6 C 2.598 -2.25 0.0 0
M  V30 7 C 2.598 -0.75 0.0 0
M  V30 8 C 1.299 0.0 0.0 0
M  V30 9 C 0.0 -0.75 0.0 0
M  V30 10 C -1.3703 -0.1398 0.0 0
M  V30 11 C -0.1567 -2.2417 0.0 0
M  V30 12 N -2.374 -1.2546 0.0 0
M  V30 13 C -1.6821 1.3273 0.0 0
M  V30 14 N -1.624 -2.5536 0.0 0
M  V30 15 C 0.9579 -3.2454 0.0 0
M  V30 16 C -2.2341 -3.9239 0.0 0
M  V30 17 C -3.7259 -4.0807 0.0 0
M  V30 18 C -1.3524 -5.1374 0.0 0
M  V30 19 C -4.336 -5.451 0.0 0
M  V30 20 C -1.9625 -6.5078 0.0 0
M  V30 21 C -3.4543 -6.6646 0.0 0
M  V30 22 C -5.8277 -5.6078 0.0 0
M  V30 23 C -4.0644 -8.0349 0.0 0
M  V30 24 F -5.6709 -7.0996 0.0 0
M  V30 25 F -7.3195 -5.7646 0.0 0
M  V30 26 F -5.9845 -4.116 0.0 0
M  V30 27 N -4.6745 -9.4052 0.0 0
M  V30 END ATOM
M  V30 BEGIN BOND
M  V30 1 1 1 2
M  V30 2 2 2 3
M  V30 3 1 2 4
M  V30 4 1 3 5
M  V30 5 2 4 6
M  V30 6 2 5 7
M  V30 7 1 7 8
M  V30 8 1 8 9
M  V30 9 1 9 10
M  V30 10 2 9 11
M  V30 11 2 10 12
M  V30 12 1 10 13
M  V30 13 1 11 14
M  V30 14 1 11 15
M  V30 15 1 14 16
M  V30 16 2 16 17
M  V30 17 1 16 18
M  V30 18 1 17 19
M  V30 19 2 18 20
M  V30 20 2 19 21
M  V30 21 1 19 22
M  V30 22 1 21 23
M  V30 23 1 22 24
M  V30 24 1 22 25
M  V30 25 1 22 26
M  V30 26 3 23 27
M  V30 27 1 6 7
M  V30 28 1 12 14
M  V30 29 1 20 21
M  V30 END BOND
M  V30 END CTAB
M  END
>  <Molecule Name>
Compound 340

>  <Molecule Name 2>
Compound 340

>  <Compound ID>
118

>  <Name>


>  <Uniprot>
P10275

>  <Target>
AR

>  <Smiles>
CC1=NN(C2=CC=C(C#N)C(C(F)(F)F)=C2)C(C)=C1CC1=CC=C(F)C=C1

>  <Kd (nM)>


>  <Assay (Kd)>


>  <Ki (nM)>


>  <Assay (Ki)>


>  <IC50 (nM)>
1.4/0.95

>  <Assay (IC50)>
IC50 of AR WT/T877A

>  <EC50 (nM)>


>  <Assay (EC50)>


>  <Article DOI>
10.1016/j.bmc.2012.02.005

>  <Molecular Weight>
373.353

>  <Exact Mass>
373.1202104

>  <XLogP3>
5.32

>  <Heavy Atom Count>
27

>  <Ring Count>
3

>  <Hydrogen Bond Acceptor Count>
3

>  <Hydrogen Bond Donor Count>
0

>  <Rotatable Bond Count>
3

>  <Topological Polar Surface Area>
41.61

>  <Molecular Formula>
C20H15F4N3

>  <InChI>
InChI=1S/C20H15F4N3/c1-12-18(9-14-3-6-16(21)7-4-14)13(2)27(26-12)17-8-5-15(11-25)19(10-17)20(22,23)24/h3-8,10H,9H2,1-2H3

>  <InChI Key>
ANRVJQZMCWCTRO-UHFFFAOYSA-N

>  <BindingDB>
50366208

>  <PubChem>
57401854

>  <ChEMBL>
CHEMBL1957613

$$$$
119
Actelion Java MolfileCreator 2.0

  0  0  0  0  0  0              0 V3000
M  V30 BEGIN CTAB
M  V30 COUNTS 25 27 0 0 0
M  V30 BEGIN ATOM
M  V30 1 Cl 10.4749 -2.5496 0.0 0
M  V30 2 C 9.8647 -1.1792 0.0 0
M  V30 3 C 10.7464 0.0342 0.0 0
M  V30 4 C 8.373 -1.0224 0.0 0
M  V30 5 C 12.2382 -0.1225 0.0 0
M  V30 6 C 10.1363 1.4045 0.0 0
M  V30 7 C 7.7629 0.3478 0.0 0
M  V30 8 N 13.73 -0.2793 0.0 0
M  V30 9 C 8.6445 1.5613 0.0 0
M  V30 10 N 6.2711 0.5046 0.0 0
M  V30 11 N 5.5211 1.8036 0.0 0
M  V30 12 C 5.2674 -0.6101 0.0 0
M  V30 13 C 4.0539 1.4917 0.0 0
M  V30 14 C 3.8971 0.0 0.0 0
M  V30 15 C 5.5793 -2.0773 0.0 0
M  V30 16 C 2.9391 2.4954 0.0 0
M  V30 17 C 2.598 -0.75 0.0 0
M  V30 18 C 1.299 0.0 0.0 0
M  V30 19 C 0.0 -0.75 0.0 0
M  V30 20 C -1.299 0.0 0.0 0
M  V30 21 C 0.0 -2.2499 0.0 0
M  V30 22 C -2.598 -0.7499 0.0 0
M  V30 23 C -1.299 -2.9999 0.0 0
M  V30 24 C -2.598 -2.2499 0.0 0
M  V30 25 F -3.8971 -2.9999 0.0 0
M  V30 END ATOM
M  V30 BEGIN BOND
M  V30 1 1 1 2
M  V30 2 2 2 3
M  V30 3 1 2 4
M  V30 4 1 3 5
M  V30 5 1 3 6
M  V30 6 2 4 7
M  V30 7 3 5 8
M  V30 8 2 6 9
M  V30 9 1 7 10
M  V30 10 1 10 11
M  V30 11 1 10 12
M  V30 12 2 11 13
M  V30 13 2 12 14
M  V30 14 1 12 15
M  V30 15 1 13 16
M  V30 16 1 14 17
M  V30 17 1 17 18
M  V30 18 1 18 19
M  V30 19 2 19 20
M  V30 20 1 19 21
M  V30 21 1 20 22
M  V30 22 2 21 23
M  V30 23 2 22 24
M  V30 24 1 24 25
M  V30 25 1 7 9
M  V30 26 1 13 14
M  V30 27 1 23 24
M  V30 END BOND
M  V30 END CTAB
M  END
>  <Molecule Name>
Compound 341

>  <Molecule Name 2>
Compound 341

>  <Compound ID>
119

>  <Name>


>  <Uniprot>
P10275

>  <Target>
AR

>  <Smiles>
CC1=NN(C2=CC=C(C#N)C(Cl)=C2)C(C)=C1CCC1=CC=C(F)C=C1

>  <Kd (nM)>


>  <Assay (Kd)>


>  <Ki (nM)>


>  <Assay (Ki)>


>  <IC50 (nM)>
53/18

>  <Assay (IC50)>
IC50 of AR WT/T877A

>  <EC50 (nM)>


>  <Assay (EC50)>


>  <Article DOI>
10.1016/j.bmc.2012.02.005

>  <Molecular Weight>
353.828

>  <Exact Mass>
353.1095034

>  <XLogP3>
5.36

>  <Heavy Atom Count>
25

>  <Ring Count>
3

>  <Hydrogen Bond Acceptor Count>
3

>  <Hydrogen Bond Donor Count>
0

>  <Rotatable Bond Count>
4

>  <Topological Polar Surface Area>
41.61

>  <Molecular Formula>
C20H17ClFN3

>  <InChI>
InChI=1S/C20H17ClFN3/c1-13-19(10-5-15-3-7-17(22)8-4-15)14(2)25(24-13)18-9-6-16(12-23)20(21)11-18/h3-4,6-9,11H,5,10H2,1-2H3

>  <InChI Key>
CUFOUBWWDMDBOO-UHFFFAOYSA-N

>  <BindingDB>
50366212

>  <PubChem>
57400047

>  <ChEMBL>
CHEMBL1957617

$$$$
120
Actelion Java MolfileCreator 2.0

  0  0  0  0  0  0              0 V3000
M  V30 BEGIN CTAB
M  V30 COUNTS 24 26 0 0 0
M  V30 BEGIN ATOM
M  V30 1 Cl 4.8037 -1.9114 0.0 0
M  V30 2 C 4.2159 -2.7205 0.0 0
M  V30 3 C 3.2214 -2.6159 0.0 0
M  V30 4 C 4.6227 -3.634 0.0 0
M  V30 5 N 2.8147 -1.7024 0.0 0
M  V30 6 C 2.6336 -3.4249 0.0 0
M  V30 7 C 4.0349 -4.443 0.0 0
M  V30 8 N 3.3147 -0.8364 0.0 0
M  V30 9 C 1.8365 -1.4945 0.0 0
M  V30 10 C 3.0404 -4.3385 0.0 0
M  V30 11 C 4.4416 -5.3566 0.0 0
M  V30 12 C 2.6455 -0.0932 0.0 0
M  V30 13 C 1.732 -0.5 0.0 0
M  V30 14 C 1.0934 -2.1636 0.0 0
M  V30 15 N 4.8484 -6.2701 0.0 0
M  V30 16 C 2.8535 0.8848 0.0 0
M  V30 17 C 0.866 0.0 0.0 0
M  V30 18 C 0.0 -0.5 0.0 0
M  V30 19 C -0.866 0.0 0.0 0
M  V30 20 C 0.0 -1.4999 0.0 0
M  V30 21 C -1.732 -0.4999 0.0 0
M  V30 22 C -0.866 -1.9999 0.0 0
M  V30 23 C -1.732 -1.4999 0.0 0
M  V30 24 F -2.598 -1.9999 0.0 0
M  V30 END ATOM
M  V30 BEGIN BOND
M  V30 1 1 1 2
M  V30 2 2 2 3
M  V30 3 1 2 4
M  V30 4 1 3 5
M  V30 5 1 3 6
M  V30 6 2 4 7
M  V30 7 1 5 8
M  V30 8 1 5 9
M  V30 9 2 6 10
M  V30 10 1 7 11
M  V30 11 2 8 12
M  V30 12 2 9 13
M  V30 13 1 9 14
M  V30 14 3 11 15
M  V30 15 1 12 16
M  V30 16 1 13 17
M  V30 17 1 17 18
M  V30 18 2 18 19
M  V30 19 1 18 20
M  V30 20 1 19 21
M  V30 21 2 20 22
M  V30 22 2 21 23
M  V30 23 1 23 24
M  V30 24 1 7 10
M  V30 25 1 12 13
M  V30 26 1 22 23
M  V30 END BOND
M  V30 END CTAB
M  END
>  <Molecule Name>
Compound 342

>  <Molecule Name 2>
Compound 342

>  <Compound ID>
120

>  <Name>


>  <Uniprot>
P10275

>  <Target>
AR

>  <Smiles>
CC1=NN(C2=CC=C(C#N)C=C2Cl)C(C)=C1CC1=CC=C(F)C=C1

>  <Kd (nM)>


>  <Assay (Kd)>


>  <Ki (nM)>


>  <Assay (Ki)>


>  <IC50 (nM)>
1500/350

>  <Assay (IC50)>
IC50 of AR WT/T877A

>  <EC50 (nM)>


>  <Assay (EC50)>


>  <Article DOI>
10.1016/j.bmc.2012.02.005

>  <Molecular Weight>
339.801

>  <Exact Mass>
339.0938534

>  <XLogP3>
5.06

>  <Heavy Atom Count>
24

>  <Ring Count>
3

>  <Hydrogen Bond Acceptor Count>
3

>  <Hydrogen Bond Donor Count>
0

>  <Rotatable Bond Count>
3

>  <Topological Polar Surface Area>
41.61

>  <Molecular Formula>
C19H15ClFN3

>  <InChI>
InChI=1S/C19H15ClFN3/c1-12-17(9-14-3-6-16(21)7-4-14)13(2)24(23-12)19-8-5-15(11-22)10-18(19)20/h3-8,10H,9H2,1-2H3

>  <InChI Key>
MQQBJQWLIILIBT-UHFFFAOYSA-N

>  <BindingDB>
50366209

>  <PubChem>
57401855

>  <ChEMBL>
CHEMBL1957614

$$$$
121
Actelion Java MolfileCreator 2.0

  0  0  0  0  0  0              0 V3000
M  V30 BEGIN CTAB
M  V30 COUNTS 33 36 0 0 0
M  V30 BEGIN ATOM
M  V30 1 Cl 4.6951 12.9919 0.0 0
M  V30 2 C 5.6988 11.8772 0.0 0
M  V30 3 C 7.166 12.1891 0.0 0
M  V30 4 C 5.2352 10.4506 0.0 0
M  V30 5 C 8.1697 11.0744 0.0 0
M  V30 6 C 6.2389 9.3359 0.0 0
M  V30 7 C 7.7062 9.6478 0.0 0
M  V30 8 C 8.7098 8.533 0.0 0
M  V30 9 C 10.1771 8.8449 0.0 0
M  V30 10 C 8.2463 7.1065 0.0 0
M  V30 11 N 11.1808 7.7302 0.0 0
M  V30 12 C 9.25 5.9917 0.0 0
M  V30 13 C 10.7172 6.3036 0.0 0
M  V30 14 C 9.0932 4.5 0.0 0
M  V30 15 N 11.4672 5.0046 0.0 0
M  V30 16 C 7.7942 3.75 0.0 0
M  V30 17 C 10.4635 3.8898 0.0 0
M  V30 18 O 6.4951 4.5 0.0 0
M  V30 19 C 7.7942 2.25 0.0 0
M  V30 20 C 6.4951 1.5 0.0 0
M  V30 21 C 9.0932 1.5 0.0 0
M  V30 22 F 5.1961 2.25 0.0 0
M  V30 23 C 6.4951 0.0 0.0 0
M  V30 24 F 10.3923 2.25 0.0 0
M  V30 25 C 9.0932 0.0 0.0 0
M  V30 26 N 5.1961 -0.75 0.0 0
M  V30 27 C 7.7942 -0.75 0.0 0
M  V30 28 S 5.1961 -2.25 0.0 0
M  V30 29 O 6.6961 -2.2499 0.0 0
M  V30 30 O 5.9461 -3.549 0.0 0
M  V30 31 C 3.8971 -3.0 0.0 0
M  V30 32 C 3.8971 -4.5 0.0 0
M  V30 33 C 2.598 -5.25 0.0 0
M  V30 END ATOM
M  V30 BEGIN BOND
M  V30 1 1 1 2
M  V30 2 2 2 3
M  V30 3 1 2 4
M  V30 4 1 3 5
M  V30 5 2 4 6
M  V30 6 2 5 7
M  V30 7 1 7 8
M  V30 8 2 8 9
M  V30 9 1 8 10
M  V30 10 1 9 11
M  V30 11 2 10 12
M  V30 12 2 11 13
M  V30 13 1 12 14
M  V30 14 1 13 15
M  V30 15 1 14 16
M  V30 16 2 14 17
M  V30 17 2 16 18
M  V30 18 1 16 19
M  V30 19 2 19 20
M  V30 20 1 19 21
M  V30 21 1 20 22
M  V30 22 1 20 23
M  V30 23 1 21 24
M  V30 24 2 21 25
M  V30 25 1 23 26
M  V30 26 2 23 27
M  V30 27 1 26 28
M  V30 28 2 28 29
M  V30 29 2 28 30
M  V30 30 1 28 31
M  V30 31 1 31 32
M  V30 32 1 32 33
M  V30 33 1 6 7
M  V30 34 1 12 13
M  V30 35 1 15 17
M  V30 36 1 25 27
M  V30 END BOND
M  V30 END CTAB
M  END
>  <Molecule Name>
Compound 343

>  <Molecule Name 2>
Compound 343

>  <Compound ID>
121

>  <Name>
vemurafenib

>  <Uniprot>
P51451

>  <Target>
BLK

>  <Smiles>
CCCS(=O)(=O)NC1=CC=C(F)C(C(=O)C2=C[NH]C3=NC=C(C4=CC=C(Cl)C=C4)C=C23)=C1F

>  <Kd (nM)>


>  <Assay (Kd)>


>  <Ki (nM)>


>  <Assay (Ki)>


>  <IC50 (nM)>


>  <Assay (IC50)>


>  <EC50 (nM)>


>  <Assay (EC50)>


>  <Article DOI>
10.1016/j.cell.2020.10.038

>  <Molecular Weight>
489.931

>  <Exact Mass>
489.0725466

>  <XLogP3>
4.97

>  <Heavy Atom Count>
33

>  <Ring Count>
4

>  <Hydrogen Bond Acceptor Count>
4

>  <Hydrogen Bond Donor Count>
2

>  <Rotatable Bond Count>
7

>  <Topological Polar Surface Area>
91.92

>  <Molecular Formula>
C23H18ClF2N3O3S

>  <InChI>
InChI=1S/C23H18ClF2N3O3S/c1-2-9-33(31,32)29-19-8-7-18(25)20(21(19)26)22(30)17-12-28-23-16(17)10-14(11-27-23)13-3-5-15(24)6-4-13/h3-8,10-12,29H,2,9H2,1H3,(H,27,28)

>  <InChI Key>
GPXBXXGIAQBQNI-UHFFFAOYSA-N

>  <BindingDB>
50396483

>  <PubChem>
42611257

>  <ChEMBL>
CHEMBL1229517

$$$$
121
Actelion Java MolfileCreator 2.0

  0  0  0  0  0  0              0 V3000
M  V30 BEGIN CTAB
M  V30 COUNTS 33 36 0 0 0
M  V30 BEGIN ATOM
M  V30 1 Cl 4.6951 12.9919 0.0 0
M  V30 2 C 5.6988 11.8772 0.0 0
M  V30 3 C 7.166 12.1891 0.0 0
M  V30 4 C 5.2352 10.4506 0.0 0
M  V30 5 C 8.1697 11.0744 0.0 0
M  V30 6 C 6.2389 9.3359 0.0 0
M  V30 7 C 7.7062 9.6478 0.0 0
M  V30 8 C 8.7098 8.533 0.0 0
M  V30 9 C 10.1771 8.8449 0.0 0
M  V30 10 C 8.2463 7.1065 0.0 0
M  V30 11 N 11.1808 7.7302 0.0 0
M  V30 12 C 9.25 5.9917 0.0 0
M  V30 13 C 10.7172 6.3036 0.0 0
M  V30 14 C 9.0932 4.5 0.0 0
M  V30 15 N 11.4672 5.0046 0.0 0
M  V30 16 C 7.7942 3.75 0.0 0
M  V30 17 C 10.4635 3.8898 0.0 0
M  V30 18 O 6.4951 4.5 0.0 0
M  V30 19 C 7.7942 2.25 0.0 0
M  V30 20 C 6.4951 1.5 0.0 0
M  V30 21 C 9.0932 1.5 0.0 0
M  V30 22 F 5.1961 2.25 0.0 0
M  V30 23 C 6.4951 0.0 0.0 0
M  V30 24 F 10.3923 2.25 0.0 0
M  V30 25 C 9.0932 0.0 0.0 0
M  V30 26 N 5.1961 -0.75 0.0 0
M  V30 27 C 7.7942 -0.75 0.0 0
M  V30 28 S 5.1961 -2.25 0.0 0
M  V30 29 O 6.6961 -2.2499 0.0 0
M  V30 30 O 5.9461 -3.549 0.0 0
M  V30 31 C 3.8971 -3.0 0.0 0
M  V30 32 C 3.8971 -4.5 0.0 0
M  V30 33 C 2.598 -5.25 0.0 0
M  V30 END ATOM
M  V30 BEGIN BOND
M  V30 1 1 1 2
M  V30 2 2 2 3
M  V30 3 1 2 4
M  V30 4 1 3 5
M  V30 5 2 4 6
M  V30 6 2 5 7
M  V30 7 1 7 8
M  V30 8 2 8 9
M  V30 9 1 8 10
M  V30 10 1 9 11
M  V30 11 2 10 12
M  V30 12 2 11 13
M  V30 13 1 12 14
M  V30 14 1 13 15
M  V30 15 1 14 16
M  V30 16 2 14 17
M  V30 17 2 16 18
M  V30 18 1 16 19
M  V30 19 2 19 20
M  V30 20 1 19 21
M  V30 21 1 20 22
M  V30 22 1 20 23
M  V30 23 1 21 24
M  V30 24 2 21 25
M  V30 25 1 23 26
M  V30 26 2 23 27
M  V30 27 1 26 28
M  V30 28 2 28 29
M  V30 29 2 28 30
M  V30 30 1 28 31
M  V30 31 1 31 32
M  V30 32 1 32 33
M  V30 33 1 6 7
M  V30 34 1 12 13
M  V30 35 1 15 17
M  V30 36 1 25 27
M  V30 END BOND
M  V30 END CTAB
M  END
>  <Molecule Name>
Compound 344

>  <Molecule Name 2>
Compound 344

>  <Compound ID>
121

>  <Name>
vemurafenib

>  <Uniprot>
P15056

>  <Target>
BRAF

>  <Smiles>
CCCS(=O)(=O)NC1=CC=C(F)C(C(=O)C2=C[NH]C3=NC=C(C4=CC=C(Cl)C=C4)C=C23)=C1F

>  <Kd (nM)>
50.7

>  <Assay (Kd)>
Kd of BRAF WT was tested by the KINOMEscan

>  <Ki (nM)>


>  <Assay (Ki)>


>  <IC50 (nM)>


>  <Assay (IC50)>


>  <EC50 (nM)>


>  <Assay (EC50)>


>  <Article DOI>
10.1021/acs.jmedchem.9b02083

>  <Molecular Weight>
489.931

>  <Exact Mass>
489.0725466

>  <XLogP3>
4.97

>  <Heavy Atom Count>
33

>  <Ring Count>
4

>  <Hydrogen Bond Acceptor Count>
4

>  <Hydrogen Bond Donor Count>
2

>  <Rotatable Bond Count>
7

>  <Topological Polar Surface Area>
91.92

>  <Molecular Formula>
C23H18ClF2N3O3S

>  <InChI>
InChI=1S/C23H18ClF2N3O3S/c1-2-9-33(31,32)29-19-8-7-18(25)20(21(19)26)22(30)17-12-28-23-16(17)10-14(11-27-23)13-3-5-15(24)6-4-13/h3-8,10-12,29H,2,9H2,1H3,(H,27,28)

>  <InChI Key>
GPXBXXGIAQBQNI-UHFFFAOYSA-N

>  <BindingDB>
50396483

>  <PubChem>
42611257

>  <ChEMBL>
CHEMBL1229517

$$$$
121
Actelion Java MolfileCreator 2.0

  0  0  0  0  0  0              0 V3000
M  V30 BEGIN CTAB
M  V30 COUNTS 33 36 0 0 0
M  V30 BEGIN ATOM
M  V30 1 Cl 4.6951 12.9919 0.0 0
M  V30 2 C 5.6988 11.8772 0.0 0
M  V30 3 C 7.166 12.1891 0.0 0
M  V30 4 C 5.2352 10.4506 0.0 0
M  V30 5 C 8.1697 11.0744 0.0 0
M  V30 6 C 6.2389 9.3359 0.0 0
M  V30 7 C 7.7062 9.6478 0.0 0
M  V30 8 C 8.7098 8.533 0.0 0
M  V30 9 C 10.1771 8.8449 0.0 0
M  V30 10 C 8.2463 7.1065 0.0 0
M  V30 11 N 11.1808 7.7302 0.0 0
M  V30 12 C 9.25 5.9917 0.0 0
M  V30 13 C 10.7172 6.3036 0.0 0
M  V30 14 C 9.0932 4.5 0.0 0
M  V30 15 N 11.4672 5.0046 0.0 0
M  V30 16 C 7.7942 3.75 0.0 0
M  V30 17 C 10.4635 3.8898 0.0 0
M  V30 18 O 6.4951 4.5 0.0 0
M  V30 19 C 7.7942 2.25 0.0 0
M  V30 20 C 6.4951 1.5 0.0 0
M  V30 21 C 9.0932 1.5 0.0 0
M  V30 22 F 5.1961 2.25 0.0 0
M  V30 23 C 6.4951 0.0 0.0 0
M  V30 24 F 10.3923 2.25 0.0 0
M  V30 25 C 9.0932 0.0 0.0 0
M  V30 26 N 5.1961 -0.75 0.0 0
M  V30 27 C 7.7942 -0.75 0.0 0
M  V30 28 S 5.1961 -2.25 0.0 0
M  V30 29 O 6.6961 -2.2499 0.0 0
M  V30 30 O 5.9461 -3.549 0.0 0
M  V30 31 C 3.8971 -3.0 0.0 0
M  V30 32 C 3.8971 -4.5 0.0 0
M  V30 33 C 2.598 -5.25 0.0 0
M  V30 END ATOM
M  V30 BEGIN BOND
M  V30 1 1 1 2
M  V30 2 2 2 3
M  V30 3 1 2 4
M  V30 4 1 3 5
M  V30 5 2 4 6
M  V30 6 2 5 7
M  V30 7 1 7 8
M  V30 8 2 8 9
M  V30 9 1 8 10
M  V30 10 1 9 11
M  V30 11 2 10 12
M  V30 12 2 11 13
M  V30 13 1 12 14
M  V30 14 1 13 15
M  V30 15 1 14 16
M  V30 16 2 14 17
M  V30 17 2 16 18
M  V30 18 1 16 19
M  V30 19 2 19 20
M  V30 20 1 19 21
M  V30 21 1 20 22
M  V30 22 1 20 23
M  V30 23 1 21 24
M  V30 24 2 21 25
M  V30 25 1 23 26
M  V30 26 2 23 27
M  V30 27 1 26 28
M  V30 28 2 28 29
M  V30 29 2 28 30
M  V30 30 1 28 31
M  V30 31 1 31 32
M  V30 32 1 32 33
M  V30 33 1 6 7
M  V30 34 1 12 13
M  V30 35 1 15 17
M  V30 36 1 25 27
M  V30 END BOND
M  V30 END CTAB
M  END
>  <Molecule Name>
Compound 345

>  <Molecule Name 2>
Compound 345

>  <Compound ID>
121

>  <Name>
vemurafenib

>  <Uniprot>
P15056

>  <Target>
BRAF V600E

>  <Smiles>
CCCS(=O)(=O)NC1=CC=C(F)C(C(=O)C2=C[NH]C3=NC=C(C4=CC=C(Cl)C=C4)C=C23)=C1F

>  <Kd (nM)>
58.2

>  <Assay (Kd)>
Kd of BRAF V600E was tested by the KINOMEscan

>  <Ki (nM)>


>  <Assay (Ki)>


>  <IC50 (nM)>


>  <Assay (IC50)>


>  <EC50 (nM)>


>  <Assay (EC50)>


>  <Article DOI>
10.1021/acs.jmedchem.9b02083

>  <Molecular Weight>
489.931

>  <Exact Mass>
489.0725466

>  <XLogP3>
4.97

>  <Heavy Atom Count>
33

>  <Ring Count>
4

>  <Hydrogen Bond Acceptor Count>
4

>  <Hydrogen Bond Donor Count>
2

>  <Rotatable Bond Count>
7

>  <Topological Polar Surface Area>
91.92

>  <Molecular Formula>
C23H18ClF2N3O3S

>  <InChI>
InChI=1S/C23H18ClF2N3O3S/c1-2-9-33(31,32)29-19-8-7-18(25)20(21(19)26)22(30)17-12-28-23-16(17)10-14(11-27-23)13-3-5-15(24)6-4-13/h3-8,10-12,29H,2,9H2,1H3,(H,27,28)

>  <InChI Key>
GPXBXXGIAQBQNI-UHFFFAOYSA-N

>  <BindingDB>
50396483

>  <PubChem>
42611257

>  <ChEMBL>
CHEMBL1229517

$$$$
121
Actelion Java MolfileCreator 2.0

  0  0  0  0  0  0              0 V3000
M  V30 BEGIN CTAB
M  V30 COUNTS 33 36 0 0 0
M  V30 BEGIN ATOM
M  V30 1 Cl 4.6951 12.9919 0.0 0
M  V30 2 C 5.6988 11.8772 0.0 0
M  V30 3 C 7.166 12.1891 0.0 0
M  V30 4 C 5.2352 10.4506 0.0 0
M  V30 5 C 8.1697 11.0744 0.0 0
M  V30 6 C 6.2389 9.3359 0.0 0
M  V30 7 C 7.7062 9.6478 0.0 0
M  V30 8 C 8.7098 8.533 0.0 0
M  V30 9 C 10.1771 8.8449 0.0 0
M  V30 10 C 8.2463 7.1065 0.0 0
M  V30 11 N 11.1808 7.7302 0.0 0
M  V30 12 C 9.25 5.9917 0.0 0
M  V30 13 C 10.7172 6.3036 0.0 0
M  V30 14 C 9.0932 4.5 0.0 0
M  V30 15 N 11.4672 5.0046 0.0 0
M  V30 16 C 7.7942 3.75 0.0 0
M  V30 17 C 10.4635 3.8898 0.0 0
M  V30 18 O 6.4951 4.5 0.0 0
M  V30 19 C 7.7942 2.25 0.0 0
M  V30 20 C 6.4951 1.5 0.0 0
M  V30 21 C 9.0932 1.5 0.0 0
M  V30 22 F 5.1961 2.25 0.0 0
M  V30 23 C 6.4951 0.0 0.0 0
M  V30 24 F 10.3923 2.25 0.0 0
M  V30 25 C 9.0932 0.0 0.0 0
M  V30 26 N 5.1961 -0.75 0.0 0
M  V30 27 C 7.7942 -0.75 0.0 0
M  V30 28 S 5.1961 -2.25 0.0 0
M  V30 29 O 6.6961 -2.2499 0.0 0
M  V30 30 O 5.9461 -3.549 0.0 0
M  V30 31 C 3.8971 -3.0 0.0 0
M  V30 32 C 3.8971 -4.5 0.0 0
M  V30 33 C 2.598 -5.25 0.0 0
M  V30 END ATOM
M  V30 BEGIN BOND
M  V30 1 1 1 2
M  V30 2 2 2 3
M  V30 3 1 2 4
M  V30 4 1 3 5
M  V30 5 2 4 6
M  V30 6 2 5 7
M  V30 7 1 7 8
M  V30 8 2 8 9
M  V30 9 1 8 10
M  V30 10 1 9 11
M  V30 11 2 10 12
M  V30 12 2 11 13
M  V30 13 1 12 14
M  V30 14 1 13 15
M  V30 15 1 14 16
M  V30 16 2 14 17
M  V30 17 2 16 18
M  V30 18 1 16 19
M  V30 19 2 19 20
M  V30 20 1 19 21
M  V30 21 1 20 22
M  V30 22 1 20 23
M  V30 23 1 21 24
M  V30 24 2 21 25
M  V30 25 1 23 26
M  V30 26 2 23 27
M  V30 27 1 26 28
M  V30 28 2 28 29
M  V30 29 2 28 30
M  V30 30 1 28 31
M  V30 31 1 31 32
M  V30 32 1 32 33
M  V30 33 1 6 7
M  V30 34 1 12 13
M  V30 35 1 15 17
M  V30 36 1 25 27
M  V30 END BOND
M  V30 END CTAB
M  END
>  <Molecule Name>
Compound 346

>  <Molecule Name 2>
Compound 346

>  <Compound ID>
121

>  <Name>
vemurafenib

>  <Uniprot>
P41240

>  <Target>
CSK

>  <Smiles>
CCCS(=O)(=O)NC1=CC=C(F)C(C(=O)C2=C[NH]C3=NC=C(C4=CC=C(Cl)C=C4)C=C23)=C1F

>  <Kd (nM)>
>30000

>  <Assay (Kd)>
Kd apparent of CSK

>  <Ki (nM)>


>  <Assay (Ki)>


>  <IC50 (nM)>


>  <Assay (IC50)>


>  <EC50 (nM)>


>  <Assay (EC50)>


>  <Article DOI>
10.1126/science.aan4368

>  <Molecular Weight>
489.931

>  <Exact Mass>
489.0725466

>  <XLogP3>
4.97

>  <Heavy Atom Count>
33

>  <Ring Count>
4

>  <Hydrogen Bond Acceptor Count>
4

>  <Hydrogen Bond Donor Count>
2

>  <Rotatable Bond Count>
7

>  <Topological Polar Surface Area>
91.92

>  <Molecular Formula>
C23H18ClF2N3O3S

>  <InChI>
InChI=1S/C23H18ClF2N3O3S/c1-2-9-33(31,32)29-19-8-7-18(25)20(21(19)26)22(30)17-12-28-23-16(17)10-14(11-27-23)13-3-5-15(24)6-4-13/h3-8,10-12,29H,2,9H2,1H3,(H,27,28)

>  <InChI Key>
GPXBXXGIAQBQNI-UHFFFAOYSA-N

>  <BindingDB>
50396483

>  <PubChem>
42611257

>  <ChEMBL>
CHEMBL1229517

$$$$
121
Actelion Java MolfileCreator 2.0

  0  0  0  0  0  0              0 V3000
M  V30 BEGIN CTAB
M  V30 COUNTS 33 36 0 0 0
M  V30 BEGIN ATOM
M  V30 1 Cl 4.6951 12.9919 0.0 0
M  V30 2 C 5.6988 11.8772 0.0 0
M  V30 3 C 7.166 12.1891 0.0 0
M  V30 4 C 5.2352 10.4506 0.0 0
M  V30 5 C 8.1697 11.0744 0.0 0
M  V30 6 C 6.2389 9.3359 0.0 0
M  V30 7 C 7.7062 9.6478 0.0 0
M  V30 8 C 8.7098 8.533 0.0 0
M  V30 9 C 10.1771 8.8449 0.0 0
M  V30 10 C 8.2463 7.1065 0.0 0
M  V30 11 N 11.1808 7.7302 0.0 0
M  V30 12 C 9.25 5.9917 0.0 0
M  V30 13 C 10.7172 6.3036 0.0 0
M  V30 14 C 9.0932 4.5 0.0 0
M  V30 15 N 11.4672 5.0046 0.0 0
M  V30 16 C 7.7942 3.75 0.0 0
M  V30 17 C 10.4635 3.8898 0.0 0
M  V30 18 O 6.4951 4.5 0.0 0
M  V30 19 C 7.7942 2.25 0.0 0
M  V30 20 C 6.4951 1.5 0.0 0
M  V30 21 C 9.0932 1.5 0.0 0
M  V30 22 F 5.1961 2.25 0.0 0
M  V30 23 C 6.4951 0.0 0.0 0
M  V30 24 F 10.3923 2.25 0.0 0
M  V30 25 C 9.0932 0.0 0.0 0
M  V30 26 N 5.1961 -0.75 0.0 0
M  V30 27 C 7.7942 -0.75 0.0 0
M  V30 28 S 5.1961 -2.25 0.0 0
M  V30 29 O 6.6961 -2.2499 0.0 0
M  V30 30 O 5.9461 -3.549 0.0 0
M  V30 31 C 3.8971 -3.0 0.0 0
M  V30 32 C 3.8971 -4.5 0.0 0
M  V30 33 C 2.598 -5.25 0.0 0
M  V30 END ATOM
M  V30 BEGIN BOND
M  V30 1 1 1 2
M  V30 2 2 2 3
M  V30 3 1 2 4
M  V30 4 1 3 5
M  V30 5 2 4 6
M  V30 6 2 5 7
M  V30 7 1 7 8
M  V30 8 2 8 9
M  V30 9 1 8 10
M  V30 10 1 9 11
M  V30 11 2 10 12
M  V30 12 2 11 13
M  V30 13 1 12 14
M  V30 14 1 13 15
M  V30 15 1 14 16
M  V30 16 2 14 17
M  V30 17 2 16 18
M  V30 18 1 16 19
M  V30 19 2 19 20
M  V30 20 1 19 21
M  V30 21 1 20 22
M  V30 22 1 20 23
M  V30 23 1 21 24
M  V30 24 2 21 25
M  V30 25 1 23 26
M  V30 26 2 23 27
M  V30 27 1 26 28
M  V30 28 2 28 29
M  V30 29 2 28 30
M  V30 30 1 28 31
M  V30 31 1 31 32
M  V30 32 1 32 33
M  V30 33 1 6 7
M  V30 34 1 12 13
M  V30 35 1 15 17
M  V30 36 1 25 27
M  V30 END BOND
M  V30 END CTAB
M  END
>  <Molecule Name>
Compound 347

>  <Molecule Name 2>
Compound 347

>  <Compound ID>
121

>  <Name>
vemurafenib

>  <Uniprot>
P06239

>  <Target>
LCK

>  <Smiles>
CCCS(=O)(=O)NC1=CC=C(F)C(C(=O)C2=C[NH]C3=NC=C(C4=CC=C(Cl)C=C4)C=C23)=C1F

>  <Kd (nM)>
>30000

>  <Assay (Kd)>
Kd apparent of LCK

>  <Ki (nM)>


>  <Assay (Ki)>


>  <IC50 (nM)>


>  <Assay (IC50)>


>  <EC50 (nM)>


>  <Assay (EC50)>


>  <Article DOI>
10.1126/science.aan4368

>  <Molecular Weight>
489.931

>  <Exact Mass>
489.0725466

>  <XLogP3>
4.97

>  <Heavy Atom Count>
33

>  <Ring Count>
4

>  <Hydrogen Bond Acceptor Count>
4

>  <Hydrogen Bond Donor Count>
2

>  <Rotatable Bond Count>
7

>  <Topological Polar Surface Area>
91.92

>  <Molecular Formula>
C23H18ClF2N3O3S

>  <InChI>
InChI=1S/C23H18ClF2N3O3S/c1-2-9-33(31,32)29-19-8-7-18(25)20(21(19)26)22(30)17-12-28-23-16(17)10-14(11-27-23)13-3-5-15(24)6-4-13/h3-8,10-12,29H,2,9H2,1H3,(H,27,28)

>  <InChI Key>
GPXBXXGIAQBQNI-UHFFFAOYSA-N

>  <BindingDB>
50396483

>  <PubChem>
42611257

>  <ChEMBL>
CHEMBL1229517

$$$$
121
Actelion Java MolfileCreator 2.0

  0  0  0  0  0  0              0 V3000
M  V30 BEGIN CTAB
M  V30 COUNTS 33 36 0 0 0
M  V30 BEGIN ATOM
M  V30 1 Cl 4.6951 12.9919 0.0 0
M  V30 2 C 5.6988 11.8772 0.0 0
M  V30 3 C 7.166 12.1891 0.0 0
M  V30 4 C 5.2352 10.4506 0.0 0
M  V30 5 C 8.1697 11.0744 0.0 0
M  V30 6 C 6.2389 9.3359 0.0 0
M  V30 7 C 7.7062 9.6478 0.0 0
M  V30 8 C 8.7098 8.533 0.0 0
M  V30 9 C 10.1771 8.8449 0.0 0
M  V30 10 C 8.2463 7.1065 0.0 0
M  V30 11 N 11.1808 7.7302 0.0 0
M  V30 12 C 9.25 5.9917 0.0 0
M  V30 13 C 10.7172 6.3036 0.0 0
M  V30 14 C 9.0932 4.5 0.0 0
M  V30 15 N 11.4672 5.0046 0.0 0
M  V30 16 C 7.7942 3.75 0.0 0
M  V30 17 C 10.4635 3.8898 0.0 0
M  V30 18 O 6.4951 4.5 0.0 0
M  V30 19 C 7.7942 2.25 0.0 0
M  V30 20 C 6.4951 1.5 0.0 0
M  V30 21 C 9.0932 1.5 0.0 0
M  V30 22 F 5.1961 2.25 0.0 0
M  V30 23 C 6.4951 0.0 0.0 0
M  V30 24 F 10.3923 2.25 0.0 0
M  V30 25 C 9.0932 0.0 0.0 0
M  V30 26 N 5.1961 -0.75 0.0 0
M  V30 27 C 7.7942 -0.75 0.0 0
M  V30 28 S 5.1961 -2.25 0.0 0
M  V30 29 O 6.6961 -2.2499 0.0 0
M  V30 30 O 5.9461 -3.549 0.0 0
M  V30 31 C 3.8971 -3.0 0.0 0
M  V30 32 C 3.8971 -4.5 0.0 0
M  V30 33 C 2.598 -5.25 0.0 0
M  V30 END ATOM
M  V30 BEGIN BOND
M  V30 1 1 1 2
M  V30 2 2 2 3
M  V30 3 1 2 4
M  V30 4 1 3 5
M  V30 5 2 4 6
M  V30 6 2 5 7
M  V30 7 1 7 8
M  V30 8 2 8 9
M  V30 9 1 8 10
M  V30 10 1 9 11
M  V30 11 2 10 12
M  V30 12 2 11 13
M  V30 13 1 12 14
M  V30 14 1 13 15
M  V30 15 1 14 16
M  V30 16 2 14 17
M  V30 17 2 16 18
M  V30 18 1 16 19
M  V30 19 2 19 20
M  V30 20 1 19 21
M  V30 21 1 20 22
M  V30 22 1 20 23
M  V30 23 1 21 24
M  V30 24 2 21 25
M  V30 25 1 23 26
M  V30 26 2 23 27
M  V30 27 1 26 28
M  V30 28 2 28 29
M  V30 29 2 28 30
M  V30 30 1 28 31
M  V30 31 1 31 32
M  V30 32 1 32 33
M  V30 33 1 6 7
M  V30 34 1 12 13
M  V30 35 1 15 17
M  V30 36 1 25 27
M  V30 END BOND
M  V30 END CTAB
M  END
>  <Molecule Name>
Compound 348

>  <Molecule Name 2>
Compound 348

>  <Compound ID>
121

>  <Name>
vemurafenib

>  <Uniprot>
P53671

>  <Target>
LIMK2

>  <Smiles>
CCCS(=O)(=O)NC1=CC=C(F)C(C(=O)C2=C[NH]C3=NC=C(C4=CC=C(Cl)C=C4)C=C23)=C1F

>  <Kd (nM)>


>  <Assay (Kd)>


>  <Ki (nM)>


>  <Assay (Ki)>


>  <IC50 (nM)>


>  <Assay (IC50)>


>  <EC50 (nM)>


>  <Assay (EC50)>


>  <Article DOI>
10.1016/j.cell.2020.10.038

>  <Molecular Weight>
489.931

>  <Exact Mass>
489.0725466

>  <XLogP3>
4.97

>  <Heavy Atom Count>
33

>  <Ring Count>
4

>  <Hydrogen Bond Acceptor Count>
4

>  <Hydrogen Bond Donor Count>
2

>  <Rotatable Bond Count>
7

>  <Topological Polar Surface Area>
91.92

>  <Molecular Formula>
C23H18ClF2N3O3S

>  <InChI>
InChI=1S/C23H18ClF2N3O3S/c1-2-9-33(31,32)29-19-8-7-18(25)20(21(19)26)22(30)17-12-28-23-16(17)10-14(11-27-23)13-3-5-15(24)6-4-13/h3-8,10-12,29H,2,9H2,1H3,(H,27,28)

>  <InChI Key>
GPXBXXGIAQBQNI-UHFFFAOYSA-N

>  <BindingDB>
50396483

>  <PubChem>
42611257

>  <ChEMBL>
CHEMBL1229517

$$$$
121
Actelion Java MolfileCreator 2.0

  0  0  0  0  0  0              0 V3000
M  V30 BEGIN CTAB
M  V30 COUNTS 33 36 0 0 0
M  V30 BEGIN ATOM
M  V30 1 Cl 4.6951 12.9919 0.0 0
M  V30 2 C 5.6988 11.8772 0.0 0
M  V30 3 C 7.166 12.1891 0.0 0
M  V30 4 C 5.2352 10.4506 0.0 0
M  V30 5 C 8.1697 11.0744 0.0 0
M  V30 6 C 6.2389 9.3359 0.0 0
M  V30 7 C 7.7062 9.6478 0.0 0
M  V30 8 C 8.7098 8.533 0.0 0
M  V30 9 C 10.1771 8.8449 0.0 0
M  V30 10 C 8.2463 7.1065 0.0 0
M  V30 11 N 11.1808 7.7302 0.0 0
M  V30 12 C 9.25 5.9917 0.0 0
M  V30 13 C 10.7172 6.3036 0.0 0
M  V30 14 C 9.0932 4.5 0.0 0
M  V30 15 N 11.4672 5.0046 0.0 0
M  V30 16 C 7.7942 3.75 0.0 0
M  V30 17 C 10.4635 3.8898 0.0 0
M  V30 18 O 6.4951 4.5 0.0 0
M  V30 19 C 7.7942 2.25 0.0 0
M  V30 20 C 6.4951 1.5 0.0 0
M  V30 21 C 9.0932 1.5 0.0 0
M  V30 22 F 5.1961 2.25 0.0 0
M  V30 23 C 6.4951 0.0 0.0 0
M  V30 24 F 10.3923 2.25 0.0 0
M  V30 25 C 9.0932 0.0 0.0 0
M  V30 26 N 5.1961 -0.75 0.0 0
M  V30 27 C 7.7942 -0.75 0.0 0
M  V30 28 S 5.1961 -2.25 0.0 0
M  V30 29 O 6.6961 -2.2499 0.0 0
M  V30 30 O 5.9461 -3.549 0.0 0
M  V30 31 C 3.8971 -3.0 0.0 0
M  V30 32 C 3.8971 -4.5 0.0 0
M  V30 33 C 2.598 -5.25 0.0 0
M  V30 END ATOM
M  V30 BEGIN BOND
M  V30 1 1 1 2
M  V30 2 2 2 3
M  V30 3 1 2 4
M  V30 4 1 3 5
M  V30 5 2 4 6
M  V30 6 2 5 7
M  V30 7 1 7 8
M  V30 8 2 8 9
M  V30 9 1 8 10
M  V30 10 1 9 11
M  V30 11 2 10 12
M  V30 12 2 11 13
M  V30 13 1 12 14
M  V30 14 1 13 15
M  V30 15 1 14 16
M  V30 16 2 14 17
M  V30 17 2 16 18
M  V30 18 1 16 19
M  V30 19 2 19 20
M  V30 20 1 19 21
M  V30 21 1 20 22
M  V30 22 1 20 23
M  V30 23 1 21 24
M  V30 24 2 21 25
M  V30 25 1 23 26
M  V30 26 2 23 27
M  V30 27 1 26 28
M  V30 28 2 28 29
M  V30 29 2 28 30
M  V30 30 1 28 31
M  V30 31 1 31 32
M  V30 32 1 32 33
M  V30 33 1 6 7
M  V30 34 1 12 13
M  V30 35 1 15 17
M  V30 36 1 25 27
M  V30 END BOND
M  V30 END CTAB
M  END
>  <Molecule Name>
Compound 349

>  <Molecule Name 2>
Compound 349

>  <Compound ID>
121

>  <Name>
vemurafenib

>  <Uniprot>
Q13163

>  <Target>
MAP2K5

>  <Smiles>
CCCS(=O)(=O)NC1=CC=C(F)C(C(=O)C2=C[NH]C3=NC=C(C4=CC=C(Cl)C=C4)C=C23)=C1F

>  <Kd (nM)>


>  <Assay (Kd)>


>  <Ki (nM)>


>  <Assay (Ki)>


>  <IC50 (nM)>


>  <Assay (IC50)>


>  <EC50 (nM)>


>  <Assay (EC50)>


>  <Article DOI>
10.1016/j.cell.2020.10.038

>  <Molecular Weight>
489.931

>  <Exact Mass>
489.0725466

>  <XLogP3>
4.97

>  <Heavy Atom Count>
33

>  <Ring Count>
4

>  <Hydrogen Bond Acceptor Count>
4

>  <Hydrogen Bond Donor Count>
2

>  <Rotatable Bond Count>
7

>  <Topological Polar Surface Area>
91.92

>  <Molecular Formula>
C23H18ClF2N3O3S

>  <InChI>
InChI=1S/C23H18ClF2N3O3S/c1-2-9-33(31,32)29-19-8-7-18(25)20(21(19)26)22(30)17-12-28-23-16(17)10-14(11-27-23)13-3-5-15(24)6-4-13/h3-8,10-12,29H,2,9H2,1H3,(H,27,28)

>  <InChI Key>
GPXBXXGIAQBQNI-UHFFFAOYSA-N

>  <BindingDB>
50396483

>  <PubChem>
42611257

>  <ChEMBL>
CHEMBL1229517

$$$$
121
Actelion Java MolfileCreator 2.0

  0  0  0  0  0  0              0 V3000
M  V30 BEGIN CTAB
M  V30 COUNTS 33 36 0 0 0
M  V30 BEGIN ATOM
M  V30 1 Cl 4.6951 12.9919 0.0 0
M  V30 2 C 5.6988 11.8772 0.0 0
M  V30 3 C 7.166 12.1891 0.0 0
M  V30 4 C 5.2352 10.4506 0.0 0
M  V30 5 C 8.1697 11.0744 0.0 0
M  V30 6 C 6.2389 9.3359 0.0 0
M  V30 7 C 7.7062 9.6478 0.0 0
M  V30 8 C 8.7098 8.533 0.0 0
M  V30 9 C 10.1771 8.8449 0.0 0
M  V30 10 C 8.2463 7.1065 0.0 0
M  V30 11 N 11.1808 7.7302 0.0 0
M  V30 12 C 9.25 5.9917 0.0 0
M  V30 13 C 10.7172 6.3036 0.0 0
M  V30 14 C 9.0932 4.5 0.0 0
M  V30 15 N 11.4672 5.0046 0.0 0
M  V30 16 C 7.7942 3.75 0.0 0
M  V30 17 C 10.4635 3.8898 0.0 0
M  V30 18 O 6.4951 4.5 0.0 0
M  V30 19 C 7.7942 2.25 0.0 0
M  V30 20 C 6.4951 1.5 0.0 0
M  V30 21 C 9.0932 1.5 0.0 0
M  V30 22 F 5.1961 2.25 0.0 0
M  V30 23 C 6.4951 0.0 0.0 0
M  V30 24 F 10.3923 2.25 0.0 0
M  V30 25 C 9.0932 0.0 0.0 0
M  V30 26 N 5.1961 -0.75 0.0 0
M  V30 27 C 7.7942 -0.75 0.0 0
M  V30 28 S 5.1961 -2.25 0.0 0
M  V30 29 O 6.6961 -2.2499 0.0 0
M  V30 30 O 5.9461 -3.549 0.0 0
M  V30 31 C 3.8971 -3.0 0.0 0
M  V30 32 C 3.8971 -4.5 0.0 0
M  V30 33 C 2.598 -5.25 0.0 0
M  V30 END ATOM
M  V30 BEGIN BOND
M  V30 1 1 1 2
M  V30 2 2 2 3
M  V30 3 1 2 4
M  V30 4 1 3 5
M  V30 5 2 4 6
M  V30 6 2 5 7
M  V30 7 1 7 8
M  V30 8 2 8 9
M  V30 9 1 8 10
M  V30 10 1 9 11
M  V30 11 2 10 12
M  V30 12 2 11 13
M  V30 13 1 12 14
M  V30 14 1 13 15
M  V30 15 1 14 16
M  V30 16 2 14 17
M  V30 17 2 16 18
M  V30 18 1 16 19
M  V30 19 2 19 20
M  V30 20 1 19 21
M  V30 21 1 20 22
M  V30 22 1 20 23
M  V30 23 1 21 24
M  V30 24 2 21 25
M  V30 25 1 23 26
M  V30 26 2 23 27
M  V30 27 1 26 28
M  V30 28 2 28 29
M  V30 29 2 28 30
M  V30 30 1 28 31
M  V30 31 1 31 32
M  V30 32 1 32 33
M  V30 33 1 6 7
M  V30 34 1 12 13
M  V30 35 1 15 17
M  V30 36 1 25 27
M  V30 END BOND
M  V30 END CTAB
M  END
>  <Molecule Name>
Compound 350

>  <Molecule Name 2>
Compound 350

>  <Compound ID>
121

>  <Name>
vemurafenib

>  <Uniprot>
Q9NYL2

>  <Target>
MAP3K20

>  <Smiles>
CCCS(=O)(=O)NC1=CC=C(F)C(C(=O)C2=C[NH]C3=NC=C(C4=CC=C(Cl)C=C4)C=C23)=C1F

>  <Kd (nM)>


>  <Assay (Kd)>


>  <Ki (nM)>


>  <Assay (Ki)>


>  <IC50 (nM)>
23

>  <Assay (IC50)>
Inhibition of MAP3K20

>  <EC50 (nM)>


>  <Assay (EC50)>


>  <Article DOI>
10.1021/acs.jmedchem.7b00572

>  <Molecular Weight>
489.931

>  <Exact Mass>
489.0725466

>  <XLogP3>
4.97

>  <Heavy Atom Count>
33

>  <Ring Count>
4

>  <Hydrogen Bond Acceptor Count>
4

>  <Hydrogen Bond Donor Count>
2

>  <Rotatable Bond Count>
7

>  <Topological Polar Surface Area>
91.92

>  <Molecular Formula>
C23H18ClF2N3O3S

>  <InChI>
InChI=1S/C23H18ClF2N3O3S/c1-2-9-33(31,32)29-19-8-7-18(25)20(21(19)26)22(30)17-12-28-23-16(17)10-14(11-27-23)13-3-5-15(24)6-4-13/h3-8,10-12,29H,2,9H2,1H3,(H,27,28)

>  <InChI Key>
GPXBXXGIAQBQNI-UHFFFAOYSA-N

>  <BindingDB>
50396483

>  <PubChem>
42611257

>  <ChEMBL>
CHEMBL1229517

$$$$
122
Actelion Java MolfileCreator 2.0

  0  0  0  0  0  0              0 V3000
M  V30 BEGIN CTAB
M  V30 COUNTS 40 44 0 0 0
M  V30 BEGIN ATOM
M  V30 1 S 3.8971 0.0 0.0 0
M  V30 2 O 4.6471 1.299 0.0 0
M  V30 3 O 3.1471 1.299 0.0 0
M  V30 4 N 5.1961 -0.75 0.0 0
M  V30 5 C 2.598 -0.75 0.0 0
M  V30 6 C 6.4951 0.0 0.0 0
M  V30 7 C 1.299 0.0 0.0 0
M  V30 8 C 7.7942 -0.75 0.0 0
M  V30 9 C 6.4951 1.5 0.0 0
M  V30 10 C 0.0 -0.75 0.0 0
M  V30 11 F 7.7942 -2.25 0.0 0
M  V30 12 C 9.0932 0.0 0.0 0
M  V30 13 C 7.7942 2.25 0.0 0
M  V30 14 N 10.3923 -0.75 0.0 0
M  V30 15 C 9.0932 1.5 0.0 0
M  V30 16 C 10.5491 -2.2417 0.0 0
M  V30 17 C 11.7626 -0.1398 0.0 0
M  V30 18 F 10.3923 2.25 0.0 0
M  V30 19 C 12.0163 -2.5536 0.0 0
M  V30 20 C 9.5454 -3.3565 0.0 0
M  V30 21 C 12.7663 -1.2546 0.0 0
M  V30 22 N 12.4798 -3.9802 0.0 0
M  V30 23 C 10.0089 -4.783 0.0 0
M  V30 24 C 14.2581 -1.0978 0.0 0
M  V30 25 C 11.4761 -5.0949 0.0 0
M  V30 26 C 15.1397 -2.3113 0.0 0
M  V30 27 C 14.8682 0.2724 0.0 0
M  V30 28 N 11.9396 -6.5215 0.0 0
M  V30 29 N 16.6315 -2.1545 0.0 0
M  V30 30 N 16.36 0.4292 0.0 0
M  V30 31 C 10.9359 -7.6362 0.0 0
M  V30 32 C 13.4069 -6.8334 0.0 0
M  V30 33 C 17.2416 -0.7842 0.0 0
M  V30 34 C 9.4687 -7.3243 0.0 0
M  V30 35 C 11.3995 -9.0628 0.0 0
M  V30 36 C 8.465 -8.4391 0.0 0
M  V30 37 C 10.3958 -10.1775 0.0 0
M  V30 38 N 8.9285 -9.8656 0.0 0
M  V30 39 C 7.9248 -10.9804 0.0 0
M  V30 40 C 8.3884 -12.407 0.0 0
M  V30 END ATOM
M  V30 BEGIN BOND
M  V30 1 2 1 2
M  V30 2 2 1 3
M  V30 3 1 1 4
M  V30 4 1 1 5
M  V30 5 1 4 6
M  V30 6 1 5 7
M  V30 7 2 6 8
M  V30 8 1 6 9
M  V30 9 1 7 10
M  V30 10 1 8 11
M  V30 11 1 8 12
M  V30 12 2 9 13
M  V30 13 1 12 14
M  V30 14 2 12 15
M  V30 15 1 14 16
M  V30 16 1 14 17
M  V30 17 1 15 18
M  V30 18 2 16 19
M  V30 19 1 16 20
M  V30 20 2 17 21
M  V30 21 1 19 22
M  V30 22 2 20 23
M  V30 23 1 21 24
M  V30 24 2 22 25
M  V30 25 2 24 26
M  V30 26 1 24 27
M  V30 27 1 25 28
M  V30 28 1 26 29
M  V30 29 2 27 30
M  V30 30 1 28 31
M  V30 31 1 28 32
M  V30 32 2 29 33
M  V30 33 1 31 34
M  V30 34 1 31 35
M  V30 35 1 34 36
M  V30 36 1 35 37
M  V30 37 1 36 38
M  V30 38 1 38 39
M  V30 39 1 39 40
M  V30 40 1 13 15
M  V30 41 1 19 21
M  V30 42 1 23 25
M  V30 43 1 30 33
M  V30 44 1 37 38
M  V30 END BOND
M  V30 END CTAB
M  END
>  <Molecule Name>
Compound 351

>  <Molecule Name 2>
Compound 351

>  <Compound ID>
122

>  <Name>
BI882370

>  <Uniprot>
P15056

>  <Target>
BRAF

>  <Smiles>
CCCS(=O)(=O)NC1=CC=C(F)C(N2C=C(C3=CN=CN=C3)C3=NC(N(C)C4CCN(CC)CC4)=CC=C32)=C1F

>  <Kd (nM)>
0.37

>  <Assay (Kd)>
Kd of BRAF WT was tested by the KINOMEscan

>  <Ki (nM)>


>  <Assay (Ki)>


>  <IC50 (nM)>


>  <Assay (IC50)>


>  <EC50 (nM)>


>  <Assay (EC50)>


>  <Article DOI>
10.1021/acs.jmedchem.9b02083

>  <Molecular Weight>
569.682

>  <Exact Mass>
569.2384507

>  <XLogP3>
4.06

>  <Heavy Atom Count>
40

>  <Ring Count>
5

>  <Hydrogen Bond Acceptor Count>
8

>  <Hydrogen Bond Donor Count>
1

>  <Rotatable Bond Count>
9

>  <Topological Polar Surface Area>
96.25

>  <Molecular Formula>
C28H33F2N7O2S

>  <InChI>
InChI=1S/C28H33F2N7O2S/c1-4-14-40(38,39)34-23-7-6-22(29)28(26(23)30)37-17-21(19-15-31-18-32-16-19)27-24(37)8-9-25(33-27)35(3)20-10-12-36(5-2)13-11-20/h6-9,15-18,20,34H,4-5,10-14H2,1-3H3

>  <InChI Key>
AEJACXAFHXBVHF-UHFFFAOYSA-N

>  <BindingDB>
50457446

>  <PubChem>
60152613

>  <ChEMBL>
CHEMBL4212692

$$$$
122
Actelion Java MolfileCreator 2.0

  0  0  0  0  0  0              0 V3000
M  V30 BEGIN CTAB
M  V30 COUNTS 40 44 0 0 0
M  V30 BEGIN ATOM
M  V30 1 S 3.8971 0.0 0.0 0
M  V30 2 O 4.6471 1.299 0.0 0
M  V30 3 O 3.1471 1.299 0.0 0
M  V30 4 N 5.1961 -0.75 0.0 0
M  V30 5 C 2.598 -0.75 0.0 0
M  V30 6 C 6.4951 0.0 0.0 0
M  V30 7 C 1.299 0.0 0.0 0
M  V30 8 C 7.7942 -0.75 0.0 0
M  V30 9 C 6.4951 1.5 0.0 0
M  V30 10 C 0.0 -0.75 0.0 0
M  V30 11 F 7.7942 -2.25 0.0 0
M  V30 12 C 9.0932 0.0 0.0 0
M  V30 13 C 7.7942 2.25 0.0 0
M  V30 14 N 10.3923 -0.75 0.0 0
M  V30 15 C 9.0932 1.5 0.0 0
M  V30 16 C 10.5491 -2.2417 0.0 0
M  V30 17 C 11.7626 -0.1398 0.0 0
M  V30 18 F 10.3923 2.25 0.0 0
M  V30 19 C 12.0163 -2.5536 0.0 0
M  V30 20 C 9.5454 -3.3565 0.0 0
M  V30 21 C 12.7663 -1.2546 0.0 0
M  V30 22 N 12.4798 -3.9802 0.0 0
M  V30 23 C 10.0089 -4.783 0.0 0
M  V30 24 C 14.2581 -1.0978 0.0 0
M  V30 25 C 11.4761 -5.0949 0.0 0
M  V30 26 C 15.1397 -2.3113 0.0 0
M  V30 27 C 14.8682 0.2724 0.0 0
M  V30 28 N 11.9396 -6.5215 0.0 0
M  V30 29 N 16.6315 -2.1545 0.0 0
M  V30 30 N 16.36 0.4292 0.0 0
M  V30 31 C 10.9359 -7.6362 0.0 0
M  V30 32 C 13.4069 -6.8334 0.0 0
M  V30 33 C 17.2416 -0.7842 0.0 0
M  V30 34 C 9.4687 -7.3243 0.0 0
M  V30 35 C 11.3995 -9.0628 0.0 0
M  V30 36 C 8.465 -8.4391 0.0 0
M  V30 37 C 10.3958 -10.1775 0.0 0
M  V30 38 N 8.9285 -9.8656 0.0 0
M  V30 39 C 7.9248 -10.9804 0.0 0
M  V30 40 C 8.3884 -12.407 0.0 0
M  V30 END ATOM
M  V30 BEGIN BOND
M  V30 1 2 1 2
M  V30 2 2 1 3
M  V30 3 1 1 4
M  V30 4 1 1 5
M  V30 5 1 4 6
M  V30 6 1 5 7
M  V30 7 2 6 8
M  V30 8 1 6 9
M  V30 9 1 7 10
M  V30 10 1 8 11
M  V30 11 1 8 12
M  V30 12 2 9 13
M  V30 13 1 12 14
M  V30 14 2 12 15
M  V30 15 1 14 16
M  V30 16 1 14 17
M  V30 17 1 15 18
M  V30 18 2 16 19
M  V30 19 1 16 20
M  V30 20 2 17 21
M  V30 21 1 19 22
M  V30 22 2 20 23
M  V30 23 1 21 24
M  V30 24 2 22 25
M  V30 25 2 24 26
M  V30 26 1 24 27
M  V30 27 1 25 28
M  V30 28 1 26 29
M  V30 29 2 27 30
M  V30 30 1 28 31
M  V30 31 1 28 32
M  V30 32 2 29 33
M  V30 33 1 31 34
M  V30 34 1 31 35
M  V30 35 1 34 36
M  V30 36 1 35 37
M  V30 37 1 36 38
M  V30 38 1 38 39
M  V30 39 1 39 40
M  V30 40 1 13 15
M  V30 41 1 19 21
M  V30 42 1 23 25
M  V30 43 1 30 33
M  V30 44 1 37 38
M  V30 END BOND
M  V30 END CTAB
M  END
>  <Molecule Name>
Compound 352

>  <Molecule Name 2>
Compound 352

>  <Compound ID>
122

>  <Name>
BI882370

>  <Uniprot>
P15056

>  <Target>
BRAF V600E

>  <Smiles>
CCCS(=O)(=O)NC1=CC=C(F)C(N2C=C(C3=CN=CN=C3)C3=NC(N(C)C4CCN(CC)CC4)=CC=C32)=C1F

>  <Kd (nM)>
0.33

>  <Assay (Kd)>
Kd of BRAF V600E was tested by the KINOMEscan

>  <Ki (nM)>


>  <Assay (Ki)>


>  <IC50 (nM)>


>  <Assay (IC50)>


>  <EC50 (nM)>


>  <Assay (EC50)>


>  <Article DOI>
10.1021/acs.jmedchem.9b02083

>  <Molecular Weight>
569.682

>  <Exact Mass>
569.2384507

>  <XLogP3>
4.06

>  <Heavy Atom Count>
40

>  <Ring Count>
5

>  <Hydrogen Bond Acceptor Count>
8

>  <Hydrogen Bond Donor Count>
1

>  <Rotatable Bond Count>
9

>  <Topological Polar Surface Area>
96.25

>  <Molecular Formula>
C28H33F2N7O2S

>  <InChI>
InChI=1S/C28H33F2N7O2S/c1-4-14-40(38,39)34-23-7-6-22(29)28(26(23)30)37-17-21(19-15-31-18-32-16-19)27-24(37)8-9-25(33-27)35(3)20-10-12-36(5-2)13-11-20/h6-9,15-18,20,34H,4-5,10-14H2,1-3H3

>  <InChI Key>
AEJACXAFHXBVHF-UHFFFAOYSA-N

>  <BindingDB>
50457446

>  <PubChem>
60152613

>  <ChEMBL>
CHEMBL4212692

$$$$
123
Actelion Java MolfileCreator 2.0

  0  0  0  0  0  0              0 V3000
M  V30 BEGIN CTAB
M  V30 COUNTS 41 44 0 0 0
M  V30 BEGIN ATOM
M  V30 1 F 8.6733 3.8193 0.0 0
M  V30 2 C 8.4654 2.8411 0.0 0
M  V30 3 C 7.5144 2.5321 0.0 0
M  V30 4 C 9.2086 2.172 0.0 0
M  V30 5 C 7.3065 1.554 0.0 0
M  V30 6 C 9.0007 1.1939 0.0 0
M  V30 7 C 8.0496 0.8848 0.0 0
M  V30 8 C 7.8417 -0.0932 0.0 0
M  V30 9 N 6.9282 -0.5 0.0 0
M  V30 10 C 8.5108 -0.8364 0.0 0
M  V30 11 C 7.0327 -1.4945 0.0 0
M  V30 12 C 6.0621 0.0 0.0 0
M  V30 13 C 9.5054 -0.7318 0.0 0
M  V30 14 C 8.0108 -1.7024 0.0 0
M  V30 15 C 6.2895 -2.1636 0.0 0
M  V30 16 C 5.1961 -0.5 0.0 0
M  V30 17 C 10.0931 -1.5408 0.0 0
M  V30 18 C 9.9121 0.1816 0.0 0
M  V30 19 C 8.4176 -2.6159 0.0 0
M  V30 20 C 5.3385 -1.8546 0.0 0
M  V30 21 C 6.4974 -3.1418 0.0 0
M  V30 22 C 4.3301 0.0 0.0 0 CFG=1
M  V30 23 C 11.0877 -1.4363 0.0 0
M  V30 24 C 10.9066 0.2861 0.0 0
M  V30 25 O 9.4121 -2.7205 0.0 0
M  V30 26 N 7.8298 -3.4249 0.0 0
M  V30 27 O 4.3301 1.0 0.0 0
M  V30 28 C 3.4641 -0.5 0.0 0
M  V30 29 C 11.4944 -0.5228 0.0 0
M  V30 30 C 8.2365 -4.3385 0.0 0
M  V30 31 C 2.598 0.0 0.0 0 CFG=1
M  V30 32 C 7.6487 -5.1475 0.0 0
M  V30 33 C 9.231 -4.443 0.0 0
M  V30 34 O 2.598 1.0 0.0 0
M  V30 35 C 1.732 -0.5 0.0 0
M  V30 36 C 8.0555 -6.0611 0.0 0
M  V30 37 C 9.6378 -5.3566 0.0 0
M  V30 38 C 0.866 0.0 0.0 0
M  V30 39 C 9.05 -6.1656 0.0 0
M  V30 40 O 0.866 1.0 0.0 0
M  V30 41 O 0.0 -0.5 0.0 0
M  V30 END ATOM
M  V30 BEGIN BOND
M  V30 1 1 1 2
M  V30 2 2 2 3
M  V30 3 1 2 4
M  V30 4 1 3 5
M  V30 5 2 4 6
M  V30 6 2 5 7
M  V30 7 1 7 8
M  V30 8 1 8 9
M  V30 9 2 8 10
M  V30 10 1 9 11
M  V30 11 1 9 12
M  V30 12 1 10 13
M  V30 13 1 10 14
M  V30 14 1 11 15
M  V30 15 1 12 16
M  V30 16 2 13 17
M  V30 17 1 13 18
M  V30 18 1 14 19
M  V30 19 1 15 20
M  V30 20 1 15 21
M  V30 21 1 22 16
M  V30 22 1 17 23
M  V30 23 2 18 24
M  V30 24 2 19 25
M  V30 25 1 19 26
M  V30 26 1 22 27 CFG=3
M  V30 27 1 22 28
M  V30 28 2 23 29
M  V30 29 1 26 30
M  V30 30 1 31 28
M  V30 31 2 30 32
M  V30 32 1 30 33
M  V30 33 1 31 34 CFG=3
M  V30 34 1 31 35
M  V30 35 1 32 36
M  V30 36 2 33 37
M  V30 37 1 35 38
M  V30 38 2 36 39
M  V30 39 2 38 40
M  V30 40 1 38 41
M  V30 41 1 6 7
M  V30 42 2 11 14
M  V30 43 1 24 29
M  V30 44 1 37 39
M  V30 END BOND
M  V30 BEGIN COLLECTION
M  V30 MDLV30/STEABS ATOMS=(2 22 31)
M  V30 END COLLECTION
M  V30 END CTAB
M  END
>  <Molecule Name>
Compound 353

>  <Molecule Name 2>
Compound 353

>  <Compound ID>
123

>  <Name>
Atorvastatin

>  <Uniprot>
P04035

>  <Target>
HMGCR

>  <Smiles>
CC(C)C1=C(C(=O)NC2=CC=CC=C2)C(C2=CC=CC=C2)=C(C2=CC=C(F)C=C2)N1CC[C@@H](O)C[C@@H](O)CC(=O)O

>  <Kd (nM)>


>  <Assay (Kd)>


>  <Ki (nM)>


>  <Assay (Ki)>


>  <IC50 (nM)>
12.9

>  <Assay (IC50)>
IC50 of HMGCR

>  <EC50 (nM)>


>  <Assay (EC50)>


>  <Article DOI>
10.1021/jm400179b

>  <Molecular Weight>
558.65

>  <Exact Mass>
558.2530004

>  <XLogP3>
4.96

>  <Heavy Atom Count>
41

>  <Ring Count>
4

>  <Hydrogen Bond Acceptor Count>
5

>  <Hydrogen Bond Donor Count>
4

>  <Rotatable Bond Count>
12

>  <Topological Polar Surface Area>
111.79

>  <Molecular Formula>
C33H35FN2O5

>  <InChI>
InChI=1S/C33H35FN2O5/c1-21(2)31-30(33(41)35-25-11-7-4-8-12-25)29(22-9-5-3-6-10-22)32(23-13-15-24(34)16-14-23)36(31)18-17-26(37)19-27(38)20-28(39)40/h3-16,21,26-27,37-38H,17-20H2,1-2H3,(H,35,41)(H,39,40)/t26-,27-/m1/s1

>  <InChI Key>
XUKUURHRXDUEBC-KAYWLYCHSA-N

>  <BindingDB>
22164

>  <PubChem>
60823

>  <ChEMBL>
CHEMBL1487

$$$$
124
Actelion Java MolfileCreator 2.0

  0  0  0  0  0  0              0 V3000
M  V30 BEGIN CTAB
M  V30 COUNTS 26 27 0 0 0
M  V30 BEGIN ATOM
M  V30 1 I 15.5884 -5.25 0.0 0
M  V30 2 C 14.2894 -4.5 0.0 0
M  V30 3 C 12.9903 -5.25 0.0 0
M  V30 4 C 14.2894 -3.0 0.0 0
M  V30 5 C 11.6913 -4.5 0.0 0
M  V30 6 C 12.9903 -2.25 0.0 0
M  V30 7 F 10.3923 -5.25 0.0 0
M  V30 8 C 11.6913 -3.0 0.0 0
M  V30 9 N 10.3923 -2.25 0.0 0
M  V30 10 C 10.3923 -0.75 0.0 0
M  V30 11 C 11.6913 0.0 0.0 0
M  V30 12 C 9.0932 0.0 0.0 0
M  V30 13 F 12.9903 -0.75 0.0 0
M  V30 14 C 11.6913 1.4999 0.0 0
M  V30 15 C 7.7942 -0.75 0.0 0
M  V30 16 C 9.0932 1.4999 0.0 0
M  V30 17 F 12.9903 2.2499 0.0 0
M  V30 18 C 10.3923 2.2499 0.0 0
M  V30 19 O 6.4951 0.0 0.0 0
M  V30 20 N 7.7942 -2.2499 0.0 0
M  V30 21 O 6.4951 -2.9999 0.0 0
M  V30 22 C 6.4951 -4.4999 0.0 0
M  V30 23 C 5.1961 -5.2499 0.0 0 CFG=2
M  V30 24 O 3.8971 -4.4999 0.0 0
M  V30 25 C 5.1961 -6.75 0.0 0
M  V30 26 O 3.8971 -7.4999 0.0 0
M  V30 END ATOM
M  V30 BEGIN BOND
M  V30 1 1 1 2
M  V30 2 2 2 3
M  V30 3 1 2 4
M  V30 4 1 3 5
M  V30 5 2 4 6
M  V30 6 1 5 7
M  V30 7 2 5 8
M  V30 8 1 8 9
M  V30 9 1 9 10
M  V30 10 2 10 11
M  V30 11 1 10 12
M  V30 12 1 11 13
M  V30 13 1 11 14
M  V30 14 1 12 15
M  V30 15 2 12 16
M  V30 16 1 14 17
M  V30 17 2 14 18
M  V30 18 2 15 19
M  V30 19 1 15 20
M  V30 20 1 20 21
M  V30 21 1 21 22
M  V30 22 1 23 22
M  V30 23 1 23 24 CFG=1
M  V30 24 1 23 25
M  V30 25 1 25 26
M  V30 26 1 6 8
M  V30 27 1 16 18
M  V30 END BOND
M  V30 BEGIN COLLECTION
M  V30 MDLV30/STEABS ATOMS=(1 23)
M  V30 END COLLECTION
M  V30 END CTAB
M  END
>  <Molecule Name>
Compound 354

>  <Molecule Name 2>
Compound 354

>  <Compound ID>
124

>  <Name>
PD0325901

>  <Uniprot>
Q02750

>  <Target>
MEK1

>  <Smiles>
O=C(NOC[C@H](O)CO)C1=CC=C(F)C(F)=C1NC1=CC=C(I)C=C1F

>  <Kd (nM)>


>  <Assay (Kd)>


>  <Ki (nM)>


>  <Assay (Ki)>


>  <IC50 (nM)>
82

>  <Assay (IC50)>
IC50 of MEK1 was tested using the HotSpot kinase assay

>  <EC50 (nM)>


>  <Assay (EC50)>


>  <Article DOI>
10.1021/acs.jmedchem.9b01528

>  <Molecular Weight>
482.196

>  <Exact Mass>
481.9950396

>  <XLogP3>
2.99

>  <Heavy Atom Count>
26

>  <Ring Count>
2

>  <Hydrogen Bond Acceptor Count>
5

>  <Hydrogen Bond Donor Count>
4

>  <Rotatable Bond Count>
7

>  <Topological Polar Surface Area>
90.82

>  <Molecular Formula>
C16H14F3IN2O4

>  <InChI>
InChI=1S/C16H14F3IN2O4/c17-11-3-2-10(16(25)22-26-7-9(24)6-23)15(14(11)19)21-13-4-1-8(20)5-12(13)18/h1-5,9,21,23-24H,6-7H2,(H,22,25)/t9-/m1/s1

>  <InChI Key>
SUDAHWBOROXANE-SECBINFHSA-N

>  <BindingDB>
104963

>  <PubChem>
9826528

>  <ChEMBL>
CHEMBL507361

$$$$
124
Actelion Java MolfileCreator 2.0

  0  0  0  0  0  0              0 V3000
M  V30 BEGIN CTAB
M  V30 COUNTS 26 27 0 0 0
M  V30 BEGIN ATOM
M  V30 1 I 15.5884 -5.25 0.0 0
M  V30 2 C 14.2894 -4.5 0.0 0
M  V30 3 C 12.9903 -5.25 0.0 0
M  V30 4 C 14.2894 -3.0 0.0 0
M  V30 5 C 11.6913 -4.5 0.0 0
M  V30 6 C 12.9903 -2.25 0.0 0
M  V30 7 F 10.3923 -5.25 0.0 0
M  V30 8 C 11.6913 -3.0 0.0 0
M  V30 9 N 10.3923 -2.25 0.0 0
M  V30 10 C 10.3923 -0.75 0.0 0
M  V30 11 C 11.6913 0.0 0.0 0
M  V30 12 C 9.0932 0.0 0.0 0
M  V30 13 F 12.9903 -0.75 0.0 0
M  V30 14 C 11.6913 1.4999 0.0 0
M  V30 15 C 7.7942 -0.75 0.0 0
M  V30 16 C 9.0932 1.4999 0.0 0
M  V30 17 F 12.9903 2.2499 0.0 0
M  V30 18 C 10.3923 2.2499 0.0 0
M  V30 19 O 6.4951 0.0 0.0 0
M  V30 20 N 7.7942 -2.2499 0.0 0
M  V30 21 O 6.4951 -2.9999 0.0 0
M  V30 22 C 6.4951 -4.4999 0.0 0
M  V30 23 C 5.1961 -5.2499 0.0 0 CFG=2
M  V30 24 O 3.8971 -4.4999 0.0 0
M  V30 25 C 5.1961 -6.75 0.0 0
M  V30 26 O 3.8971 -7.4999 0.0 0
M  V30 END ATOM
M  V30 BEGIN BOND
M  V30 1 1 1 2
M  V30 2 2 2 3
M  V30 3 1 2 4
M  V30 4 1 3 5
M  V30 5 2 4 6
M  V30 6 1 5 7
M  V30 7 2 5 8
M  V30 8 1 8 9
M  V30 9 1 9 10
M  V30 10 2 10 11
M  V30 11 1 10 12
M  V30 12 1 11 13
M  V30 13 1 11 14
M  V30 14 1 12 15
M  V30 15 2 12 16
M  V30 16 1 14 17
M  V30 17 2 14 18
M  V30 18 2 15 19
M  V30 19 1 15 20
M  V30 20 1 20 21
M  V30 21 1 21 22
M  V30 22 1 23 22
M  V30 23 1 23 24 CFG=1
M  V30 24 1 23 25
M  V30 25 1 25 26
M  V30 26 1 6 8
M  V30 27 1 16 18
M  V30 END BOND
M  V30 BEGIN COLLECTION
M  V30 MDLV30/STEABS ATOMS=(1 23)
M  V30 END COLLECTION
M  V30 END CTAB
M  END
>  <Molecule Name>
Compound 355

>  <Molecule Name 2>
Compound 355

>  <Compound ID>
124

>  <Name>
PD0325901

>  <Uniprot>
P36507

>  <Target>
MEK2

>  <Smiles>
O=C(NOC[C@H](O)CO)C1=CC=C(F)C(F)=C1NC1=CC=C(I)C=C1F

>  <Kd (nM)>


>  <Assay (Kd)>


>  <Ki (nM)>


>  <Assay (Ki)>


>  <IC50 (nM)>
110

>  <Assay (IC50)>
IC50 of MEK2 was tested using the HotSpot kinase assay

>  <EC50 (nM)>


>  <Assay (EC50)>


>  <Article DOI>
10.1021/acs.jmedchem.9b01528

>  <Molecular Weight>
482.196

>  <Exact Mass>
481.9950396

>  <XLogP3>
2.99

>  <Heavy Atom Count>
26

>  <Ring Count>
2

>  <Hydrogen Bond Acceptor Count>
5

>  <Hydrogen Bond Donor Count>
4

>  <Rotatable Bond Count>
7

>  <Topological Polar Surface Area>
90.82

>  <Molecular Formula>
C16H14F3IN2O4

>  <InChI>
InChI=1S/C16H14F3IN2O4/c17-11-3-2-10(16(25)22-26-7-9(24)6-23)15(14(11)19)21-13-4-1-8(20)5-12(13)18/h1-5,9,21,23-24H,6-7H2,(H,22,25)/t9-/m1/s1

>  <InChI Key>
SUDAHWBOROXANE-SECBINFHSA-N

>  <BindingDB>
104963

>  <PubChem>
9826528

>  <ChEMBL>
CHEMBL507361

$$$$
125
Actelion Java MolfileCreator 2.0

  0  0  0  0  0  0              0 V3000
M  V30 BEGIN CTAB
M  V30 COUNTS 32 35 0 0 0
M  V30 BEGIN ATOM
M  V30 1 S 6.4951 1.5 0.0 0
M  V30 2 O 7.9951 1.4999 0.0 0
M  V30 3 O 7.2451 2.799 0.0 0
M  V30 4 C 5.1961 2.25 0.0 0
M  V30 5 C 6.4951 0.0 0.0 0
M  V30 6 C 3.8971 1.5 0.0 0
M  V30 7 C 5.1961 -0.75 0.0 0
M  V30 8 C 3.8971 0.0 0.0 0
M  V30 9 N 2.598 -0.75 0.0 0
M  V30 10 C 1.299 0.0 0.0 0
M  V30 11 N 1.299 1.5 0.0 0
M  V30 12 C 0.0 -0.75 0.0 0
M  V30 13 S -1.3703 -0.1398 0.0 0
M  V30 14 C -0.1567 -2.2417 0.0 0
M  V30 15 C -2.374 -1.2546 0.0 0
M  V30 16 C -1.624 -2.5536 0.0 0
M  V30 17 C -3.874 -1.2546 0.0 0
M  V30 18 C -2.374 -3.8526 0.0 0
M  V30 19 C -4.624 0.0444 0.0 0
M  V30 20 C -4.624 -2.5536 0.0 0
M  V30 21 O -1.624 -5.1517 0.0 0
M  V30 22 N -3.874 -3.8526 0.0 0
M  V30 23 C -3.874 1.3434 0.0 0
M  V30 24 C -6.124 0.0444 0.0 0
M  V30 25 C -4.624 -5.1517 0.0 0
M  V30 26 C -4.624 2.6425 0.0 0
M  V30 27 C -6.874 1.3434 0.0 0
M  V30 28 O -3.874 3.9415 0.0 0
M  V30 29 C -6.124 2.6425 0.0 0
M  V30 30 C -4.624 5.2405 0.0 0
M  V30 31 O -6.874 3.9415 0.0 0
M  V30 32 C -8.374 3.9415 0.0 0
M  V30 END ATOM
M  V30 BEGIN BOND
M  V30 1 2 1 2
M  V30 2 2 1 3
M  V30 3 1 1 4
M  V30 4 1 1 5
M  V30 5 1 4 6
M  V30 6 1 5 7
M  V30 7 1 6 8
M  V30 8 1 8 9
M  V30 9 1 9 10
M  V30 10 2 10 11
M  V30 11 1 10 12
M  V30 12 1 12 13
M  V30 13 2 12 14
M  V30 14 1 13 15
M  V30 15 1 14 16
M  V30 16 1 15 17
M  V30 17 1 16 18
M  V30 18 1 17 19
M  V30 19 2 17 20
M  V30 20 2 18 21
M  V30 21 1 18 22
M  V30 22 2 19 23
M  V30 23 1 19 24
M  V30 24 1 22 25
M  V30 25 1 23 26
M  V30 26 2 24 27
M  V30 27 1 26 28
M  V30 28 2 26 29
M  V30 29 1 28 30
M  V30 30 1 29 31
M  V30 31 1 31 32
M  V30 32 1 7 8
M  V30 33 2 15 16
M  V30 34 1 20 22
M  V30 35 1 27 29
M  V30 END BOND
M  V30 END CTAB
M  END
>  <Molecule Name>
Compound 356

>  <Molecule Name 2>
Compound 356

>  <Compound ID>
125

>  <Name>
GSK-39

>  <Uniprot>
O60885

>  <Target>
BRD4

>  <Smiles>
COC1=CC=C(C2=CN(C)C(=O)C3=C2SC(C(=N)NC2CCS(=O)(=O)CC2)=C3)C=C1OC

>  <Kd (nM)>


>  <Assay (Kd)>


>  <Ki (nM)>


>  <Assay (Ki)>


>  <IC50 (nM)>
50

>  <Assay (IC50)>
IC50 of BRD4 BD1 was tested by the TR-FRET assay

>  <EC50 (nM)>


>  <Assay (EC50)>


>  <Article DOI>
10.1021/acs.jmedchem.5b00256

>  <Molecular Weight>
475.592

>  <Exact Mass>
475.1235629

>  <XLogP3>
1.98

>  <Heavy Atom Count>
32

>  <Ring Count>
4

>  <Hydrogen Bond Acceptor Count>
8

>  <Hydrogen Bond Donor Count>
2

>  <Rotatable Bond Count>
5

>  <Topological Polar Surface Area>
110.48

>  <Molecular Formula>
C22H25N3O5S2

>  <InChI>
InChI=1S/C22H25N3O5S2/c1-25-12-16(13-4-5-17(29-2)18(10-13)30-3)20-15(22(25)26)11-19(31-20)21(23)24-14-6-8-32(27,28)9-7-14/h4-5,10-12,14H,6-9H2,1-3H3,(H2,23,24)

>  <InChI Key>
KCZMLIMZGLNMQN-UHFFFAOYSA-N

>  <BindingDB>
50148456

>  <PubChem>
127025420

>  <ChEMBL>
CHEMBL3770188

$$$$
125
Actelion Java MolfileCreator 2.0

  0  0  0  0  0  0              0 V3000
M  V30 BEGIN CTAB
M  V30 COUNTS 32 35 0 0 0
M  V30 BEGIN ATOM
M  V30 1 S 6.4951 1.5 0.0 0
M  V30 2 O 7.9951 1.4999 0.0 0
M  V30 3 O 7.2451 2.799 0.0 0
M  V30 4 C 5.1961 2.25 0.0 0
M  V30 5 C 6.4951 0.0 0.0 0
M  V30 6 C 3.8971 1.5 0.0 0
M  V30 7 C 5.1961 -0.75 0.0 0
M  V30 8 C 3.8971 0.0 0.0 0
M  V30 9 N 2.598 -0.75 0.0 0
M  V30 10 C 1.299 0.0 0.0 0
M  V30 11 N 1.299 1.5 0.0 0
M  V30 12 C 0.0 -0.75 0.0 0
M  V30 13 S -1.3703 -0.1398 0.0 0
M  V30 14 C -0.1567 -2.2417 0.0 0
M  V30 15 C -2.374 -1.2546 0.0 0
M  V30 16 C -1.624 -2.5536 0.0 0
M  V30 17 C -3.874 -1.2546 0.0 0
M  V30 18 C -2.374 -3.8526 0.0 0
M  V30 19 C -4.624 0.0444 0.0 0
M  V30 20 C -4.624 -2.5536 0.0 0
M  V30 21 O -1.624 -5.1517 0.0 0
M  V30 22 N -3.874 -3.8526 0.0 0
M  V30 23 C -3.874 1.3434 0.0 0
M  V30 24 C -6.124 0.0444 0.0 0
M  V30 25 C -4.624 -5.1517 0.0 0
M  V30 26 C -4.624 2.6425 0.0 0
M  V30 27 C -6.874 1.3434 0.0 0
M  V30 28 O -3.874 3.9415 0.0 0
M  V30 29 C -6.124 2.6425 0.0 0
M  V30 30 C -4.624 5.2405 0.0 0
M  V30 31 O -6.874 3.9415 0.0 0
M  V30 32 C -8.374 3.9415 0.0 0
M  V30 END ATOM
M  V30 BEGIN BOND
M  V30 1 2 1 2
M  V30 2 2 1 3
M  V30 3 1 1 4
M  V30 4 1 1 5
M  V30 5 1 4 6
M  V30 6 1 5 7
M  V30 7 1 6 8
M  V30 8 1 8 9
M  V30 9 1 9 10
M  V30 10 2 10 11
M  V30 11 1 10 12
M  V30 12 1 12 13
M  V30 13 2 12 14
M  V30 14 1 13 15
M  V30 15 1 14 16
M  V30 16 1 15 17
M  V30 17 1 16 18
M  V30 18 1 17 19
M  V30 19 2 17 20
M  V30 20 2 18 21
M  V30 21 1 18 22
M  V30 22 2 19 23
M  V30 23 1 19 24
M  V30 24 1 22 25
M  V30 25 1 23 26
M  V30 26 2 24 27
M  V30 27 1 26 28
M  V30 28 2 26 29
M  V30 29 1 28 30
M  V30 30 1 29 31
M  V30 31 1 31 32
M  V30 32 1 7 8
M  V30 33 2 15 16
M  V30 34 1 20 22
M  V30 35 1 27 29
M  V30 END BOND
M  V30 END CTAB
M  END
>  <Molecule Name>
Compound 357

>  <Molecule Name 2>
Compound 357

>  <Compound ID>
125

>  <Name>
GSK-39

>  <Uniprot>
Q9NPI1

>  <Target>
BRD7

>  <Smiles>
COC1=CC=C(C2=CN(C)C(=O)C3=C2SC(C(=N)NC2CCS(=O)(=O)CC2)=C3)C=C1OC

>  <Kd (nM)>


>  <Assay (Kd)>


>  <Ki (nM)>


>  <Assay (Ki)>


>  <IC50 (nM)>


>  <Assay (IC50)>


>  <EC50 (nM)>


>  <Assay (EC50)>


>  <Article DOI>
10.1021/acs.jmedchem.5b00256

>  <Molecular Weight>
475.592

>  <Exact Mass>
475.1235629

>  <XLogP3>
1.98

>  <Heavy Atom Count>
32

>  <Ring Count>
4

>  <Hydrogen Bond Acceptor Count>
8

>  <Hydrogen Bond Donor Count>
2

>  <Rotatable Bond Count>
5

>  <Topological Polar Surface Area>
110.48

>  <Molecular Formula>
C22H25N3O5S2

>  <InChI>
InChI=1S/C22H25N3O5S2/c1-25-12-16(13-4-5-17(29-2)18(10-13)30-3)20-15(22(25)26)11-19(31-20)21(23)24-14-6-8-32(27,28)9-7-14/h4-5,10-12,14H,6-9H2,1-3H3,(H2,23,24)

>  <InChI Key>
KCZMLIMZGLNMQN-UHFFFAOYSA-N

>  <BindingDB>
50148456

>  <PubChem>
127025420

>  <ChEMBL>
CHEMBL3770188

$$$$
125
Actelion Java MolfileCreator 2.0

  0  0  0  0  0  0              0 V3000
M  V30 BEGIN CTAB
M  V30 COUNTS 32 35 0 0 0
M  V30 BEGIN ATOM
M  V30 1 S 6.4951 1.5 0.0 0
M  V30 2 O 7.9951 1.4999 0.0 0
M  V30 3 O 7.2451 2.799 0.0 0
M  V30 4 C 5.1961 2.25 0.0 0
M  V30 5 C 6.4951 0.0 0.0 0
M  V30 6 C 3.8971 1.5 0.0 0
M  V30 7 C 5.1961 -0.75 0.0 0
M  V30 8 C 3.8971 0.0 0.0 0
M  V30 9 N 2.598 -0.75 0.0 0
M  V30 10 C 1.299 0.0 0.0 0
M  V30 11 N 1.299 1.5 0.0 0
M  V30 12 C 0.0 -0.75 0.0 0
M  V30 13 S -1.3703 -0.1398 0.0 0
M  V30 14 C -0.1567 -2.2417 0.0 0
M  V30 15 C -2.374 -1.2546 0.0 0
M  V30 16 C -1.624 -2.5536 0.0 0
M  V30 17 C -3.874 -1.2546 0.0 0
M  V30 18 C -2.374 -3.8526 0.0 0
M  V30 19 C -4.624 0.0444 0.0 0
M  V30 20 C -4.624 -2.5536 0.0 0
M  V30 21 O -1.624 -5.1517 0.0 0
M  V30 22 N -3.874 -3.8526 0.0 0
M  V30 23 C -3.874 1.3434 0.0 0
M  V30 24 C -6.124 0.0444 0.0 0
M  V30 25 C -4.624 -5.1517 0.0 0
M  V30 26 C -4.624 2.6425 0.0 0
M  V30 27 C -6.874 1.3434 0.0 0
M  V30 28 O -3.874 3.9415 0.0 0
M  V30 29 C -6.124 2.6425 0.0 0
M  V30 30 C -4.624 5.2405 0.0 0
M  V30 31 O -6.874 3.9415 0.0 0
M  V30 32 C -8.374 3.9415 0.0 0
M  V30 END ATOM
M  V30 BEGIN BOND
M  V30 1 2 1 2
M  V30 2 2 1 3
M  V30 3 1 1 4
M  V30 4 1 1 5
M  V30 5 1 4 6
M  V30 6 1 5 7
M  V30 7 1 6 8
M  V30 8 1 8 9
M  V30 9 1 9 10
M  V30 10 2 10 11
M  V30 11 1 10 12
M  V30 12 1 12 13
M  V30 13 2 12 14
M  V30 14 1 13 15
M  V30 15 1 14 16
M  V30 16 1 15 17
M  V30 17 1 16 18
M  V30 18 1 17 19
M  V30 19 2 17 20
M  V30 20 2 18 21
M  V30 21 1 18 22
M  V30 22 2 19 23
M  V30 23 1 19 24
M  V30 24 1 22 25
M  V30 25 1 23 26
M  V30 26 2 24 27
M  V30 27 1 26 28
M  V30 28 2 26 29
M  V30 29 1 28 30
M  V30 30 1 29 31
M  V30 31 1 31 32
M  V30 32 1 7 8
M  V30 33 2 15 16
M  V30 34 1 20 22
M  V30 35 1 27 29
M  V30 END BOND
M  V30 END CTAB
M  END
>  <Molecule Name>
Compound 358

>  <Molecule Name 2>
Compound 358

>  <Compound ID>
125

>  <Name>
GSK-39

>  <Uniprot>
Q9H8M2

>  <Target>
BRD9

>  <Smiles>
COC1=CC=C(C2=CN(C)C(=O)C3=C2SC(C(=N)NC2CCS(=O)(=O)CC2)=C3)C=C1OC

>  <Kd (nM)>


>  <Assay (Kd)>


>  <Ki (nM)>


>  <Assay (Ki)>


>  <IC50 (nM)>
13

>  <Assay (IC50)>
IC50 was tested by the TR-FRET assay

>  <EC50 (nM)>


>  <Assay (EC50)>


>  <Article DOI>
10.1021/acs.jmedchem.5b00256

>  <Molecular Weight>
475.592

>  <Exact Mass>
475.1235629

>  <XLogP3>
1.98

>  <Heavy Atom Count>
32

>  <Ring Count>
4

>  <Hydrogen Bond Acceptor Count>
8

>  <Hydrogen Bond Donor Count>
2

>  <Rotatable Bond Count>
5

>  <Topological Polar Surface Area>
110.48

>  <Molecular Formula>
C22H25N3O5S2

>  <InChI>
InChI=1S/C22H25N3O5S2/c1-25-12-16(13-4-5-17(29-2)18(10-13)30-3)20-15(22(25)26)11-19(31-20)21(23)24-14-6-8-32(27,28)9-7-14/h4-5,10-12,14H,6-9H2,1-3H3,(H2,23,24)

>  <InChI Key>
KCZMLIMZGLNMQN-UHFFFAOYSA-N

>  <BindingDB>
50148456

>  <PubChem>
127025420

>  <ChEMBL>
CHEMBL3770188

$$$$
126
Actelion Java MolfileCreator 2.0

  0  0  0  0  0  0              0 V3000
M  V30 BEGIN CTAB
M  V30 COUNTS 18 20 0 0 0
M  V30 BEGIN ATOM
M  V30 1 S 5.2436 -1.5932 0.0 0
M  V30 2 C 4.3301 -1.9999 0.0 0
M  V30 3 C 5.9128 -2.3364 0.0 0
M  V30 4 N 4.4346 -2.9945 0.0 0
M  V30 5 C 3.4641 -1.4999 0.0 0
M  V30 6 C 5.4128 -3.2024 0.0 0
M  V30 7 C 6.9128 -2.3364 0.0 0
M  V30 8 C 3.4641 -0.5 0.0 0
M  V30 9 C 2.598 -1.9999 0.0 0
M  V30 10 C 5.9128 -4.0684 0.0 0
M  V30 11 C 7.4128 -3.2024 0.0 0
M  V30 12 C 2.598 0.0 0.0 0
M  V30 13 C 1.732 -1.5 0.0 0
M  V30 14 C 6.9128 -4.0684 0.0 0
M  V30 15 C 8.4128 -3.2024 0.0 0
M  V30 16 C 1.732 -0.5 0.0 0
M  V30 17 N 0.866 0.0 0.0 0
M  V30 18 C 0.0 -0.5 0.0 0
M  V30 END ATOM
M  V30 BEGIN BOND
M  V30 1 1 1 2
M  V30 2 1 1 3
M  V30 3 2 2 4
M  V30 4 1 2 5
M  V30 5 2 3 6
M  V30 6 1 3 7
M  V30 7 2 5 8
M  V30 8 1 5 9
M  V30 9 1 6 10
M  V30 10 2 7 11
M  V30 11 1 8 12
M  V30 12 2 9 13
M  V30 13 2 10 14
M  V30 14 1 11 15
M  V30 15 2 12 16
M  V30 16 1 16 17
M  V30 17 1 17 18
M  V30 18 1 4 6
M  V30 19 1 11 14
M  V30 20 1 13 16
M  V30 END BOND
M  V30 END CTAB
M  END
>  <Molecule Name>
Compound 359

>  <Molecule Name 2>
Compound 359

>  <Compound ID>
126

>  <Name>


>  <Uniprot>
P42858

>  <Target>
Htt

>  <Smiles>
CNC1=CC=C(C2=NC3=CC=C(C)C=C3S2)C=C1

>  <Kd (nM)>


>  <Assay (Kd)>


>  <Ki (nM)>


>  <Assay (Ki)>


>  <IC50 (nM)>


>  <Assay (IC50)>


>  <EC50 (nM)>


>  <Assay (EC50)>


>  <Article DOI>
10.1002/anie.201706529

>  <Molecular Weight>
254.358

>  <Exact Mass>
254.0877694

>  <XLogP3>
4.61

>  <Heavy Atom Count>
18

>  <Ring Count>
3

>  <Hydrogen Bond Acceptor Count>
3

>  <Hydrogen Bond Donor Count>
1

>  <Rotatable Bond Count>
2

>  <Topological Polar Surface Area>
24.92

>  <Molecular Formula>
C15H14N2S

>  <InChI>
InChI=1S/C15H14N2S/c1-10-3-8-13-14(9-10)18-15(17-13)11-4-6-12(16-2)7-5-11/h3-9,16H,1-2H3

>  <InChI Key>
GGFYWXBSNMOKOK-UHFFFAOYSA-N

>  <BindingDB>
50109051

>  <PubChem>
10422457

>  <ChEMBL>
CHEMBL330529

$$$$
127
Actelion Java MolfileCreator 2.0

  0  0  0  0  0  0              0 V3000
M  V30 BEGIN CTAB
M  V30 COUNTS 22 24 0 0 0
M  V30 BEGIN ATOM
M  V30 1 S 2.7026 0.9945 0.0 0
M  V30 2 C 2.598 0.0 0.0 0
M  V30 3 C 3.6807 1.2024 0.0 0
M  V30 4 N 3.5116 -0.4067 0.0 0
M  V30 5 N 1.732 -0.5 0.0 0
M  V30 6 C 4.1807 0.3364 0.0 0
M  V30 7 C 4.1807 2.0684 0.0 0
M  V30 8 N 0.866 0.0 0.0 0
M  V30 9 C 5.1807 0.3364 0.0 0
M  V30 10 C 5.1807 2.0684 0.0 0
M  V30 11 C 0.0 -0.5 0.0 0
M  V30 12 C 5.6807 1.2024 0.0 0
M  V30 13 O 5.6807 2.9344 0.0 0
M  V30 14 C -0.866 0.0 0.0 0
M  V30 15 C 0.0 -1.4999 0.0 0
M  V30 16 C 5.1807 3.8005 0.0 0
M  V30 17 C -1.732 -0.4999 0.0 0
M  V30 18 C -0.866 -1.9999 0.0 0
M  V30 19 C -1.732 -1.4999 0.0 0
M  V30 20 N -2.598 -1.9999 0.0 0
M  V30 21 C -3.4641 -1.4999 0.0 0
M  V30 22 C -2.598 -2.9999 0.0 0
M  V30 END ATOM
M  V30 BEGIN BOND
M  V30 1 1 1 2
M  V30 2 1 1 3
M  V30 3 2 2 4
M  V30 4 1 2 5
M  V30 5 2 3 6
M  V30 6 1 3 7
M  V30 7 2 5 8
M  V30 8 1 6 9
M  V30 9 2 7 10
M  V30 10 1 8 11
M  V30 11 2 9 12
M  V30 12 1 10 13
M  V30 13 2 11 14
M  V30 14 1 11 15
M  V30 15 1 13 16
M  V30 16 1 14 17
M  V30 17 2 15 18
M  V30 18 2 17 19
M  V30 19 1 19 20
M  V30 20 1 20 21
M  V30 21 1 20 22
M  V30 22 1 4 6
M  V30 23 1 10 12
M  V30 24 1 18 19
M  V30 END BOND
M  V30 END CTAB
M  END
>  <Molecule Name>
Compound 360

>  <Molecule Name 2>
Compound 360

>  <Compound ID>
127

>  <Name>


>  <Uniprot>
P42858

>  <Target>
Htt

>  <Smiles>
COC1=CC=C2N=C(/N=N/C3=CC=C(N(C)C)C=C3)SC2=C1

>  <Kd (nM)>


>  <Assay (Kd)>


>  <Ki (nM)>


>  <Assay (Ki)>


>  <IC50 (nM)>


>  <Assay (IC50)>


>  <EC50 (nM)>


>  <Assay (EC50)>


>  <Article DOI>
10.1002/anie.201706529

>  <Molecular Weight>
312.398

>  <Exact Mass>
312.1044821

>  <XLogP3>
4.64

>  <Heavy Atom Count>
22

>  <Ring Count>
3

>  <Hydrogen Bond Acceptor Count>
6

>  <Hydrogen Bond Donor Count>
0

>  <Rotatable Bond Count>
4

>  <Topological Polar Surface Area>
50.08

>  <Molecular Formula>
C16H16N4OS

>  <InChI>
InChI=1S/C16H16N4OS/c1-20(2)12-6-4-11(5-7-12)18-19-16-17-14-9-8-13(21-3)10-15(14)22-16/h4-10H,1-3H3/b19-18+

>  <InChI Key>
AVPFTROGVGTTEC-VHEBQXMUSA-N

>  <BindingDB>
50363719

>  <PubChem>
77390

>  <ChEMBL>
CHEMBL1378812

$$$$
128
Actelion Java MolfileCreator 2.0

  0  0  0  0  0  0              0 V3000
M  V30 BEGIN CTAB
M  V30 COUNTS 29 31 0 0 0
M  V30 BEGIN ATOM
M  V30 1 Br 2.598 1.0 0.0 0
M  V30 2 C 2.598 0.0 0.0 0
M  V30 3 C 1.732 -0.5 0.0 0
M  V30 4 C 3.4641 -0.4999 0.0 0
M  V30 5 N 1.732 -1.5 0.0 0
M  V30 6 N 0.866 0.0 0.0 0
M  V30 7 N 3.4641 -1.4999 0.0 0
M  V30 8 C 2.598 -1.9999 0.0 0
M  V30 9 C 0.0 -0.5 0.0 0
M  V30 10 N 2.598 -2.9999 0.0 0
M  V30 11 C -0.866 0.0 0.0 0
M  V30 12 C 0.0 -1.4999 0.0 0
M  V30 13 C 3.4641 -3.4999 0.0 0
M  V30 14 C -1.732 -0.4999 0.0 0
M  V30 15 C -0.866 1.0 0.0 0
M  V30 16 C -0.866 -1.9999 0.0 0
M  V30 17 C 3.4641 -4.4999 0.0 0
M  V30 18 C 4.3301 -2.9999 0.0 0
M  V30 19 F -2.598 0.0 0.0 0
M  V30 20 C -1.732 -1.4999 0.0 0
M  V30 21 O 0.0 1.5 0.0 0
M  V30 22 N -1.732 1.5 0.0 0
M  V30 23 C 4.3301 -4.9999 0.0 0
M  V30 24 C 5.1961 -3.4999 0.0 0
M  V30 25 N 5.1961 -4.4999 0.0 0
M  V30 26 S 6.0621 -4.9999 0.0 0
M  V30 27 O 5.5621 -5.866 0.0 0
M  V30 28 O 6.5621 -4.1339 0.0 0
M  V30 29 C 6.9282 -5.4999 0.0 0
M  V30 END ATOM
M  V30 BEGIN BOND
M  V30 1 1 1 2
M  V30 2 2 2 3
M  V30 3 1 2 4
M  V30 4 1 3 5
M  V30 5 1 3 6
M  V30 6 2 4 7
M  V30 7 2 5 8
M  V30 8 1 6 9
M  V30 9 1 8 10
M  V30 10 2 9 11
M  V30 11 1 9 12
M  V30 12 1 10 13
M  V30 13 1 11 14
M  V30 14 1 11 15
M  V30 15 2 12 16
M  V30 16 1 13 17
M  V30 17 1 13 18
M  V30 18 1 14 19
M  V30 19 2 14 20
M  V30 20 2 15 21
M  V30 21 1 15 22
M  V30 22 1 17 23
M  V30 23 1 18 24
M  V30 24 1 23 25
M  V30 25 1 25 26
M  V30 26 2 26 27
M  V30 27 2 26 28
M  V30 28 1 26 29
M  V30 29 1 7 8
M  V30 30 1 16 20
M  V30 31 1 24 25
M  V30 END BOND
M  V30 END CTAB
M  END
>  <Molecule Name>
Compound 361

>  <Molecule Name 2>
Compound 361

>  <Compound ID>
128

>  <Name>
TMX-2039

>  <Uniprot>
O14965

>  <Target>
AURKA

>  <Smiles>
CS(=O)(=O)N1CCC(NC2=NC=C(Br)C(NC3=CC=CC(F)=C3C(N)=O)=N2)CC1

>  <Kd (nM)>


>  <Assay (Kd)>


>  <Ki (nM)>


>  <Assay (Ki)>


>  <IC50 (nM)>


>  <Assay (IC50)>


>  <EC50 (nM)>


>  <Assay (EC50)>


>  <Article DOI>
10.1016/j.cell.2020.10.038

>  <Molecular Weight>
487.355

>  <Exact Mass>
486.0484998

>  <XLogP3>
2.46

>  <Heavy Atom Count>
29

>  <Ring Count>
3

>  <Hydrogen Bond Acceptor Count>
7

>  <Hydrogen Bond Donor Count>
3

>  <Rotatable Bond Count>
6

>  <Topological Polar Surface Area>
130.31

>  <Molecular Formula>
C17H20BrFN6O3S

>  <InChI>
InChI=1S/C17H20BrFN6O3S/c1-29(27,28)25-7-5-10(6-8-25)22-17-21-9-11(18)16(24-17)23-13-4-2-3-12(19)14(13)15(20)26/h2-4,9-10H,5-8H2,1H3,(H2,20,26)(H2,21,22,23,24)

>  <InChI Key>
WYMXMVOAIHZIFF-UHFFFAOYSA-N

>  <BindingDB>


>  <PubChem>
91800663

>  <ChEMBL>
CHEMBL3431194

$$$$
128
Actelion Java MolfileCreator 2.0

  0  0  0  0  0  0              0 V3000
M  V30 BEGIN CTAB
M  V30 COUNTS 29 31 0 0 0
M  V30 BEGIN ATOM
M  V30 1 Br 2.598 1.0 0.0 0
M  V30 2 C 2.598 0.0 0.0 0
M  V30 3 C 1.732 -0.5 0.0 0
M  V30 4 C 3.4641 -0.4999 0.0 0
M  V30 5 N 1.732 -1.5 0.0 0
M  V30 6 N 0.866 0.0 0.0 0
M  V30 7 N 3.4641 -1.4999 0.0 0
M  V30 8 C 2.598 -1.9999 0.0 0
M  V30 9 C 0.0 -0.5 0.0 0
M  V30 10 N 2.598 -2.9999 0.0 0
M  V30 11 C -0.866 0.0 0.0 0
M  V30 12 C 0.0 -1.4999 0.0 0
M  V30 13 C 3.4641 -3.4999 0.0 0
M  V30 14 C -1.732 -0.4999 0.0 0
M  V30 15 C -0.866 1.0 0.0 0
M  V30 16 C -0.866 -1.9999 0.0 0
M  V30 17 C 3.4641 -4.4999 0.0 0
M  V30 18 C 4.3301 -2.9999 0.0 0
M  V30 19 F -2.598 0.0 0.0 0
M  V30 20 C -1.732 -1.4999 0.0 0
M  V30 21 O 0.0 1.5 0.0 0
M  V30 22 N -1.732 1.5 0.0 0
M  V30 23 C 4.3301 -4.9999 0.0 0
M  V30 24 C 5.1961 -3.4999 0.0 0
M  V30 25 N 5.1961 -4.4999 0.0 0
M  V30 26 S 6.0621 -4.9999 0.0 0
M  V30 27 O 5.5621 -5.866 0.0 0
M  V30 28 O 6.5621 -4.1339 0.0 0
M  V30 29 C 6.9282 -5.4999 0.0 0
M  V30 END ATOM
M  V30 BEGIN BOND
M  V30 1 1 1 2
M  V30 2 2 2 3
M  V30 3 1 2 4
M  V30 4 1 3 5
M  V30 5 1 3 6
M  V30 6 2 4 7
M  V30 7 2 5 8
M  V30 8 1 6 9
M  V30 9 1 8 10
M  V30 10 2 9 11
M  V30 11 1 9 12
M  V30 12 1 10 13
M  V30 13 1 11 14
M  V30 14 1 11 15
M  V30 15 2 12 16
M  V30 16 1 13 17
M  V30 17 1 13 18
M  V30 18 1 14 19
M  V30 19 2 14 20
M  V30 20 2 15 21
M  V30 21 1 15 22
M  V30 22 1 17 23
M  V30 23 1 18 24
M  V30 24 1 23 25
M  V30 25 1 25 26
M  V30 26 2 26 27
M  V30 27 2 26 28
M  V30 28 1 26 29
M  V30 29 1 7 8
M  V30 30 1 16 20
M  V30 31 1 24 25
M  V30 END BOND
M  V30 END CTAB
M  END
>  <Molecule Name>
Compound 362

>  <Molecule Name 2>
Compound 362

>  <Compound ID>
128

>  <Name>
TMX-2039

>  <Uniprot>
Q9NYV4

>  <Target>
CDK12

>  <Smiles>
CS(=O)(=O)N1CCC(NC2=NC=C(Br)C(NC3=CC=CC(F)=C3C(N)=O)=N2)CC1

>  <Kd (nM)>


>  <Assay (Kd)>


>  <Ki (nM)>


>  <Assay (Ki)>


>  <IC50 (nM)>


>  <Assay (IC50)>


>  <EC50 (nM)>


>  <Assay (EC50)>


>  <Article DOI>
10.1016/j.cell.2020.10.038

>  <Molecular Weight>
487.355

>  <Exact Mass>
486.0484998

>  <XLogP3>
2.46

>  <Heavy Atom Count>
29

>  <Ring Count>
3

>  <Hydrogen Bond Acceptor Count>
7

>  <Hydrogen Bond Donor Count>
3

>  <Rotatable Bond Count>
6

>  <Topological Polar Surface Area>
130.31

>  <Molecular Formula>
C17H20BrFN6O3S

>  <InChI>
InChI=1S/C17H20BrFN6O3S/c1-29(27,28)25-7-5-10(6-8-25)22-17-21-9-11(18)16(24-17)23-13-4-2-3-12(19)14(13)15(20)26/h2-4,9-10H,5-8H2,1H3,(H2,20,26)(H2,21,22,23,24)

>  <InChI Key>
WYMXMVOAIHZIFF-UHFFFAOYSA-N

>  <BindingDB>


>  <PubChem>
91800663

>  <ChEMBL>
CHEMBL3431194

$$$$
128
Actelion Java MolfileCreator 2.0

  0  0  0  0  0  0              0 V3000
M  V30 BEGIN CTAB
M  V30 COUNTS 29 31 0 0 0
M  V30 BEGIN ATOM
M  V30 1 Br 2.598 1.0 0.0 0
M  V30 2 C 2.598 0.0 0.0 0
M  V30 3 C 1.732 -0.5 0.0 0
M  V30 4 C 3.4641 -0.4999 0.0 0
M  V30 5 N 1.732 -1.5 0.0 0
M  V30 6 N 0.866 0.0 0.0 0
M  V30 7 N 3.4641 -1.4999 0.0 0
M  V30 8 C 2.598 -1.9999 0.0 0
M  V30 9 C 0.0 -0.5 0.0 0
M  V30 10 N 2.598 -2.9999 0.0 0
M  V30 11 C -0.866 0.0 0.0 0
M  V30 12 C 0.0 -1.4999 0.0 0
M  V30 13 C 3.4641 -3.4999 0.0 0
M  V30 14 C -1.732 -0.4999 0.0 0
M  V30 15 C -0.866 1.0 0.0 0
M  V30 16 C -0.866 -1.9999 0.0 0
M  V30 17 C 3.4641 -4.4999 0.0 0
M  V30 18 C 4.3301 -2.9999 0.0 0
M  V30 19 F -2.598 0.0 0.0 0
M  V30 20 C -1.732 -1.4999 0.0 0
M  V30 21 O 0.0 1.5 0.0 0
M  V30 22 N -1.732 1.5 0.0 0
M  V30 23 C 4.3301 -4.9999 0.0 0
M  V30 24 C 5.1961 -3.4999 0.0 0
M  V30 25 N 5.1961 -4.4999 0.0 0
M  V30 26 S 6.0621 -4.9999 0.0 0
M  V30 27 O 5.5621 -5.866 0.0 0
M  V30 28 O 6.5621 -4.1339 0.0 0
M  V30 29 C 6.9282 -5.4999 0.0 0
M  V30 END ATOM
M  V30 BEGIN BOND
M  V30 1 1 1 2
M  V30 2 2 2 3
M  V30 3 1 2 4
M  V30 4 1 3 5
M  V30 5 1 3 6
M  V30 6 2 4 7
M  V30 7 2 5 8
M  V30 8 1 6 9
M  V30 9 1 8 10
M  V30 10 2 9 11
M  V30 11 1 9 12
M  V30 12 1 10 13
M  V30 13 1 11 14
M  V30 14 1 11 15
M  V30 15 2 12 16
M  V30 16 1 13 17
M  V30 17 1 13 18
M  V30 18 1 14 19
M  V30 19 2 14 20
M  V30 20 2 15 21
M  V30 21 1 15 22
M  V30 22 1 17 23
M  V30 23 1 18 24
M  V30 24 1 23 25
M  V30 25 1 25 26
M  V30 26 2 26 27
M  V30 27 2 26 28
M  V30 28 1 26 29
M  V30 29 1 7 8
M  V30 30 1 16 20
M  V30 31 1 24 25
M  V30 END BOND
M  V30 END CTAB
M  END
>  <Molecule Name>
Compound 363

>  <Molecule Name 2>
Compound 363

>  <Compound ID>
128

>  <Name>
TMX-2039

>  <Uniprot>
Q00536

>  <Target>
CDK16

>  <Smiles>
CS(=O)(=O)N1CCC(NC2=NC=C(Br)C(NC3=CC=CC(F)=C3C(N)=O)=N2)CC1

>  <Kd (nM)>


>  <Assay (Kd)>


>  <Ki (nM)>


>  <Assay (Ki)>


>  <IC50 (nM)>


>  <Assay (IC50)>


>  <EC50 (nM)>


>  <Assay (EC50)>


>  <Article DOI>
10.1016/j.cell.2020.10.038

>  <Molecular Weight>
487.355

>  <Exact Mass>
486.0484998

>  <XLogP3>
2.46

>  <Heavy Atom Count>
29

>  <Ring Count>
3

>  <Hydrogen Bond Acceptor Count>
7

>  <Hydrogen Bond Donor Count>
3

>  <Rotatable Bond Count>
6

>  <Topological Polar Surface Area>
130.31

>  <Molecular Formula>
C17H20BrFN6O3S

>  <InChI>
InChI=1S/C17H20BrFN6O3S/c1-29(27,28)25-7-5-10(6-8-25)22-17-21-9-11(18)16(24-17)23-13-4-2-3-12(19)14(13)15(20)26/h2-4,9-10H,5-8H2,1H3,(H2,20,26)(H2,21,22,23,24)

>  <InChI Key>
WYMXMVOAIHZIFF-UHFFFAOYSA-N

>  <BindingDB>


>  <PubChem>
91800663

>  <ChEMBL>
CHEMBL3431194

$$$$
128
Actelion Java MolfileCreator 2.0

  0  0  0  0  0  0              0 V3000
M  V30 BEGIN CTAB
M  V30 COUNTS 29 31 0 0 0
M  V30 BEGIN ATOM
M  V30 1 Br 2.598 1.0 0.0 0
M  V30 2 C 2.598 0.0 0.0 0
M  V30 3 C 1.732 -0.5 0.0 0
M  V30 4 C 3.4641 -0.4999 0.0 0
M  V30 5 N 1.732 -1.5 0.0 0
M  V30 6 N 0.866 0.0 0.0 0
M  V30 7 N 3.4641 -1.4999 0.0 0
M  V30 8 C 2.598 -1.9999 0.0 0
M  V30 9 C 0.0 -0.5 0.0 0
M  V30 10 N 2.598 -2.9999 0.0 0
M  V30 11 C -0.866 0.0 0.0 0
M  V30 12 C 0.0 -1.4999 0.0 0
M  V30 13 C 3.4641 -3.4999 0.0 0
M  V30 14 C -1.732 -0.4999 0.0 0
M  V30 15 C -0.866 1.0 0.0 0
M  V30 16 C -0.866 -1.9999 0.0 0
M  V30 17 C 3.4641 -4.4999 0.0 0
M  V30 18 C 4.3301 -2.9999 0.0 0
M  V30 19 F -2.598 0.0 0.0 0
M  V30 20 C -1.732 -1.4999 0.0 0
M  V30 21 O 0.0 1.5 0.0 0
M  V30 22 N -1.732 1.5 0.0 0
M  V30 23 C 4.3301 -4.9999 0.0 0
M  V30 24 C 5.1961 -3.4999 0.0 0
M  V30 25 N 5.1961 -4.4999 0.0 0
M  V30 26 S 6.0621 -4.9999 0.0 0
M  V30 27 O 5.5621 -5.866 0.0 0
M  V30 28 O 6.5621 -4.1339 0.0 0
M  V30 29 C 6.9282 -5.4999 0.0 0
M  V30 END ATOM
M  V30 BEGIN BOND
M  V30 1 1 1 2
M  V30 2 2 2 3
M  V30 3 1 2 4
M  V30 4 1 3 5
M  V30 5 1 3 6
M  V30 6 2 4 7
M  V30 7 2 5 8
M  V30 8 1 6 9
M  V30 9 1 8 10
M  V30 10 2 9 11
M  V30 11 1 9 12
M  V30 12 1 10 13
M  V30 13 1 11 14
M  V30 14 1 11 15
M  V30 15 2 12 16
M  V30 16 1 13 17
M  V30 17 1 13 18
M  V30 18 1 14 19
M  V30 19 2 14 20
M  V30 20 2 15 21
M  V30 21 1 15 22
M  V30 22 1 17 23
M  V30 23 1 18 24
M  V30 24 1 23 25
M  V30 25 1 25 26
M  V30 26 2 26 27
M  V30 27 2 26 28
M  V30 28 1 26 29
M  V30 29 1 7 8
M  V30 30 1 16 20
M  V30 31 1 24 25
M  V30 END BOND
M  V30 END CTAB
M  END
>  <Molecule Name>
Compound 364

>  <Molecule Name 2>
Compound 364

>  <Compound ID>
128

>  <Name>
TMX-2039

>  <Uniprot>
Q00537

>  <Target>
CDK17

>  <Smiles>
CS(=O)(=O)N1CCC(NC2=NC=C(Br)C(NC3=CC=CC(F)=C3C(N)=O)=N2)CC1

>  <Kd (nM)>


>  <Assay (Kd)>


>  <Ki (nM)>


>  <Assay (Ki)>


>  <IC50 (nM)>


>  <Assay (IC50)>


>  <EC50 (nM)>


>  <Assay (EC50)>


>  <Article DOI>
10.1016/j.cell.2020.10.038

>  <Molecular Weight>
487.355

>  <Exact Mass>
486.0484998

>  <XLogP3>
2.46

>  <Heavy Atom Count>
29

>  <Ring Count>
3

>  <Hydrogen Bond Acceptor Count>
7

>  <Hydrogen Bond Donor Count>
3

>  <Rotatable Bond Count>
6

>  <Topological Polar Surface Area>
130.31

>  <Molecular Formula>
C17H20BrFN6O3S

>  <InChI>
InChI=1S/C17H20BrFN6O3S/c1-29(27,28)25-7-5-10(6-8-25)22-17-21-9-11(18)16(24-17)23-13-4-2-3-12(19)14(13)15(20)26/h2-4,9-10H,5-8H2,1H3,(H2,20,26)(H2,21,22,23,24)

>  <InChI Key>
WYMXMVOAIHZIFF-UHFFFAOYSA-N

>  <BindingDB>


>  <PubChem>
91800663

>  <ChEMBL>
CHEMBL3431194

$$$$
128
Actelion Java MolfileCreator 2.0

  0  0  0  0  0  0              0 V3000
M  V30 BEGIN CTAB
M  V30 COUNTS 29 31 0 0 0
M  V30 BEGIN ATOM
M  V30 1 Br 2.598 1.0 0.0 0
M  V30 2 C 2.598 0.0 0.0 0
M  V30 3 C 1.732 -0.5 0.0 0
M  V30 4 C 3.4641 -0.4999 0.0 0
M  V30 5 N 1.732 -1.5 0.0 0
M  V30 6 N 0.866 0.0 0.0 0
M  V30 7 N 3.4641 -1.4999 0.0 0
M  V30 8 C 2.598 -1.9999 0.0 0
M  V30 9 C 0.0 -0.5 0.0 0
M  V30 10 N 2.598 -2.9999 0.0 0
M  V30 11 C -0.866 0.0 0.0 0
M  V30 12 C 0.0 -1.4999 0.0 0
M  V30 13 C 3.4641 -3.4999 0.0 0
M  V30 14 C -1.732 -0.4999 0.0 0
M  V30 15 C -0.866 1.0 0.0 0
M  V30 16 C -0.866 -1.9999 0.0 0
M  V30 17 C 3.4641 -4.4999 0.0 0
M  V30 18 C 4.3301 -2.9999 0.0 0
M  V30 19 F -2.598 0.0 0.0 0
M  V30 20 C -1.732 -1.4999 0.0 0
M  V30 21 O 0.0 1.5 0.0 0
M  V30 22 N -1.732 1.5 0.0 0
M  V30 23 C 4.3301 -4.9999 0.0 0
M  V30 24 C 5.1961 -3.4999 0.0 0
M  V30 25 N 5.1961 -4.4999 0.0 0
M  V30 26 S 6.0621 -4.9999 0.0 0
M  V30 27 O 5.5621 -5.866 0.0 0
M  V30 28 O 6.5621 -4.1339 0.0 0
M  V30 29 C 6.9282 -5.4999 0.0 0
M  V30 END ATOM
M  V30 BEGIN BOND
M  V30 1 1 1 2
M  V30 2 2 2 3
M  V30 3 1 2 4
M  V30 4 1 3 5
M  V30 5 1 3 6
M  V30 6 2 4 7
M  V30 7 2 5 8
M  V30 8 1 6 9
M  V30 9 1 8 10
M  V30 10 2 9 11
M  V30 11 1 9 12
M  V30 12 1 10 13
M  V30 13 1 11 14
M  V30 14 1 11 15
M  V30 15 2 12 16
M  V30 16 1 13 17
M  V30 17 1 13 18
M  V30 18 1 14 19
M  V30 19 2 14 20
M  V30 20 2 15 21
M  V30 21 1 15 22
M  V30 22 1 17 23
M  V30 23 1 18 24
M  V30 24 1 23 25
M  V30 25 1 25 26
M  V30 26 2 26 27
M  V30 27 2 26 28
M  V30 28 1 26 29
M  V30 29 1 7 8
M  V30 30 1 16 20
M  V30 31 1 24 25
M  V30 END BOND
M  V30 END CTAB
M  END
>  <Molecule Name>
Compound 365

>  <Molecule Name 2>
Compound 365

>  <Compound ID>
128

>  <Name>
TMX-2039

>  <Uniprot>
P06493

>  <Target>
CDK1

>  <Smiles>
CS(=O)(=O)N1CCC(NC2=NC=C(Br)C(NC3=CC=CC(F)=C3C(N)=O)=N2)CC1

>  <Kd (nM)>


>  <Assay (Kd)>


>  <Ki (nM)>


>  <Assay (Ki)>


>  <IC50 (nM)>
2.6

>  <Assay (IC50)>
IC50 of CDK1/cyclin B was tested by the Z'-LYTE assays

>  <EC50 (nM)>


>  <Assay (EC50)>


>  <Article DOI>
10.1002/anie.202004087

>  <Molecular Weight>
487.355

>  <Exact Mass>
486.0484998

>  <XLogP3>
2.46

>  <Heavy Atom Count>
29

>  <Ring Count>
3

>  <Hydrogen Bond Acceptor Count>
7

>  <Hydrogen Bond Donor Count>
3

>  <Rotatable Bond Count>
6

>  <Topological Polar Surface Area>
130.31

>  <Molecular Formula>
C17H20BrFN6O3S

>  <InChI>
InChI=1S/C17H20BrFN6O3S/c1-29(27,28)25-7-5-10(6-8-25)22-17-21-9-11(18)16(24-17)23-13-4-2-3-12(19)14(13)15(20)26/h2-4,9-10H,5-8H2,1H3,(H2,20,26)(H2,21,22,23,24)

>  <InChI Key>
WYMXMVOAIHZIFF-UHFFFAOYSA-N

>  <BindingDB>


>  <PubChem>
91800663

>  <ChEMBL>
CHEMBL3431194

$$$$
128
Actelion Java MolfileCreator 2.0

  0  0  0  0  0  0              0 V3000
M  V30 BEGIN CTAB
M  V30 COUNTS 29 31 0 0 0
M  V30 BEGIN ATOM
M  V30 1 Br 2.598 1.0 0.0 0
M  V30 2 C 2.598 0.0 0.0 0
M  V30 3 C 1.732 -0.5 0.0 0
M  V30 4 C 3.4641 -0.4999 0.0 0
M  V30 5 N 1.732 -1.5 0.0 0
M  V30 6 N 0.866 0.0 0.0 0
M  V30 7 N 3.4641 -1.4999 0.0 0
M  V30 8 C 2.598 -1.9999 0.0 0
M  V30 9 C 0.0 -0.5 0.0 0
M  V30 10 N 2.598 -2.9999 0.0 0
M  V30 11 C -0.866 0.0 0.0 0
M  V30 12 C 0.0 -1.4999 0.0 0
M  V30 13 C 3.4641 -3.4999 0.0 0
M  V30 14 C -1.732 -0.4999 0.0 0
M  V30 15 C -0.866 1.0 0.0 0
M  V30 16 C -0.866 -1.9999 0.0 0
M  V30 17 C 3.4641 -4.4999 0.0 0
M  V30 18 C 4.3301 -2.9999 0.0 0
M  V30 19 F -2.598 0.0 0.0 0
M  V30 20 C -1.732 -1.4999 0.0 0
M  V30 21 O 0.0 1.5 0.0 0
M  V30 22 N -1.732 1.5 0.0 0
M  V30 23 C 4.3301 -4.9999 0.0 0
M  V30 24 C 5.1961 -3.4999 0.0 0
M  V30 25 N 5.1961 -4.4999 0.0 0
M  V30 26 S 6.0621 -4.9999 0.0 0
M  V30 27 O 5.5621 -5.866 0.0 0
M  V30 28 O 6.5621 -4.1339 0.0 0
M  V30 29 C 6.9282 -5.4999 0.0 0
M  V30 END ATOM
M  V30 BEGIN BOND
M  V30 1 1 1 2
M  V30 2 2 2 3
M  V30 3 1 2 4
M  V30 4 1 3 5
M  V30 5 1 3 6
M  V30 6 2 4 7
M  V30 7 2 5 8
M  V30 8 1 6 9
M  V30 9 1 8 10
M  V30 10 2 9 11
M  V30 11 1 9 12
M  V30 12 1 10 13
M  V30 13 1 11 14
M  V30 14 1 11 15
M  V30 15 2 12 16
M  V30 16 1 13 17
M  V30 17 1 13 18
M  V30 18 1 14 19
M  V30 19 2 14 20
M  V30 20 2 15 21
M  V30 21 1 15 22
M  V30 22 1 17 23
M  V30 23 1 18 24
M  V30 24 1 23 25
M  V30 25 1 25 26
M  V30 26 2 26 27
M  V30 27 2 26 28
M  V30 28 1 26 29
M  V30 29 1 7 8
M  V30 30 1 16 20
M  V30 31 1 24 25
M  V30 END BOND
M  V30 END CTAB
M  END
>  <Molecule Name>
Compound 366

>  <Molecule Name 2>
Compound 366

>  <Compound ID>
128

>  <Name>
TMX-2039

>  <Uniprot>
P24941

>  <Target>
CDK2

>  <Smiles>
CS(=O)(=O)N1CCC(NC2=NC=C(Br)C(NC3=CC=CC(F)=C3C(N)=O)=N2)CC1

>  <Kd (nM)>


>  <Assay (Kd)>


>  <Ki (nM)>


>  <Assay (Ki)>


>  <IC50 (nM)>
1

>  <Assay (IC50)>
IC50 of CDK2/cyclin A was tested by the Z'-LYTE assays

>  <EC50 (nM)>


>  <Assay (EC50)>


>  <Article DOI>
10.1002/anie.202004087

>  <Molecular Weight>
487.355

>  <Exact Mass>
486.0484998

>  <XLogP3>
2.46

>  <Heavy Atom Count>
29

>  <Ring Count>
3

>  <Hydrogen Bond Acceptor Count>
7

>  <Hydrogen Bond Donor Count>
3

>  <Rotatable Bond Count>
6

>  <Topological Polar Surface Area>
130.31

>  <Molecular Formula>
C17H20BrFN6O3S

>  <InChI>
InChI=1S/C17H20BrFN6O3S/c1-29(27,28)25-7-5-10(6-8-25)22-17-21-9-11(18)16(24-17)23-13-4-2-3-12(19)14(13)15(20)26/h2-4,9-10H,5-8H2,1H3,(H2,20,26)(H2,21,22,23,24)

>  <InChI Key>
WYMXMVOAIHZIFF-UHFFFAOYSA-N

>  <BindingDB>


>  <PubChem>
91800663

>  <ChEMBL>
CHEMBL3431194

$$$$
128
Actelion Java MolfileCreator 2.0

  0  0  0  0  0  0              0 V3000
M  V30 BEGIN CTAB
M  V30 COUNTS 29 31 0 0 0
M  V30 BEGIN ATOM
M  V30 1 Br 2.598 1.0 0.0 0
M  V30 2 C 2.598 0.0 0.0 0
M  V30 3 C 1.732 -0.5 0.0 0
M  V30 4 C 3.4641 -0.4999 0.0 0
M  V30 5 N 1.732 -1.5 0.0 0
M  V30 6 N 0.866 0.0 0.0 0
M  V30 7 N 3.4641 -1.4999 0.0 0
M  V30 8 C 2.598 -1.9999 0.0 0
M  V30 9 C 0.0 -0.5 0.0 0
M  V30 10 N 2.598 -2.9999 0.0 0
M  V30 11 C -0.866 0.0 0.0 0
M  V30 12 C 0.0 -1.4999 0.0 0
M  V30 13 C 3.4641 -3.4999 0.0 0
M  V30 14 C -1.732 -0.4999 0.0 0
M  V30 15 C -0.866 1.0 0.0 0
M  V30 16 C -0.866 -1.9999 0.0 0
M  V30 17 C 3.4641 -4.4999 0.0 0
M  V30 18 C 4.3301 -2.9999 0.0 0
M  V30 19 F -2.598 0.0 0.0 0
M  V30 20 C -1.732 -1.4999 0.0 0
M  V30 21 O 0.0 1.5 0.0 0
M  V30 22 N -1.732 1.5 0.0 0
M  V30 23 C 4.3301 -4.9999 0.0 0
M  V30 24 C 5.1961 -3.4999 0.0 0
M  V30 25 N 5.1961 -4.4999 0.0 0
M  V30 26 S 6.0621 -4.9999 0.0 0
M  V30 27 O 5.5621 -5.866 0.0 0
M  V30 28 O 6.5621 -4.1339 0.0 0
M  V30 29 C 6.9282 -5.4999 0.0 0
M  V30 END ATOM
M  V30 BEGIN BOND
M  V30 1 1 1 2
M  V30 2 2 2 3
M  V30 3 1 2 4
M  V30 4 1 3 5
M  V30 5 1 3 6
M  V30 6 2 4 7
M  V30 7 2 5 8
M  V30 8 1 6 9
M  V30 9 1 8 10
M  V30 10 2 9 11
M  V30 11 1 9 12
M  V30 12 1 10 13
M  V30 13 1 11 14
M  V30 14 1 11 15
M  V30 15 2 12 16
M  V30 16 1 13 17
M  V30 17 1 13 18
M  V30 18 1 14 19
M  V30 19 2 14 20
M  V30 20 2 15 21
M  V30 21 1 15 22
M  V30 22 1 17 23
M  V30 23 1 18 24
M  V30 24 1 23 25
M  V30 25 1 25 26
M  V30 26 2 26 27
M  V30 27 2 26 28
M  V30 28 1 26 29
M  V30 29 1 7 8
M  V30 30 1 16 20
M  V30 31 1 24 25
M  V30 END BOND
M  V30 END CTAB
M  END
>  <Molecule Name>
Compound 367

>  <Molecule Name 2>
Compound 367

>  <Compound ID>
128

>  <Name>
TMX-2039

>  <Uniprot>
P11802

>  <Target>
CDK4

>  <Smiles>
CS(=O)(=O)N1CCC(NC2=NC=C(Br)C(NC3=CC=CC(F)=C3C(N)=O)=N2)CC1

>  <Kd (nM)>


>  <Assay (Kd)>


>  <Ki (nM)>


>  <Assay (Ki)>


>  <IC50 (nM)>
52.1

>  <Assay (IC50)>
IC50 of CDK4/cyclin D1 was tested by the Adapta assays

>  <EC50 (nM)>


>  <Assay (EC50)>


>  <Article DOI>
10.1002/anie.202004087

>  <Molecular Weight>
487.355

>  <Exact Mass>
486.0484998

>  <XLogP3>
2.46

>  <Heavy Atom Count>
29

>  <Ring Count>
3

>  <Hydrogen Bond Acceptor Count>
7

>  <Hydrogen Bond Donor Count>
3

>  <Rotatable Bond Count>
6

>  <Topological Polar Surface Area>
130.31

>  <Molecular Formula>
C17H20BrFN6O3S

>  <InChI>
InChI=1S/C17H20BrFN6O3S/c1-29(27,28)25-7-5-10(6-8-25)22-17-21-9-11(18)16(24-17)23-13-4-2-3-12(19)14(13)15(20)26/h2-4,9-10H,5-8H2,1H3,(H2,20,26)(H2,21,22,23,24)

>  <InChI Key>
WYMXMVOAIHZIFF-UHFFFAOYSA-N

>  <BindingDB>


>  <PubChem>
91800663

>  <ChEMBL>
CHEMBL3431194

$$$$
128
Actelion Java MolfileCreator 2.0

  0  0  0  0  0  0              0 V3000
M  V30 BEGIN CTAB
M  V30 COUNTS 29 31 0 0 0
M  V30 BEGIN ATOM
M  V30 1 Br 2.598 1.0 0.0 0
M  V30 2 C 2.598 0.0 0.0 0
M  V30 3 C 1.732 -0.5 0.0 0
M  V30 4 C 3.4641 -0.4999 0.0 0
M  V30 5 N 1.732 -1.5 0.0 0
M  V30 6 N 0.866 0.0 0.0 0
M  V30 7 N 3.4641 -1.4999 0.0 0
M  V30 8 C 2.598 -1.9999 0.0 0
M  V30 9 C 0.0 -0.5 0.0 0
M  V30 10 N 2.598 -2.9999 0.0 0
M  V30 11 C -0.866 0.0 0.0 0
M  V30 12 C 0.0 -1.4999 0.0 0
M  V30 13 C 3.4641 -3.4999 0.0 0
M  V30 14 C -1.732 -0.4999 0.0 0
M  V30 15 C -0.866 1.0 0.0 0
M  V30 16 C -0.866 -1.9999 0.0 0
M  V30 17 C 3.4641 -4.4999 0.0 0
M  V30 18 C 4.3301 -2.9999 0.0 0
M  V30 19 F -2.598 0.0 0.0 0
M  V30 20 C -1.732 -1.4999 0.0 0
M  V30 21 O 0.0 1.5 0.0 0
M  V30 22 N -1.732 1.5 0.0 0
M  V30 23 C 4.3301 -4.9999 0.0 0
M  V30 24 C 5.1961 -3.4999 0.0 0
M  V30 25 N 5.1961 -4.4999 0.0 0
M  V30 26 S 6.0621 -4.9999 0.0 0
M  V30 27 O 5.5621 -5.866 0.0 0
M  V30 28 O 6.5621 -4.1339 0.0 0
M  V30 29 C 6.9282 -5.4999 0.0 0
M  V30 END ATOM
M  V30 BEGIN BOND
M  V30 1 1 1 2
M  V30 2 2 2 3
M  V30 3 1 2 4
M  V30 4 1 3 5
M  V30 5 1 3 6
M  V30 6 2 4 7
M  V30 7 2 5 8
M  V30 8 1 6 9
M  V30 9 1 8 10
M  V30 10 2 9 11
M  V30 11 1 9 12
M  V30 12 1 10 13
M  V30 13 1 11 14
M  V30 14 1 11 15
M  V30 15 2 12 16
M  V30 16 1 13 17
M  V30 17 1 13 18
M  V30 18 1 14 19
M  V30 19 2 14 20
M  V30 20 2 15 21
M  V30 21 1 15 22
M  V30 22 1 17 23
M  V30 23 1 18 24
M  V30 24 1 23 25
M  V30 25 1 25 26
M  V30 26 2 26 27
M  V30 27 2 26 28
M  V30 28 1 26 29
M  V30 29 1 7 8
M  V30 30 1 16 20
M  V30 31 1 24 25
M  V30 END BOND
M  V30 END CTAB
M  END
>  <Molecule Name>
Compound 368

>  <Molecule Name 2>
Compound 368

>  <Compound ID>
128

>  <Name>
TMX-2039

>  <Uniprot>
Q00535

>  <Target>
CDK5

>  <Smiles>
CS(=O)(=O)N1CCC(NC2=NC=C(Br)C(NC3=CC=CC(F)=C3C(N)=O)=N2)CC1

>  <Kd (nM)>


>  <Assay (Kd)>


>  <Ki (nM)>


>  <Assay (Ki)>


>  <IC50 (nM)>
0.5

>  <Assay (IC50)>
IC50 of CDK5/p25 was tested by the Z'-LYTE assays

>  <EC50 (nM)>


>  <Assay (EC50)>


>  <Article DOI>
10.1002/anie.202004087

>  <Molecular Weight>
487.355

>  <Exact Mass>
486.0484998

>  <XLogP3>
2.46

>  <Heavy Atom Count>
29

>  <Ring Count>
3

>  <Hydrogen Bond Acceptor Count>
7

>  <Hydrogen Bond Donor Count>
3

>  <Rotatable Bond Count>
6

>  <Topological Polar Surface Area>
130.31

>  <Molecular Formula>
C17H20BrFN6O3S

>  <InChI>
InChI=1S/C17H20BrFN6O3S/c1-29(27,28)25-7-5-10(6-8-25)22-17-21-9-11(18)16(24-17)23-13-4-2-3-12(19)14(13)15(20)26/h2-4,9-10H,5-8H2,1H3,(H2,20,26)(H2,21,22,23,24)

>  <InChI Key>
WYMXMVOAIHZIFF-UHFFFAOYSA-N

>  <BindingDB>


>  <PubChem>
91800663

>  <ChEMBL>
CHEMBL3431194

$$$$
128
Actelion Java MolfileCreator 2.0

  0  0  0  0  0  0              0 V3000
M  V30 BEGIN CTAB
M  V30 COUNTS 29 31 0 0 0
M  V30 BEGIN ATOM
M  V30 1 Br 2.598 1.0 0.0 0
M  V30 2 C 2.598 0.0 0.0 0
M  V30 3 C 1.732 -0.5 0.0 0
M  V30 4 C 3.4641 -0.4999 0.0 0
M  V30 5 N 1.732 -1.5 0.0 0
M  V30 6 N 0.866 0.0 0.0 0
M  V30 7 N 3.4641 -1.4999 0.0 0
M  V30 8 C 2.598 -1.9999 0.0 0
M  V30 9 C 0.0 -0.5 0.0 0
M  V30 10 N 2.598 -2.9999 0.0 0
M  V30 11 C -0.866 0.0 0.0 0
M  V30 12 C 0.0 -1.4999 0.0 0
M  V30 13 C 3.4641 -3.4999 0.0 0
M  V30 14 C -1.732 -0.4999 0.0 0
M  V30 15 C -0.866 1.0 0.0 0
M  V30 16 C -0.866 -1.9999 0.0 0
M  V30 17 C 3.4641 -4.4999 0.0 0
M  V30 18 C 4.3301 -2.9999 0.0 0
M  V30 19 F -2.598 0.0 0.0 0
M  V30 20 C -1.732 -1.4999 0.0 0
M  V30 21 O 0.0 1.5 0.0 0
M  V30 22 N -1.732 1.5 0.0 0
M  V30 23 C 4.3301 -4.9999 0.0 0
M  V30 24 C 5.1961 -3.4999 0.0 0
M  V30 25 N 5.1961 -4.4999 0.0 0
M  V30 26 S 6.0621 -4.9999 0.0 0
M  V30 27 O 5.5621 -5.866 0.0 0
M  V30 28 O 6.5621 -4.1339 0.0 0
M  V30 29 C 6.9282 -5.4999 0.0 0
M  V30 END ATOM
M  V30 BEGIN BOND
M  V30 1 1 1 2
M  V30 2 2 2 3
M  V30 3 1 2 4
M  V30 4 1 3 5
M  V30 5 1 3 6
M  V30 6 2 4 7
M  V30 7 2 5 8
M  V30 8 1 6 9
M  V30 9 1 8 10
M  V30 10 2 9 11
M  V30 11 1 9 12
M  V30 12 1 10 13
M  V30 13 1 11 14
M  V30 14 1 11 15
M  V30 15 2 12 16
M  V30 16 1 13 17
M  V30 17 1 13 18
M  V30 18 1 14 19
M  V30 19 2 14 20
M  V30 20 2 15 21
M  V30 21 1 15 22
M  V30 22 1 17 23
M  V30 23 1 18 24
M  V30 24 1 23 25
M  V30 25 1 25 26
M  V30 26 2 26 27
M  V30 27 2 26 28
M  V30 28 1 26 29
M  V30 29 1 7 8
M  V30 30 1 16 20
M  V30 31 1 24 25
M  V30 END BOND
M  V30 END CTAB
M  END
>  <Molecule Name>
Compound 369

>  <Molecule Name 2>
Compound 369

>  <Compound ID>
128

>  <Name>
TMX-2039

>  <Uniprot>
Q00534

>  <Target>
CDK6

>  <Smiles>
CS(=O)(=O)N1CCC(NC2=NC=C(Br)C(NC3=CC=CC(F)=C3C(N)=O)=N2)CC1

>  <Kd (nM)>


>  <Assay (Kd)>


>  <Ki (nM)>


>  <Assay (Ki)>


>  <IC50 (nM)>
35

>  <Assay (IC50)>
IC50 of CDK6/cyclin D1 was tested by the Adapta assays

>  <EC50 (nM)>


>  <Assay (EC50)>


>  <Article DOI>
10.1002/anie.202004087

>  <Molecular Weight>
487.355

>  <Exact Mass>
486.0484998

>  <XLogP3>
2.46

>  <Heavy Atom Count>
29

>  <Ring Count>
3

>  <Hydrogen Bond Acceptor Count>
7

>  <Hydrogen Bond Donor Count>
3

>  <Rotatable Bond Count>
6

>  <Topological Polar Surface Area>
130.31

>  <Molecular Formula>
C17H20BrFN6O3S

>  <InChI>
InChI=1S/C17H20BrFN6O3S/c1-29(27,28)25-7-5-10(6-8-25)22-17-21-9-11(18)16(24-17)23-13-4-2-3-12(19)14(13)15(20)26/h2-4,9-10H,5-8H2,1H3,(H2,20,26)(H2,21,22,23,24)

>  <InChI Key>
WYMXMVOAIHZIFF-UHFFFAOYSA-N

>  <BindingDB>


>  <PubChem>
91800663

>  <ChEMBL>
CHEMBL3431194

$$$$
128
Actelion Java MolfileCreator 2.0

  0  0  0  0  0  0              0 V3000
M  V30 BEGIN CTAB
M  V30 COUNTS 29 31 0 0 0
M  V30 BEGIN ATOM
M  V30 1 Br 2.598 1.0 0.0 0
M  V30 2 C 2.598 0.0 0.0 0
M  V30 3 C 1.732 -0.5 0.0 0
M  V30 4 C 3.4641 -0.4999 0.0 0
M  V30 5 N 1.732 -1.5 0.0 0
M  V30 6 N 0.866 0.0 0.0 0
M  V30 7 N 3.4641 -1.4999 0.0 0
M  V30 8 C 2.598 -1.9999 0.0 0
M  V30 9 C 0.0 -0.5 0.0 0
M  V30 10 N 2.598 -2.9999 0.0 0
M  V30 11 C -0.866 0.0 0.0 0
M  V30 12 C 0.0 -1.4999 0.0 0
M  V30 13 C 3.4641 -3.4999 0.0 0
M  V30 14 C -1.732 -0.4999 0.0 0
M  V30 15 C -0.866 1.0 0.0 0
M  V30 16 C -0.866 -1.9999 0.0 0
M  V30 17 C 3.4641 -4.4999 0.0 0
M  V30 18 C 4.3301 -2.9999 0.0 0
M  V30 19 F -2.598 0.0 0.0 0
M  V30 20 C -1.732 -1.4999 0.0 0
M  V30 21 O 0.0 1.5 0.0 0
M  V30 22 N -1.732 1.5 0.0 0
M  V30 23 C 4.3301 -4.9999 0.0 0
M  V30 24 C 5.1961 -3.4999 0.0 0
M  V30 25 N 5.1961 -4.4999 0.0 0
M  V30 26 S 6.0621 -4.9999 0.0 0
M  V30 27 O 5.5621 -5.866 0.0 0
M  V30 28 O 6.5621 -4.1339 0.0 0
M  V30 29 C 6.9282 -5.4999 0.0 0
M  V30 END ATOM
M  V30 BEGIN BOND
M  V30 1 1 1 2
M  V30 2 2 2 3
M  V30 3 1 2 4
M  V30 4 1 3 5
M  V30 5 1 3 6
M  V30 6 2 4 7
M  V30 7 2 5 8
M  V30 8 1 6 9
M  V30 9 1 8 10
M  V30 10 2 9 11
M  V30 11 1 9 12
M  V30 12 1 10 13
M  V30 13 1 11 14
M  V30 14 1 11 15
M  V30 15 2 12 16
M  V30 16 1 13 17
M  V30 17 1 13 18
M  V30 18 1 14 19
M  V30 19 2 14 20
M  V30 20 2 15 21
M  V30 21 1 15 22
M  V30 22 1 17 23
M  V30 23 1 18 24
M  V30 24 1 23 25
M  V30 25 1 25 26
M  V30 26 2 26 27
M  V30 27 2 26 28
M  V30 28 1 26 29
M  V30 29 1 7 8
M  V30 30 1 16 20
M  V30 31 1 24 25
M  V30 END BOND
M  V30 END CTAB
M  END
>  <Molecule Name>
Compound 370

>  <Molecule Name 2>
Compound 370

>  <Compound ID>
128

>  <Name>
TMX-2039

>  <Uniprot>
P50613

>  <Target>
CDK7

>  <Smiles>
CS(=O)(=O)N1CCC(NC2=NC=C(Br)C(NC3=CC=CC(F)=C3C(N)=O)=N2)CC1

>  <Kd (nM)>


>  <Assay (Kd)>


>  <Ki (nM)>


>  <Assay (Ki)>


>  <IC50 (nM)>
32.5

>  <Assay (IC50)>
IC50 of CDK7/cyclin H was tested by the Adapta assays

>  <EC50 (nM)>


>  <Assay (EC50)>


>  <Article DOI>
10.1002/anie.202004087

>  <Molecular Weight>
487.355

>  <Exact Mass>
486.0484998

>  <XLogP3>
2.46

>  <Heavy Atom Count>
29

>  <Ring Count>
3

>  <Hydrogen Bond Acceptor Count>
7

>  <Hydrogen Bond Donor Count>
3

>  <Rotatable Bond Count>
6

>  <Topological Polar Surface Area>
130.31

>  <Molecular Formula>
C17H20BrFN6O3S

>  <InChI>
InChI=1S/C17H20BrFN6O3S/c1-29(27,28)25-7-5-10(6-8-25)22-17-21-9-11(18)16(24-17)23-13-4-2-3-12(19)14(13)15(20)26/h2-4,9-10H,5-8H2,1H3,(H2,20,26)(H2,21,22,23,24)

>  <InChI Key>
WYMXMVOAIHZIFF-UHFFFAOYSA-N

>  <BindingDB>


>  <PubChem>
91800663

>  <ChEMBL>
CHEMBL3431194

$$$$
128
Actelion Java MolfileCreator 2.0

  0  0  0  0  0  0              0 V3000
M  V30 BEGIN CTAB
M  V30 COUNTS 29 31 0 0 0
M  V30 BEGIN ATOM
M  V30 1 Br 2.598 1.0 0.0 0
M  V30 2 C 2.598 0.0 0.0 0
M  V30 3 C 1.732 -0.5 0.0 0
M  V30 4 C 3.4641 -0.4999 0.0 0
M  V30 5 N 1.732 -1.5 0.0 0
M  V30 6 N 0.866 0.0 0.0 0
M  V30 7 N 3.4641 -1.4999 0.0 0
M  V30 8 C 2.598 -1.9999 0.0 0
M  V30 9 C 0.0 -0.5 0.0 0
M  V30 10 N 2.598 -2.9999 0.0 0
M  V30 11 C -0.866 0.0 0.0 0
M  V30 12 C 0.0 -1.4999 0.0 0
M  V30 13 C 3.4641 -3.4999 0.0 0
M  V30 14 C -1.732 -0.4999 0.0 0
M  V30 15 C -0.866 1.0 0.0 0
M  V30 16 C -0.866 -1.9999 0.0 0
M  V30 17 C 3.4641 -4.4999 0.0 0
M  V30 18 C 4.3301 -2.9999 0.0 0
M  V30 19 F -2.598 0.0 0.0 0
M  V30 20 C -1.732 -1.4999 0.0 0
M  V30 21 O 0.0 1.5 0.0 0
M  V30 22 N -1.732 1.5 0.0 0
M  V30 23 C 4.3301 -4.9999 0.0 0
M  V30 24 C 5.1961 -3.4999 0.0 0
M  V30 25 N 5.1961 -4.4999 0.0 0
M  V30 26 S 6.0621 -4.9999 0.0 0
M  V30 27 O 5.5621 -5.866 0.0 0
M  V30 28 O 6.5621 -4.1339 0.0 0
M  V30 29 C 6.9282 -5.4999 0.0 0
M  V30 END ATOM
M  V30 BEGIN BOND
M  V30 1 1 1 2
M  V30 2 2 2 3
M  V30 3 1 2 4
M  V30 4 1 3 5
M  V30 5 1 3 6
M  V30 6 2 4 7
M  V30 7 2 5 8
M  V30 8 1 6 9
M  V30 9 1 8 10
M  V30 10 2 9 11
M  V30 11 1 9 12
M  V30 12 1 10 13
M  V30 13 1 11 14
M  V30 14 1 11 15
M  V30 15 2 12 16
M  V30 16 1 13 17
M  V30 17 1 13 18
M  V30 18 1 14 19
M  V30 19 2 14 20
M  V30 20 2 15 21
M  V30 21 1 15 22
M  V30 22 1 17 23
M  V30 23 1 18 24
M  V30 24 1 23 25
M  V30 25 1 25 26
M  V30 26 2 26 27
M  V30 27 2 26 28
M  V30 28 1 26 29
M  V30 29 1 7 8
M  V30 30 1 16 20
M  V30 31 1 24 25
M  V30 END BOND
M  V30 END CTAB
M  END
>  <Molecule Name>
Compound 371

>  <Molecule Name 2>
Compound 371

>  <Compound ID>
128

>  <Name>
TMX-2039

>  <Uniprot>
P50750

>  <Target>
CDK9

>  <Smiles>
CS(=O)(=O)N1CCC(NC2=NC=C(Br)C(NC3=CC=CC(F)=C3C(N)=O)=N2)CC1

>  <Kd (nM)>


>  <Assay (Kd)>


>  <Ki (nM)>


>  <Assay (Ki)>


>  <IC50 (nM)>
25

>  <Assay (IC50)>
IC50 of CDK9/cyclin T1 was tested by the Adapta assays

>  <EC50 (nM)>


>  <Assay (EC50)>


>  <Article DOI>
10.1002/anie.202004087

>  <Molecular Weight>
487.355

>  <Exact Mass>
486.0484998

>  <XLogP3>
2.46

>  <Heavy Atom Count>
29

>  <Ring Count>
3

>  <Hydrogen Bond Acceptor Count>
7

>  <Hydrogen Bond Donor Count>
3

>  <Rotatable Bond Count>
6

>  <Topological Polar Surface Area>
130.31

>  <Molecular Formula>
C17H20BrFN6O3S

>  <InChI>
InChI=1S/C17H20BrFN6O3S/c1-29(27,28)25-7-5-10(6-8-25)22-17-21-9-11(18)16(24-17)23-13-4-2-3-12(19)14(13)15(20)26/h2-4,9-10H,5-8H2,1H3,(H2,20,26)(H2,21,22,23,24)

>  <InChI Key>
WYMXMVOAIHZIFF-UHFFFAOYSA-N

>  <BindingDB>


>  <PubChem>
91800663

>  <ChEMBL>
CHEMBL3431194

$$$$
128
Actelion Java MolfileCreator 2.0

  0  0  0  0  0  0              0 V3000
M  V30 BEGIN CTAB
M  V30 COUNTS 29 31 0 0 0
M  V30 BEGIN ATOM
M  V30 1 Br 2.598 1.0 0.0 0
M  V30 2 C 2.598 0.0 0.0 0
M  V30 3 C 1.732 -0.5 0.0 0
M  V30 4 C 3.4641 -0.4999 0.0 0
M  V30 5 N 1.732 -1.5 0.0 0
M  V30 6 N 0.866 0.0 0.0 0
M  V30 7 N 3.4641 -1.4999 0.0 0
M  V30 8 C 2.598 -1.9999 0.0 0
M  V30 9 C 0.0 -0.5 0.0 0
M  V30 10 N 2.598 -2.9999 0.0 0
M  V30 11 C -0.866 0.0 0.0 0
M  V30 12 C 0.0 -1.4999 0.0 0
M  V30 13 C 3.4641 -3.4999 0.0 0
M  V30 14 C -1.732 -0.4999 0.0 0
M  V30 15 C -0.866 1.0 0.0 0
M  V30 16 C -0.866 -1.9999 0.0 0
M  V30 17 C 3.4641 -4.4999 0.0 0
M  V30 18 C 4.3301 -2.9999 0.0 0
M  V30 19 F -2.598 0.0 0.0 0
M  V30 20 C -1.732 -1.4999 0.0 0
M  V30 21 O 0.0 1.5 0.0 0
M  V30 22 N -1.732 1.5 0.0 0
M  V30 23 C 4.3301 -4.9999 0.0 0
M  V30 24 C 5.1961 -3.4999 0.0 0
M  V30 25 N 5.1961 -4.4999 0.0 0
M  V30 26 S 6.0621 -4.9999 0.0 0
M  V30 27 O 5.5621 -5.866 0.0 0
M  V30 28 O 6.5621 -4.1339 0.0 0
M  V30 29 C 6.9282 -5.4999 0.0 0
M  V30 END ATOM
M  V30 BEGIN BOND
M  V30 1 1 1 2
M  V30 2 2 2 3
M  V30 3 1 2 4
M  V30 4 1 3 5
M  V30 5 1 3 6
M  V30 6 2 4 7
M  V30 7 2 5 8
M  V30 8 1 6 9
M  V30 9 1 8 10
M  V30 10 2 9 11
M  V30 11 1 9 12
M  V30 12 1 10 13
M  V30 13 1 11 14
M  V30 14 1 11 15
M  V30 15 2 12 16
M  V30 16 1 13 17
M  V30 17 1 13 18
M  V30 18 1 14 19
M  V30 19 2 14 20
M  V30 20 2 15 21
M  V30 21 1 15 22
M  V30 22 1 17 23
M  V30 23 1 18 24
M  V30 24 1 23 25
M  V30 25 1 25 26
M  V30 26 2 26 27
M  V30 27 2 26 28
M  V30 28 1 26 29
M  V30 29 1 7 8
M  V30 30 1 16 20
M  V30 31 1 24 25
M  V30 END BOND
M  V30 END CTAB
M  END
>  <Molecule Name>
Compound 372

>  <Molecule Name 2>
Compound 372

>  <Compound ID>
128

>  <Name>
TMX-2039

>  <Uniprot>
P53779

>  <Target>
MAPK10

>  <Smiles>
CS(=O)(=O)N1CCC(NC2=NC=C(Br)C(NC3=CC=CC(F)=C3C(N)=O)=N2)CC1

>  <Kd (nM)>


>  <Assay (Kd)>


>  <Ki (nM)>


>  <Assay (Ki)>


>  <IC50 (nM)>


>  <Assay (IC50)>


>  <EC50 (nM)>


>  <Assay (EC50)>


>  <Article DOI>
10.1016/j.cell.2020.10.038

>  <Molecular Weight>
487.355

>  <Exact Mass>
486.0484998

>  <XLogP3>
2.46

>  <Heavy Atom Count>
29

>  <Ring Count>
3

>  <Hydrogen Bond Acceptor Count>
7

>  <Hydrogen Bond Donor Count>
3

>  <Rotatable Bond Count>
6

>  <Topological Polar Surface Area>
130.31

>  <Molecular Formula>
C17H20BrFN6O3S

>  <InChI>
InChI=1S/C17H20BrFN6O3S/c1-29(27,28)25-7-5-10(6-8-25)22-17-21-9-11(18)16(24-17)23-13-4-2-3-12(19)14(13)15(20)26/h2-4,9-10H,5-8H2,1H3,(H2,20,26)(H2,21,22,23,24)

>  <InChI Key>
WYMXMVOAIHZIFF-UHFFFAOYSA-N

>  <BindingDB>


>  <PubChem>
91800663

>  <ChEMBL>
CHEMBL3431194

$$$$
128
Actelion Java MolfileCreator 2.0

  0  0  0  0  0  0              0 V3000
M  V30 BEGIN CTAB
M  V30 COUNTS 29 31 0 0 0
M  V30 BEGIN ATOM
M  V30 1 Br 2.598 1.0 0.0 0
M  V30 2 C 2.598 0.0 0.0 0
M  V30 3 C 1.732 -0.5 0.0 0
M  V30 4 C 3.4641 -0.4999 0.0 0
M  V30 5 N 1.732 -1.5 0.0 0
M  V30 6 N 0.866 0.0 0.0 0
M  V30 7 N 3.4641 -1.4999 0.0 0
M  V30 8 C 2.598 -1.9999 0.0 0
M  V30 9 C 0.0 -0.5 0.0 0
M  V30 10 N 2.598 -2.9999 0.0 0
M  V30 11 C -0.866 0.0 0.0 0
M  V30 12 C 0.0 -1.4999 0.0 0
M  V30 13 C 3.4641 -3.4999 0.0 0
M  V30 14 C -1.732 -0.4999 0.0 0
M  V30 15 C -0.866 1.0 0.0 0
M  V30 16 C -0.866 -1.9999 0.0 0
M  V30 17 C 3.4641 -4.4999 0.0 0
M  V30 18 C 4.3301 -2.9999 0.0 0
M  V30 19 F -2.598 0.0 0.0 0
M  V30 20 C -1.732 -1.4999 0.0 0
M  V30 21 O 0.0 1.5 0.0 0
M  V30 22 N -1.732 1.5 0.0 0
M  V30 23 C 4.3301 -4.9999 0.0 0
M  V30 24 C 5.1961 -3.4999 0.0 0
M  V30 25 N 5.1961 -4.4999 0.0 0
M  V30 26 S 6.0621 -4.9999 0.0 0
M  V30 27 O 5.5621 -5.866 0.0 0
M  V30 28 O 6.5621 -4.1339 0.0 0
M  V30 29 C 6.9282 -5.4999 0.0 0
M  V30 END ATOM
M  V30 BEGIN BOND
M  V30 1 1 1 2
M  V30 2 2 2 3
M  V30 3 1 2 4
M  V30 4 1 3 5
M  V30 5 1 3 6
M  V30 6 2 4 7
M  V30 7 2 5 8
M  V30 8 1 6 9
M  V30 9 1 8 10
M  V30 10 2 9 11
M  V30 11 1 9 12
M  V30 12 1 10 13
M  V30 13 1 11 14
M  V30 14 1 11 15
M  V30 15 2 12 16
M  V30 16 1 13 17
M  V30 17 1 13 18
M  V30 18 1 14 19
M  V30 19 2 14 20
M  V30 20 2 15 21
M  V30 21 1 15 22
M  V30 22 1 17 23
M  V30 23 1 18 24
M  V30 24 1 23 25
M  V30 25 1 25 26
M  V30 26 2 26 27
M  V30 27 2 26 28
M  V30 28 1 26 29
M  V30 29 1 7 8
M  V30 30 1 16 20
M  V30 31 1 24 25
M  V30 END BOND
M  V30 END CTAB
M  END
>  <Molecule Name>
Compound 373

>  <Molecule Name 2>
Compound 373

>  <Compound ID>
128

>  <Name>
TMX-2039

>  <Uniprot>
P45983

>  <Target>
MAPK8

>  <Smiles>
CS(=O)(=O)N1CCC(NC2=NC=C(Br)C(NC3=CC=CC(F)=C3C(N)=O)=N2)CC1

>  <Kd (nM)>


>  <Assay (Kd)>


>  <Ki (nM)>


>  <Assay (Ki)>


>  <IC50 (nM)>


>  <Assay (IC50)>


>  <EC50 (nM)>


>  <Assay (EC50)>


>  <Article DOI>
10.1016/j.cell.2020.10.038

>  <Molecular Weight>
487.355

>  <Exact Mass>
486.0484998

>  <XLogP3>
2.46

>  <Heavy Atom Count>
29

>  <Ring Count>
3

>  <Hydrogen Bond Acceptor Count>
7

>  <Hydrogen Bond Donor Count>
3

>  <Rotatable Bond Count>
6

>  <Topological Polar Surface Area>
130.31

>  <Molecular Formula>
C17H20BrFN6O3S

>  <InChI>
InChI=1S/C17H20BrFN6O3S/c1-29(27,28)25-7-5-10(6-8-25)22-17-21-9-11(18)16(24-17)23-13-4-2-3-12(19)14(13)15(20)26/h2-4,9-10H,5-8H2,1H3,(H2,20,26)(H2,21,22,23,24)

>  <InChI Key>
WYMXMVOAIHZIFF-UHFFFAOYSA-N

>  <BindingDB>


>  <PubChem>
91800663

>  <ChEMBL>
CHEMBL3431194

$$$$
128
Actelion Java MolfileCreator 2.0

  0  0  0  0  0  0              0 V3000
M  V30 BEGIN CTAB
M  V30 COUNTS 29 31 0 0 0
M  V30 BEGIN ATOM
M  V30 1 Br 2.598 1.0 0.0 0
M  V30 2 C 2.598 0.0 0.0 0
M  V30 3 C 1.732 -0.5 0.0 0
M  V30 4 C 3.4641 -0.4999 0.0 0
M  V30 5 N 1.732 -1.5 0.0 0
M  V30 6 N 0.866 0.0 0.0 0
M  V30 7 N 3.4641 -1.4999 0.0 0
M  V30 8 C 2.598 -1.9999 0.0 0
M  V30 9 C 0.0 -0.5 0.0 0
M  V30 10 N 2.598 -2.9999 0.0 0
M  V30 11 C -0.866 0.0 0.0 0
M  V30 12 C 0.0 -1.4999 0.0 0
M  V30 13 C 3.4641 -3.4999 0.0 0
M  V30 14 C -1.732 -0.4999 0.0 0
M  V30 15 C -0.866 1.0 0.0 0
M  V30 16 C -0.866 -1.9999 0.0 0
M  V30 17 C 3.4641 -4.4999 0.0 0
M  V30 18 C 4.3301 -2.9999 0.0 0
M  V30 19 F -2.598 0.0 0.0 0
M  V30 20 C -1.732 -1.4999 0.0 0
M  V30 21 O 0.0 1.5 0.0 0
M  V30 22 N -1.732 1.5 0.0 0
M  V30 23 C 4.3301 -4.9999 0.0 0
M  V30 24 C 5.1961 -3.4999 0.0 0
M  V30 25 N 5.1961 -4.4999 0.0 0
M  V30 26 S 6.0621 -4.9999 0.0 0
M  V30 27 O 5.5621 -5.866 0.0 0
M  V30 28 O 6.5621 -4.1339 0.0 0
M  V30 29 C 6.9282 -5.4999 0.0 0
M  V30 END ATOM
M  V30 BEGIN BOND
M  V30 1 1 1 2
M  V30 2 2 2 3
M  V30 3 1 2 4
M  V30 4 1 3 5
M  V30 5 1 3 6
M  V30 6 2 4 7
M  V30 7 2 5 8
M  V30 8 1 6 9
M  V30 9 1 8 10
M  V30 10 2 9 11
M  V30 11 1 9 12
M  V30 12 1 10 13
M  V30 13 1 11 14
M  V30 14 1 11 15
M  V30 15 2 12 16
M  V30 16 1 13 17
M  V30 17 1 13 18
M  V30 18 1 14 19
M  V30 19 2 14 20
M  V30 20 2 15 21
M  V30 21 1 15 22
M  V30 22 1 17 23
M  V30 23 1 18 24
M  V30 24 1 23 25
M  V30 25 1 25 26
M  V30 26 2 26 27
M  V30 27 2 26 28
M  V30 28 1 26 29
M  V30 29 1 7 8
M  V30 30 1 16 20
M  V30 31 1 24 25
M  V30 END BOND
M  V30 END CTAB
M  END
>  <Molecule Name>
Compound 374

>  <Molecule Name 2>
Compound 374

>  <Compound ID>
128

>  <Name>
TMX-2039

>  <Uniprot>
P45984

>  <Target>
MAPK9

>  <Smiles>
CS(=O)(=O)N1CCC(NC2=NC=C(Br)C(NC3=CC=CC(F)=C3C(N)=O)=N2)CC1

>  <Kd (nM)>


>  <Assay (Kd)>


>  <Ki (nM)>


>  <Assay (Ki)>


>  <IC50 (nM)>


>  <Assay (IC50)>


>  <EC50 (nM)>


>  <Assay (EC50)>


>  <Article DOI>
10.1016/j.cell.2020.10.038

>  <Molecular Weight>
487.355

>  <Exact Mass>
486.0484998

>  <XLogP3>
2.46

>  <Heavy Atom Count>
29

>  <Ring Count>
3

>  <Hydrogen Bond Acceptor Count>
7

>  <Hydrogen Bond Donor Count>
3

>  <Rotatable Bond Count>
6

>  <Topological Polar Surface Area>
130.31

>  <Molecular Formula>
C17H20BrFN6O3S

>  <InChI>
InChI=1S/C17H20BrFN6O3S/c1-29(27,28)25-7-5-10(6-8-25)22-17-21-9-11(18)16(24-17)23-13-4-2-3-12(19)14(13)15(20)26/h2-4,9-10H,5-8H2,1H3,(H2,20,26)(H2,21,22,23,24)

>  <InChI Key>
WYMXMVOAIHZIFF-UHFFFAOYSA-N

>  <BindingDB>


>  <PubChem>
91800663

>  <ChEMBL>
CHEMBL3431194

$$$$
128
Actelion Java MolfileCreator 2.0

  0  0  0  0  0  0              0 V3000
M  V30 BEGIN CTAB
M  V30 COUNTS 29 31 0 0 0
M  V30 BEGIN ATOM
M  V30 1 Br 2.598 1.0 0.0 0
M  V30 2 C 2.598 0.0 0.0 0
M  V30 3 C 1.732 -0.5 0.0 0
M  V30 4 C 3.4641 -0.4999 0.0 0
M  V30 5 N 1.732 -1.5 0.0 0
M  V30 6 N 0.866 0.0 0.0 0
M  V30 7 N 3.4641 -1.4999 0.0 0
M  V30 8 C 2.598 -1.9999 0.0 0
M  V30 9 C 0.0 -0.5 0.0 0
M  V30 10 N 2.598 -2.9999 0.0 0
M  V30 11 C -0.866 0.0 0.0 0
M  V30 12 C 0.0 -1.4999 0.0 0
M  V30 13 C 3.4641 -3.4999 0.0 0
M  V30 14 C -1.732 -0.4999 0.0 0
M  V30 15 C -0.866 1.0 0.0 0
M  V30 16 C -0.866 -1.9999 0.0 0
M  V30 17 C 3.4641 -4.4999 0.0 0
M  V30 18 C 4.3301 -2.9999 0.0 0
M  V30 19 F -2.598 0.0 0.0 0
M  V30 20 C -1.732 -1.4999 0.0 0
M  V30 21 O 0.0 1.5 0.0 0
M  V30 22 N -1.732 1.5 0.0 0
M  V30 23 C 4.3301 -4.9999 0.0 0
M  V30 24 C 5.1961 -3.4999 0.0 0
M  V30 25 N 5.1961 -4.4999 0.0 0
M  V30 26 S 6.0621 -4.9999 0.0 0
M  V30 27 O 5.5621 -5.866 0.0 0
M  V30 28 O 6.5621 -4.1339 0.0 0
M  V30 29 C 6.9282 -5.4999 0.0 0
M  V30 END ATOM
M  V30 BEGIN BOND
M  V30 1 1 1 2
M  V30 2 2 2 3
M  V30 3 1 2 4
M  V30 4 1 3 5
M  V30 5 1 3 6
M  V30 6 2 4 7
M  V30 7 2 5 8
M  V30 8 1 6 9
M  V30 9 1 8 10
M  V30 10 2 9 11
M  V30 11 1 9 12
M  V30 12 1 10 13
M  V30 13 1 11 14
M  V30 14 1 11 15
M  V30 15 2 12 16
M  V30 16 1 13 17
M  V30 17 1 13 18
M  V30 18 1 14 19
M  V30 19 2 14 20
M  V30 20 2 15 21
M  V30 21 1 15 22
M  V30 22 1 17 23
M  V30 23 1 18 24
M  V30 24 1 23 25
M  V30 25 1 25 26
M  V30 26 2 26 27
M  V30 27 2 26 28
M  V30 28 1 26 29
M  V30 29 1 7 8
M  V30 30 1 16 20
M  V30 31 1 24 25
M  V30 END BOND
M  V30 END CTAB
M  END
>  <Molecule Name>
Compound 375

>  <Molecule Name 2>
Compound 375

>  <Compound ID>
128

>  <Name>
TMX-2039

>  <Uniprot>
Q15418

>  <Target>
RPS6KA1

>  <Smiles>
CS(=O)(=O)N1CCC(NC2=NC=C(Br)C(NC3=CC=CC(F)=C3C(N)=O)=N2)CC1

>  <Kd (nM)>


>  <Assay (Kd)>


>  <Ki (nM)>


>  <Assay (Ki)>


>  <IC50 (nM)>


>  <Assay (IC50)>


>  <EC50 (nM)>


>  <Assay (EC50)>


>  <Article DOI>
10.1016/j.cell.2020.10.038

>  <Molecular Weight>
487.355

>  <Exact Mass>
486.0484998

>  <XLogP3>
2.46

>  <Heavy Atom Count>
29

>  <Ring Count>
3

>  <Hydrogen Bond Acceptor Count>
7

>  <Hydrogen Bond Donor Count>
3

>  <Rotatable Bond Count>
6

>  <Topological Polar Surface Area>
130.31

>  <Molecular Formula>
C17H20BrFN6O3S

>  <InChI>
InChI=1S/C17H20BrFN6O3S/c1-29(27,28)25-7-5-10(6-8-25)22-17-21-9-11(18)16(24-17)23-13-4-2-3-12(19)14(13)15(20)26/h2-4,9-10H,5-8H2,1H3,(H2,20,26)(H2,21,22,23,24)

>  <InChI Key>
WYMXMVOAIHZIFF-UHFFFAOYSA-N

>  <BindingDB>


>  <PubChem>
91800663

>  <ChEMBL>
CHEMBL3431194

$$$$
129
Actelion Java MolfileCreator 2.0

  0  0  0  0  0  0              0 V3000
M  V30 BEGIN CTAB
M  V30 COUNTS 29 31 0 0 0
M  V30 BEGIN ATOM
M  V30 1 Br 2.598 1.0 0.0 0
M  V30 2 C 2.598 0.0 0.0 0
M  V30 3 C 1.732 -0.5 0.0 0
M  V30 4 C 3.4641 -0.4999 0.0 0
M  V30 5 N 1.732 -1.5 0.0 0
M  V30 6 N 0.866 0.0 0.0 0
M  V30 7 N 3.4641 -1.4999 0.0 0
M  V30 8 C 2.598 -1.9999 0.0 0
M  V30 9 C 0.0 -0.5 0.0 0
M  V30 10 N 2.598 -2.9999 0.0 0
M  V30 11 C -0.866 0.0 0.0 0
M  V30 12 C 0.0 -1.4999 0.0 0
M  V30 13 C 3.4641 -3.4999 0.0 0
M  V30 14 C -1.732 -0.4999 0.0 0
M  V30 15 C -0.866 1.0 0.0 0
M  V30 16 C -0.866 -1.9999 0.0 0
M  V30 17 C 3.4641 -4.4999 0.0 0
M  V30 18 C 4.3301 -2.9999 0.0 0
M  V30 19 F -2.598 0.0 0.0 0
M  V30 20 C -1.732 -1.4999 0.0 0
M  V30 21 O 0.0 1.5 0.0 0
M  V30 22 N -1.732 1.5 0.0 0
M  V30 23 C 4.3301 -4.9999 0.0 0
M  V30 24 C 5.1961 -3.4999 0.0 0
M  V30 25 C 5.1961 -4.4999 0.0 0
M  V30 26 S 6.0621 -4.9999 0.0 0
M  V30 27 O 5.5621 -5.866 0.0 0
M  V30 28 O 6.5621 -4.1339 0.0 0
M  V30 29 N 6.9282 -5.4999 0.0 0
M  V30 END ATOM
M  V30 BEGIN BOND
M  V30 1 1 1 2
M  V30 2 2 2 3
M  V30 3 1 2 4
M  V30 4 1 3 5
M  V30 5 1 3 6
M  V30 6 2 4 7
M  V30 7 2 5 8
M  V30 8 1 6 9
M  V30 9 1 8 10
M  V30 10 2 9 11
M  V30 11 1 9 12
M  V30 12 1 10 13
M  V30 13 1 11 14
M  V30 14 1 11 15
M  V30 15 2 12 16
M  V30 16 2 13 17
M  V30 17 1 13 18
M  V30 18 1 14 19
M  V30 19 2 14 20
M  V30 20 2 15 21
M  V30 21 1 15 22
M  V30 22 1 17 23
M  V30 23 2 18 24
M  V30 24 2 23 25
M  V30 25 1 25 26
M  V30 26 2 26 27
M  V30 27 2 26 28
M  V30 28 1 26 29
M  V30 29 1 7 8
M  V30 30 1 16 20
M  V30 31 1 24 25
M  V30 END BOND
M  V30 END CTAB
M  END
>  <Molecule Name>
Compound 376

>  <Molecule Name 2>
Compound 376

>  <Compound ID>
129

>  <Name>
TMX-3013

>  <Uniprot>
Q2M2I8

>  <Target>
AAK1

>  <Smiles>
NC(=O)C1=C(F)C=CC=C1NC1=NC(NC2=CC=C(S(N)(=O)=O)C=C2)=NC=C1Br

>  <Kd (nM)>


>  <Assay (Kd)>


>  <Ki (nM)>


>  <Assay (Ki)>


>  <IC50 (nM)>


>  <Assay (IC50)>


>  <EC50 (nM)>


>  <Assay (EC50)>


>  <Article DOI>
10.1016/j.cell.2020.10.038

>  <Molecular Weight>
481.307

>  <Exact Mass>
480.0015496

>  <XLogP3>
2.74

>  <Heavy Atom Count>
29

>  <Ring Count>
3

>  <Hydrogen Bond Acceptor Count>
7

>  <Hydrogen Bond Donor Count>
4

>  <Rotatable Bond Count>
6

>  <Topological Polar Surface Area>
153.09

>  <Molecular Formula>
C17H14BrFN6O3S

>  <InChI>
InChI=1S/C17H14BrFN6O3S/c18-11-8-22-17(23-9-4-6-10(7-5-9)29(21,27)28)25-16(11)24-13-3-1-2-12(19)14(13)15(20)26/h1-8H,(H2,20,26)(H2,21,27,28)(H2,22,23,24,25)

>  <InChI Key>
VCPYDRGRPKSEOJ-UHFFFAOYSA-N

>  <BindingDB>


>  <PubChem>
155184510

>  <ChEMBL>


$$$$
129
Actelion Java MolfileCreator 2.0

  0  0  0  0  0  0              0 V3000
M  V30 BEGIN CTAB
M  V30 COUNTS 29 31 0 0 0
M  V30 BEGIN ATOM
M  V30 1 Br 2.598 1.0 0.0 0
M  V30 2 C 2.598 0.0 0.0 0
M  V30 3 C 1.732 -0.5 0.0 0
M  V30 4 C 3.4641 -0.4999 0.0 0
M  V30 5 N 1.732 -1.5 0.0 0
M  V30 6 N 0.866 0.0 0.0 0
M  V30 7 N 3.4641 -1.4999 0.0 0
M  V30 8 C 2.598 -1.9999 0.0 0
M  V30 9 C 0.0 -0.5 0.0 0
M  V30 10 N 2.598 -2.9999 0.0 0
M  V30 11 C -0.866 0.0 0.0 0
M  V30 12 C 0.0 -1.4999 0.0 0
M  V30 13 C 3.4641 -3.4999 0.0 0
M  V30 14 C -1.732 -0.4999 0.0 0
M  V30 15 C -0.866 1.0 0.0 0
M  V30 16 C -0.866 -1.9999 0.0 0
M  V30 17 C 3.4641 -4.4999 0.0 0
M  V30 18 C 4.3301 -2.9999 0.0 0
M  V30 19 F -2.598 0.0 0.0 0
M  V30 20 C -1.732 -1.4999 0.0 0
M  V30 21 O 0.0 1.5 0.0 0
M  V30 22 N -1.732 1.5 0.0 0
M  V30 23 C 4.3301 -4.9999 0.0 0
M  V30 24 C 5.1961 -3.4999 0.0 0
M  V30 25 C 5.1961 -4.4999 0.0 0
M  V30 26 S 6.0621 -4.9999 0.0 0
M  V30 27 O 5.5621 -5.866 0.0 0
M  V30 28 O 6.5621 -4.1339 0.0 0
M  V30 29 N 6.9282 -5.4999 0.0 0
M  V30 END ATOM
M  V30 BEGIN BOND
M  V30 1 1 1 2
M  V30 2 2 2 3
M  V30 3 1 2 4
M  V30 4 1 3 5
M  V30 5 1 3 6
M  V30 6 2 4 7
M  V30 7 2 5 8
M  V30 8 1 6 9
M  V30 9 1 8 10
M  V30 10 2 9 11
M  V30 11 1 9 12
M  V30 12 1 10 13
M  V30 13 1 11 14
M  V30 14 1 11 15
M  V30 15 2 12 16
M  V30 16 2 13 17
M  V30 17 1 13 18
M  V30 18 1 14 19
M  V30 19 2 14 20
M  V30 20 2 15 21
M  V30 21 1 15 22
M  V30 22 1 17 23
M  V30 23 2 18 24
M  V30 24 2 23 25
M  V30 25 1 25 26
M  V30 26 2 26 27
M  V30 27 2 26 28
M  V30 28 1 26 29
M  V30 29 1 7 8
M  V30 30 1 16 20
M  V30 31 1 24 25
M  V30 END BOND
M  V30 END CTAB
M  END
>  <Molecule Name>
Compound 377

>  <Molecule Name 2>
Compound 377

>  <Compound ID>
129

>  <Name>
TMX-3013

>  <Uniprot>
O14965

>  <Target>
AURKA

>  <Smiles>
NC(=O)C1=C(F)C=CC=C1NC1=NC(NC2=CC=C(S(N)(=O)=O)C=C2)=NC=C1Br

>  <Kd (nM)>


>  <Assay (Kd)>


>  <Ki (nM)>


>  <Assay (Ki)>


>  <IC50 (nM)>


>  <Assay (IC50)>


>  <EC50 (nM)>


>  <Assay (EC50)>


>  <Article DOI>
10.1016/j.cell.2020.10.038

>  <Molecular Weight>
481.307

>  <Exact Mass>
480.0015496

>  <XLogP3>
2.74

>  <Heavy Atom Count>
29

>  <Ring Count>
3

>  <Hydrogen Bond Acceptor Count>
7

>  <Hydrogen Bond Donor Count>
4

>  <Rotatable Bond Count>
6

>  <Topological Polar Surface Area>
153.09

>  <Molecular Formula>
C17H14BrFN6O3S

>  <InChI>
InChI=1S/C17H14BrFN6O3S/c18-11-8-22-17(23-9-4-6-10(7-5-9)29(21,27)28)25-16(11)24-13-3-1-2-12(19)14(13)15(20)26/h1-8H,(H2,20,26)(H2,21,27,28)(H2,22,23,24,25)

>  <InChI Key>
VCPYDRGRPKSEOJ-UHFFFAOYSA-N

>  <BindingDB>


>  <PubChem>
155184510

>  <ChEMBL>


$$$$
129
Actelion Java MolfileCreator 2.0

  0  0  0  0  0  0              0 V3000
M  V30 BEGIN CTAB
M  V30 COUNTS 29 31 0 0 0
M  V30 BEGIN ATOM
M  V30 1 Br 2.598 1.0 0.0 0
M  V30 2 C 2.598 0.0 0.0 0
M  V30 3 C 1.732 -0.5 0.0 0
M  V30 4 C 3.4641 -0.4999 0.0 0
M  V30 5 N 1.732 -1.5 0.0 0
M  V30 6 N 0.866 0.0 0.0 0
M  V30 7 N 3.4641 -1.4999 0.0 0
M  V30 8 C 2.598 -1.9999 0.0 0
M  V30 9 C 0.0 -0.5 0.0 0
M  V30 10 N 2.598 -2.9999 0.0 0
M  V30 11 C -0.866 0.0 0.0 0
M  V30 12 C 0.0 -1.4999 0.0 0
M  V30 13 C 3.4641 -3.4999 0.0 0
M  V30 14 C -1.732 -0.4999 0.0 0
M  V30 15 C -0.866 1.0 0.0 0
M  V30 16 C -0.866 -1.9999 0.0 0
M  V30 17 C 3.4641 -4.4999 0.0 0
M  V30 18 C 4.3301 -2.9999 0.0 0
M  V30 19 F -2.598 0.0 0.0 0
M  V30 20 C -1.732 -1.4999 0.0 0
M  V30 21 O 0.0 1.5 0.0 0
M  V30 22 N -1.732 1.5 0.0 0
M  V30 23 C 4.3301 -4.9999 0.0 0
M  V30 24 C 5.1961 -3.4999 0.0 0
M  V30 25 C 5.1961 -4.4999 0.0 0
M  V30 26 S 6.0621 -4.9999 0.0 0
M  V30 27 O 5.5621 -5.866 0.0 0
M  V30 28 O 6.5621 -4.1339 0.0 0
M  V30 29 N 6.9282 -5.4999 0.0 0
M  V30 END ATOM
M  V30 BEGIN BOND
M  V30 1 1 1 2
M  V30 2 2 2 3
M  V30 3 1 2 4
M  V30 4 1 3 5
M  V30 5 1 3 6
M  V30 6 2 4 7
M  V30 7 2 5 8
M  V30 8 1 6 9
M  V30 9 1 8 10
M  V30 10 2 9 11
M  V30 11 1 9 12
M  V30 12 1 10 13
M  V30 13 1 11 14
M  V30 14 1 11 15
M  V30 15 2 12 16
M  V30 16 2 13 17
M  V30 17 1 13 18
M  V30 18 1 14 19
M  V30 19 2 14 20
M  V30 20 2 15 21
M  V30 21 1 15 22
M  V30 22 1 17 23
M  V30 23 2 18 24
M  V30 24 2 23 25
M  V30 25 1 25 26
M  V30 26 2 26 27
M  V30 27 2 26 28
M  V30 28 1 26 29
M  V30 29 1 7 8
M  V30 30 1 16 20
M  V30 31 1 24 25
M  V30 END BOND
M  V30 END CTAB
M  END
>  <Molecule Name>
Compound 378

>  <Molecule Name 2>
Compound 378

>  <Compound ID>
129

>  <Name>
TMX-3013

>  <Uniprot>
Q96GD4

>  <Target>
AURKB

>  <Smiles>
NC(=O)C1=C(F)C=CC=C1NC1=NC(NC2=CC=C(S(N)(=O)=O)C=C2)=NC=C1Br

>  <Kd (nM)>


>  <Assay (Kd)>


>  <Ki (nM)>


>  <Assay (Ki)>


>  <IC50 (nM)>


>  <Assay (IC50)>


>  <EC50 (nM)>


>  <Assay (EC50)>


>  <Article DOI>
10.1016/j.cell.2020.10.038

>  <Molecular Weight>
481.307

>  <Exact Mass>
480.0015496

>  <XLogP3>
2.74

>  <Heavy Atom Count>
29

>  <Ring Count>
3

>  <Hydrogen Bond Acceptor Count>
7

>  <Hydrogen Bond Donor Count>
4

>  <Rotatable Bond Count>
6

>  <Topological Polar Surface Area>
153.09

>  <Molecular Formula>
C17H14BrFN6O3S

>  <InChI>
InChI=1S/C17H14BrFN6O3S/c18-11-8-22-17(23-9-4-6-10(7-5-9)29(21,27)28)25-16(11)24-13-3-1-2-12(19)14(13)15(20)26/h1-8H,(H2,20,26)(H2,21,27,28)(H2,22,23,24,25)

>  <InChI Key>
VCPYDRGRPKSEOJ-UHFFFAOYSA-N

>  <BindingDB>


>  <PubChem>
155184510

>  <ChEMBL>


$$$$
129
Actelion Java MolfileCreator 2.0

  0  0  0  0  0  0              0 V3000
M  V30 BEGIN CTAB
M  V30 COUNTS 29 31 0 0 0
M  V30 BEGIN ATOM
M  V30 1 Br 2.598 1.0 0.0 0
M  V30 2 C 2.598 0.0 0.0 0
M  V30 3 C 1.732 -0.5 0.0 0
M  V30 4 C 3.4641 -0.4999 0.0 0
M  V30 5 N 1.732 -1.5 0.0 0
M  V30 6 N 0.866 0.0 0.0 0
M  V30 7 N 3.4641 -1.4999 0.0 0
M  V30 8 C 2.598 -1.9999 0.0 0
M  V30 9 C 0.0 -0.5 0.0 0
M  V30 10 N 2.598 -2.9999 0.0 0
M  V30 11 C -0.866 0.0 0.0 0
M  V30 12 C 0.0 -1.4999 0.0 0
M  V30 13 C 3.4641 -3.4999 0.0 0
M  V30 14 C -1.732 -0.4999 0.0 0
M  V30 15 C -0.866 1.0 0.0 0
M  V30 16 C -0.866 -1.9999 0.0 0
M  V30 17 C 3.4641 -4.4999 0.0 0
M  V30 18 C 4.3301 -2.9999 0.0 0
M  V30 19 F -2.598 0.0 0.0 0
M  V30 20 C -1.732 -1.4999 0.0 0
M  V30 21 O 0.0 1.5 0.0 0
M  V30 22 N -1.732 1.5 0.0 0
M  V30 23 C 4.3301 -4.9999 0.0 0
M  V30 24 C 5.1961 -3.4999 0.0 0
M  V30 25 C 5.1961 -4.4999 0.0 0
M  V30 26 S 6.0621 -4.9999 0.0 0
M  V30 27 O 5.5621 -5.866 0.0 0
M  V30 28 O 6.5621 -4.1339 0.0 0
M  V30 29 N 6.9282 -5.4999 0.0 0
M  V30 END ATOM
M  V30 BEGIN BOND
M  V30 1 1 1 2
M  V30 2 2 2 3
M  V30 3 1 2 4
M  V30 4 1 3 5
M  V30 5 1 3 6
M  V30 6 2 4 7
M  V30 7 2 5 8
M  V30 8 1 6 9
M  V30 9 1 8 10
M  V30 10 2 9 11
M  V30 11 1 9 12
M  V30 12 1 10 13
M  V30 13 1 11 14
M  V30 14 1 11 15
M  V30 15 2 12 16
M  V30 16 2 13 17
M  V30 17 1 13 18
M  V30 18 1 14 19
M  V30 19 2 14 20
M  V30 20 2 15 21
M  V30 21 1 15 22
M  V30 22 1 17 23
M  V30 23 2 18 24
M  V30 24 2 23 25
M  V30 25 1 25 26
M  V30 26 2 26 27
M  V30 27 2 26 28
M  V30 28 1 26 29
M  V30 29 1 7 8
M  V30 30 1 16 20
M  V30 31 1 24 25
M  V30 END BOND
M  V30 END CTAB
M  END
>  <Molecule Name>
Compound 379

>  <Molecule Name 2>
Compound 379

>  <Compound ID>
129

>  <Name>
TMX-3013

>  <Uniprot>
Q9NYV4

>  <Target>
CDK12

>  <Smiles>
NC(=O)C1=C(F)C=CC=C1NC1=NC(NC2=CC=C(S(N)(=O)=O)C=C2)=NC=C1Br

>  <Kd (nM)>


>  <Assay (Kd)>


>  <Ki (nM)>


>  <Assay (Ki)>


>  <IC50 (nM)>


>  <Assay (IC50)>


>  <EC50 (nM)>


>  <Assay (EC50)>


>  <Article DOI>
10.1016/j.cell.2020.10.038

>  <Molecular Weight>
481.307

>  <Exact Mass>
480.0015496

>  <XLogP3>
2.74

>  <Heavy Atom Count>
29

>  <Ring Count>
3

>  <Hydrogen Bond Acceptor Count>
7

>  <Hydrogen Bond Donor Count>
4

>  <Rotatable Bond Count>
6

>  <Topological Polar Surface Area>
153.09

>  <Molecular Formula>
C17H14BrFN6O3S

>  <InChI>
InChI=1S/C17H14BrFN6O3S/c18-11-8-22-17(23-9-4-6-10(7-5-9)29(21,27)28)25-16(11)24-13-3-1-2-12(19)14(13)15(20)26/h1-8H,(H2,20,26)(H2,21,27,28)(H2,22,23,24,25)

>  <InChI Key>
VCPYDRGRPKSEOJ-UHFFFAOYSA-N

>  <BindingDB>


>  <PubChem>
155184510

>  <ChEMBL>


$$$$
129
Actelion Java MolfileCreator 2.0

  0  0  0  0  0  0              0 V3000
M  V30 BEGIN CTAB
M  V30 COUNTS 29 31 0 0 0
M  V30 BEGIN ATOM
M  V30 1 Br 2.598 1.0 0.0 0
M  V30 2 C 2.598 0.0 0.0 0
M  V30 3 C 1.732 -0.5 0.0 0
M  V30 4 C 3.4641 -0.4999 0.0 0
M  V30 5 N 1.732 -1.5 0.0 0
M  V30 6 N 0.866 0.0 0.0 0
M  V30 7 N 3.4641 -1.4999 0.0 0
M  V30 8 C 2.598 -1.9999 0.0 0
M  V30 9 C 0.0 -0.5 0.0 0
M  V30 10 N 2.598 -2.9999 0.0 0
M  V30 11 C -0.866 0.0 0.0 0
M  V30 12 C 0.0 -1.4999 0.0 0
M  V30 13 C 3.4641 -3.4999 0.0 0
M  V30 14 C -1.732 -0.4999 0.0 0
M  V30 15 C -0.866 1.0 0.0 0
M  V30 16 C -0.866 -1.9999 0.0 0
M  V30 17 C 3.4641 -4.4999 0.0 0
M  V30 18 C 4.3301 -2.9999 0.0 0
M  V30 19 F -2.598 0.0 0.0 0
M  V30 20 C -1.732 -1.4999 0.0 0
M  V30 21 O 0.0 1.5 0.0 0
M  V30 22 N -1.732 1.5 0.0 0
M  V30 23 C 4.3301 -4.9999 0.0 0
M  V30 24 C 5.1961 -3.4999 0.0 0
M  V30 25 C 5.1961 -4.4999 0.0 0
M  V30 26 S 6.0621 -4.9999 0.0 0
M  V30 27 O 5.5621 -5.866 0.0 0
M  V30 28 O 6.5621 -4.1339 0.0 0
M  V30 29 N 6.9282 -5.4999 0.0 0
M  V30 END ATOM
M  V30 BEGIN BOND
M  V30 1 1 1 2
M  V30 2 2 2 3
M  V30 3 1 2 4
M  V30 4 1 3 5
M  V30 5 1 3 6
M  V30 6 2 4 7
M  V30 7 2 5 8
M  V30 8 1 6 9
M  V30 9 1 8 10
M  V30 10 2 9 11
M  V30 11 1 9 12
M  V30 12 1 10 13
M  V30 13 1 11 14
M  V30 14 1 11 15
M  V30 15 2 12 16
M  V30 16 2 13 17
M  V30 17 1 13 18
M  V30 18 1 14 19
M  V30 19 2 14 20
M  V30 20 2 15 21
M  V30 21 1 15 22
M  V30 22 1 17 23
M  V30 23 2 18 24
M  V30 24 2 23 25
M  V30 25 1 25 26
M  V30 26 2 26 27
M  V30 27 2 26 28
M  V30 28 1 26 29
M  V30 29 1 7 8
M  V30 30 1 16 20
M  V30 31 1 24 25
M  V30 END BOND
M  V30 END CTAB
M  END
>  <Molecule Name>
Compound 380

>  <Molecule Name 2>
Compound 380

>  <Compound ID>
129

>  <Name>
TMX-3013

>  <Uniprot>
Q00536

>  <Target>
CDK16

>  <Smiles>
NC(=O)C1=C(F)C=CC=C1NC1=NC(NC2=CC=C(S(N)(=O)=O)C=C2)=NC=C1Br

>  <Kd (nM)>


>  <Assay (Kd)>


>  <Ki (nM)>


>  <Assay (Ki)>


>  <IC50 (nM)>


>  <Assay (IC50)>


>  <EC50 (nM)>


>  <Assay (EC50)>


>  <Article DOI>
10.1016/j.cell.2020.10.038

>  <Molecular Weight>
481.307

>  <Exact Mass>
480.0015496

>  <XLogP3>
2.74

>  <Heavy Atom Count>
29

>  <Ring Count>
3

>  <Hydrogen Bond Acceptor Count>
7

>  <Hydrogen Bond Donor Count>
4

>  <Rotatable Bond Count>
6

>  <Topological Polar Surface Area>
153.09

>  <Molecular Formula>
C17H14BrFN6O3S

>  <InChI>
InChI=1S/C17H14BrFN6O3S/c18-11-8-22-17(23-9-4-6-10(7-5-9)29(21,27)28)25-16(11)24-13-3-1-2-12(19)14(13)15(20)26/h1-8H,(H2,20,26)(H2,21,27,28)(H2,22,23,24,25)

>  <InChI Key>
VCPYDRGRPKSEOJ-UHFFFAOYSA-N

>  <BindingDB>


>  <PubChem>
155184510

>  <ChEMBL>


$$$$
129
Actelion Java MolfileCreator 2.0

  0  0  0  0  0  0              0 V3000
M  V30 BEGIN CTAB
M  V30 COUNTS 29 31 0 0 0
M  V30 BEGIN ATOM
M  V30 1 Br 2.598 1.0 0.0 0
M  V30 2 C 2.598 0.0 0.0 0
M  V30 3 C 1.732 -0.5 0.0 0
M  V30 4 C 3.4641 -0.4999 0.0 0
M  V30 5 N 1.732 -1.5 0.0 0
M  V30 6 N 0.866 0.0 0.0 0
M  V30 7 N 3.4641 -1.4999 0.0 0
M  V30 8 C 2.598 -1.9999 0.0 0
M  V30 9 C 0.0 -0.5 0.0 0
M  V30 10 N 2.598 -2.9999 0.0 0
M  V30 11 C -0.866 0.0 0.0 0
M  V30 12 C 0.0 -1.4999 0.0 0
M  V30 13 C 3.4641 -3.4999 0.0 0
M  V30 14 C -1.732 -0.4999 0.0 0
M  V30 15 C -0.866 1.0 0.0 0
M  V30 16 C -0.866 -1.9999 0.0 0
M  V30 17 C 3.4641 -4.4999 0.0 0
M  V30 18 C 4.3301 -2.9999 0.0 0
M  V30 19 F -2.598 0.0 0.0 0
M  V30 20 C -1.732 -1.4999 0.0 0
M  V30 21 O 0.0 1.5 0.0 0
M  V30 22 N -1.732 1.5 0.0 0
M  V30 23 C 4.3301 -4.9999 0.0 0
M  V30 24 C 5.1961 -3.4999 0.0 0
M  V30 25 C 5.1961 -4.4999 0.0 0
M  V30 26 S 6.0621 -4.9999 0.0 0
M  V30 27 O 5.5621 -5.866 0.0 0
M  V30 28 O 6.5621 -4.1339 0.0 0
M  V30 29 N 6.9282 -5.4999 0.0 0
M  V30 END ATOM
M  V30 BEGIN BOND
M  V30 1 1 1 2
M  V30 2 2 2 3
M  V30 3 1 2 4
M  V30 4 1 3 5
M  V30 5 1 3 6
M  V30 6 2 4 7
M  V30 7 2 5 8
M  V30 8 1 6 9
M  V30 9 1 8 10
M  V30 10 2 9 11
M  V30 11 1 9 12
M  V30 12 1 10 13
M  V30 13 1 11 14
M  V30 14 1 11 15
M  V30 15 2 12 16
M  V30 16 2 13 17
M  V30 17 1 13 18
M  V30 18 1 14 19
M  V30 19 2 14 20
M  V30 20 2 15 21
M  V30 21 1 15 22
M  V30 22 1 17 23
M  V30 23 2 18 24
M  V30 24 2 23 25
M  V30 25 1 25 26
M  V30 26 2 26 27
M  V30 27 2 26 28
M  V30 28 1 26 29
M  V30 29 1 7 8
M  V30 30 1 16 20
M  V30 31 1 24 25
M  V30 END BOND
M  V30 END CTAB
M  END
>  <Molecule Name>
Compound 381

>  <Molecule Name 2>
Compound 381

>  <Compound ID>
129

>  <Name>
TMX-3013

>  <Uniprot>
Q00537

>  <Target>
CDK17

>  <Smiles>
NC(=O)C1=C(F)C=CC=C1NC1=NC(NC2=CC=C(S(N)(=O)=O)C=C2)=NC=C1Br

>  <Kd (nM)>


>  <Assay (Kd)>


>  <Ki (nM)>


>  <Assay (Ki)>


>  <IC50 (nM)>


>  <Assay (IC50)>


>  <EC50 (nM)>


>  <Assay (EC50)>


>  <Article DOI>
10.1016/j.cell.2020.10.038

>  <Molecular Weight>
481.307

>  <Exact Mass>
480.0015496

>  <XLogP3>
2.74

>  <Heavy Atom Count>
29

>  <Ring Count>
3

>  <Hydrogen Bond Acceptor Count>
7

>  <Hydrogen Bond Donor Count>
4

>  <Rotatable Bond Count>
6

>  <Topological Polar Surface Area>
153.09

>  <Molecular Formula>
C17H14BrFN6O3S

>  <InChI>
InChI=1S/C17H14BrFN6O3S/c18-11-8-22-17(23-9-4-6-10(7-5-9)29(21,27)28)25-16(11)24-13-3-1-2-12(19)14(13)15(20)26/h1-8H,(H2,20,26)(H2,21,27,28)(H2,22,23,24,25)

>  <InChI Key>
VCPYDRGRPKSEOJ-UHFFFAOYSA-N

>  <BindingDB>


>  <PubChem>
155184510

>  <ChEMBL>


$$$$
129
Actelion Java MolfileCreator 2.0

  0  0  0  0  0  0              0 V3000
M  V30 BEGIN CTAB
M  V30 COUNTS 29 31 0 0 0
M  V30 BEGIN ATOM
M  V30 1 Br 2.598 1.0 0.0 0
M  V30 2 C 2.598 0.0 0.0 0
M  V30 3 C 1.732 -0.5 0.0 0
M  V30 4 C 3.4641 -0.4999 0.0 0
M  V30 5 N 1.732 -1.5 0.0 0
M  V30 6 N 0.866 0.0 0.0 0
M  V30 7 N 3.4641 -1.4999 0.0 0
M  V30 8 C 2.598 -1.9999 0.0 0
M  V30 9 C 0.0 -0.5 0.0 0
M  V30 10 N 2.598 -2.9999 0.0 0
M  V30 11 C -0.866 0.0 0.0 0
M  V30 12 C 0.0 -1.4999 0.0 0
M  V30 13 C 3.4641 -3.4999 0.0 0
M  V30 14 C -1.732 -0.4999 0.0 0
M  V30 15 C -0.866 1.0 0.0 0
M  V30 16 C -0.866 -1.9999 0.0 0
M  V30 17 C 3.4641 -4.4999 0.0 0
M  V30 18 C 4.3301 -2.9999 0.0 0
M  V30 19 F -2.598 0.0 0.0 0
M  V30 20 C -1.732 -1.4999 0.0 0
M  V30 21 O 0.0 1.5 0.0 0
M  V30 22 N -1.732 1.5 0.0 0
M  V30 23 C 4.3301 -4.9999 0.0 0
M  V30 24 C 5.1961 -3.4999 0.0 0
M  V30 25 C 5.1961 -4.4999 0.0 0
M  V30 26 S 6.0621 -4.9999 0.0 0
M  V30 27 O 5.5621 -5.866 0.0 0
M  V30 28 O 6.5621 -4.1339 0.0 0
M  V30 29 N 6.9282 -5.4999 0.0 0
M  V30 END ATOM
M  V30 BEGIN BOND
M  V30 1 1 1 2
M  V30 2 2 2 3
M  V30 3 1 2 4
M  V30 4 1 3 5
M  V30 5 1 3 6
M  V30 6 2 4 7
M  V30 7 2 5 8
M  V30 8 1 6 9
M  V30 9 1 8 10
M  V30 10 2 9 11
M  V30 11 1 9 12
M  V30 12 1 10 13
M  V30 13 1 11 14
M  V30 14 1 11 15
M  V30 15 2 12 16
M  V30 16 2 13 17
M  V30 17 1 13 18
M  V30 18 1 14 19
M  V30 19 2 14 20
M  V30 20 2 15 21
M  V30 21 1 15 22
M  V30 22 1 17 23
M  V30 23 2 18 24
M  V30 24 2 23 25
M  V30 25 1 25 26
M  V30 26 2 26 27
M  V30 27 2 26 28
M  V30 28 1 26 29
M  V30 29 1 7 8
M  V30 30 1 16 20
M  V30 31 1 24 25
M  V30 END BOND
M  V30 END CTAB
M  END
>  <Molecule Name>
Compound 382

>  <Molecule Name 2>
Compound 382

>  <Compound ID>
129

>  <Name>
TMX-3013

>  <Uniprot>
P06493

>  <Target>
CDK1

>  <Smiles>
NC(=O)C1=C(F)C=CC=C1NC1=NC(NC2=CC=C(S(N)(=O)=O)C=C2)=NC=C1Br

>  <Kd (nM)>


>  <Assay (Kd)>


>  <Ki (nM)>


>  <Assay (Ki)>


>  <IC50 (nM)>
0.9

>  <Assay (IC50)>
IC50 of CDK1/cyclin B was tested by the Z'-LYTE assays

>  <EC50 (nM)>


>  <Assay (EC50)>


>  <Article DOI>
10.1002/anie.202004087

>  <Molecular Weight>
481.307

>  <Exact Mass>
480.0015496

>  <XLogP3>
2.74

>  <Heavy Atom Count>
29

>  <Ring Count>
3

>  <Hydrogen Bond Acceptor Count>
7

>  <Hydrogen Bond Donor Count>
4

>  <Rotatable Bond Count>
6

>  <Topological Polar Surface Area>
153.09

>  <Molecular Formula>
C17H14BrFN6O3S

>  <InChI>
InChI=1S/C17H14BrFN6O3S/c18-11-8-22-17(23-9-4-6-10(7-5-9)29(21,27)28)25-16(11)24-13-3-1-2-12(19)14(13)15(20)26/h1-8H,(H2,20,26)(H2,21,27,28)(H2,22,23,24,25)

>  <InChI Key>
VCPYDRGRPKSEOJ-UHFFFAOYSA-N

>  <BindingDB>


>  <PubChem>
155184510

>  <ChEMBL>


$$$$
129
Actelion Java MolfileCreator 2.0

  0  0  0  0  0  0              0 V3000
M  V30 BEGIN CTAB
M  V30 COUNTS 29 31 0 0 0
M  V30 BEGIN ATOM
M  V30 1 Br 2.598 1.0 0.0 0
M  V30 2 C 2.598 0.0 0.0 0
M  V30 3 C 1.732 -0.5 0.0 0
M  V30 4 C 3.4641 -0.4999 0.0 0
M  V30 5 N 1.732 -1.5 0.0 0
M  V30 6 N 0.866 0.0 0.0 0
M  V30 7 N 3.4641 -1.4999 0.0 0
M  V30 8 C 2.598 -1.9999 0.0 0
M  V30 9 C 0.0 -0.5 0.0 0
M  V30 10 N 2.598 -2.9999 0.0 0
M  V30 11 C -0.866 0.0 0.0 0
M  V30 12 C 0.0 -1.4999 0.0 0
M  V30 13 C 3.4641 -3.4999 0.0 0
M  V30 14 C -1.732 -0.4999 0.0 0
M  V30 15 C -0.866 1.0 0.0 0
M  V30 16 C -0.866 -1.9999 0.0 0
M  V30 17 C 3.4641 -4.4999 0.0 0
M  V30 18 C 4.3301 -2.9999 0.0 0
M  V30 19 F -2.598 0.0 0.0 0
M  V30 20 C -1.732 -1.4999 0.0 0
M  V30 21 O 0.0 1.5 0.0 0
M  V30 22 N -1.732 1.5 0.0 0
M  V30 23 C 4.3301 -4.9999 0.0 0
M  V30 24 C 5.1961 -3.4999 0.0 0
M  V30 25 C 5.1961 -4.4999 0.0 0
M  V30 26 S 6.0621 -4.9999 0.0 0
M  V30 27 O 5.5621 -5.866 0.0 0
M  V30 28 O 6.5621 -4.1339 0.0 0
M  V30 29 N 6.9282 -5.4999 0.0 0
M  V30 END ATOM
M  V30 BEGIN BOND
M  V30 1 1 1 2
M  V30 2 2 2 3
M  V30 3 1 2 4
M  V30 4 1 3 5
M  V30 5 1 3 6
M  V30 6 2 4 7
M  V30 7 2 5 8
M  V30 8 1 6 9
M  V30 9 1 8 10
M  V30 10 2 9 11
M  V30 11 1 9 12
M  V30 12 1 10 13
M  V30 13 1 11 14
M  V30 14 1 11 15
M  V30 15 2 12 16
M  V30 16 2 13 17
M  V30 17 1 13 18
M  V30 18 1 14 19
M  V30 19 2 14 20
M  V30 20 2 15 21
M  V30 21 1 15 22
M  V30 22 1 17 23
M  V30 23 2 18 24
M  V30 24 2 23 25
M  V30 25 1 25 26
M  V30 26 2 26 27
M  V30 27 2 26 28
M  V30 28 1 26 29
M  V30 29 1 7 8
M  V30 30 1 16 20
M  V30 31 1 24 25
M  V30 END BOND
M  V30 END CTAB
M  END
>  <Molecule Name>
Compound 383

>  <Molecule Name 2>
Compound 383

>  <Compound ID>
129

>  <Name>
TMX-3013

>  <Uniprot>
P24941

>  <Target>
CDK2

>  <Smiles>
NC(=O)C1=C(F)C=CC=C1NC1=NC(NC2=CC=C(S(N)(=O)=O)C=C2)=NC=C1Br

>  <Kd (nM)>


>  <Assay (Kd)>


>  <Ki (nM)>


>  <Assay (Ki)>


>  <IC50 (nM)>
<0.5

>  <Assay (IC50)>
IC50 of CDK2/cyclin A was tested by the Z'-LYTE assays

>  <EC50 (nM)>


>  <Assay (EC50)>


>  <Article DOI>
10.1002/anie.202004087

>  <Molecular Weight>
481.307

>  <Exact Mass>
480.0015496

>  <XLogP3>
2.74

>  <Heavy Atom Count>
29

>  <Ring Count>
3

>  <Hydrogen Bond Acceptor Count>
7

>  <Hydrogen Bond Donor Count>
4

>  <Rotatable Bond Count>
6

>  <Topological Polar Surface Area>
153.09

>  <Molecular Formula>
C17H14BrFN6O3S

>  <InChI>
InChI=1S/C17H14BrFN6O3S/c18-11-8-22-17(23-9-4-6-10(7-5-9)29(21,27)28)25-16(11)24-13-3-1-2-12(19)14(13)15(20)26/h1-8H,(H2,20,26)(H2,21,27,28)(H2,22,23,24,25)

>  <InChI Key>
VCPYDRGRPKSEOJ-UHFFFAOYSA-N

>  <BindingDB>


>  <PubChem>
155184510

>  <ChEMBL>


$$$$
129
Actelion Java MolfileCreator 2.0

  0  0  0  0  0  0              0 V3000
M  V30 BEGIN CTAB
M  V30 COUNTS 29 31 0 0 0
M  V30 BEGIN ATOM
M  V30 1 Br 2.598 1.0 0.0 0
M  V30 2 C 2.598 0.0 0.0 0
M  V30 3 C 1.732 -0.5 0.0 0
M  V30 4 C 3.4641 -0.4999 0.0 0
M  V30 5 N 1.732 -1.5 0.0 0
M  V30 6 N 0.866 0.0 0.0 0
M  V30 7 N 3.4641 -1.4999 0.0 0
M  V30 8 C 2.598 -1.9999 0.0 0
M  V30 9 C 0.0 -0.5 0.0 0
M  V30 10 N 2.598 -2.9999 0.0 0
M  V30 11 C -0.866 0.0 0.0 0
M  V30 12 C 0.0 -1.4999 0.0 0
M  V30 13 C 3.4641 -3.4999 0.0 0
M  V30 14 C -1.732 -0.4999 0.0 0
M  V30 15 C -0.866 1.0 0.0 0
M  V30 16 C -0.866 -1.9999 0.0 0
M  V30 17 C 3.4641 -4.4999 0.0 0
M  V30 18 C 4.3301 -2.9999 0.0 0
M  V30 19 F -2.598 0.0 0.0 0
M  V30 20 C -1.732 -1.4999 0.0 0
M  V30 21 O 0.0 1.5 0.0 0
M  V30 22 N -1.732 1.5 0.0 0
M  V30 23 C 4.3301 -4.9999 0.0 0
M  V30 24 C 5.1961 -3.4999 0.0 0
M  V30 25 C 5.1961 -4.4999 0.0 0
M  V30 26 S 6.0621 -4.9999 0.0 0
M  V30 27 O 5.5621 -5.866 0.0 0
M  V30 28 O 6.5621 -4.1339 0.0 0
M  V30 29 N 6.9282 -5.4999 0.0 0
M  V30 END ATOM
M  V30 BEGIN BOND
M  V30 1 1 1 2
M  V30 2 2 2 3
M  V30 3 1 2 4
M  V30 4 1 3 5
M  V30 5 1 3 6
M  V30 6 2 4 7
M  V30 7 2 5 8
M  V30 8 1 6 9
M  V30 9 1 8 10
M  V30 10 2 9 11
M  V30 11 1 9 12
M  V30 12 1 10 13
M  V30 13 1 11 14
M  V30 14 1 11 15
M  V30 15 2 12 16
M  V30 16 2 13 17
M  V30 17 1 13 18
M  V30 18 1 14 19
M  V30 19 2 14 20
M  V30 20 2 15 21
M  V30 21 1 15 22
M  V30 22 1 17 23
M  V30 23 2 18 24
M  V30 24 2 23 25
M  V30 25 1 25 26
M  V30 26 2 26 27
M  V30 27 2 26 28
M  V30 28 1 26 29
M  V30 29 1 7 8
M  V30 30 1 16 20
M  V30 31 1 24 25
M  V30 END BOND
M  V30 END CTAB
M  END
>  <Molecule Name>
Compound 384

>  <Molecule Name 2>
Compound 384

>  <Compound ID>
129

>  <Name>
TMX-3013

>  <Uniprot>
P11802

>  <Target>
CDK4

>  <Smiles>
NC(=O)C1=C(F)C=CC=C1NC1=NC(NC2=CC=C(S(N)(=O)=O)C=C2)=NC=C1Br

>  <Kd (nM)>


>  <Assay (Kd)>


>  <Ki (nM)>


>  <Assay (Ki)>


>  <IC50 (nM)>
24.5

>  <Assay (IC50)>
IC50 of CDK4/cyclin D1 was tested by the Adapta assays

>  <EC50 (nM)>


>  <Assay (EC50)>


>  <Article DOI>
10.1002/anie.202004087

>  <Molecular Weight>
481.307

>  <Exact Mass>
480.0015496

>  <XLogP3>
2.74

>  <Heavy Atom Count>
29

>  <Ring Count>
3

>  <Hydrogen Bond Acceptor Count>
7

>  <Hydrogen Bond Donor Count>
4

>  <Rotatable Bond Count>
6

>  <Topological Polar Surface Area>
153.09

>  <Molecular Formula>
C17H14BrFN6O3S

>  <InChI>
InChI=1S/C17H14BrFN6O3S/c18-11-8-22-17(23-9-4-6-10(7-5-9)29(21,27)28)25-16(11)24-13-3-1-2-12(19)14(13)15(20)26/h1-8H,(H2,20,26)(H2,21,27,28)(H2,22,23,24,25)

>  <InChI Key>
VCPYDRGRPKSEOJ-UHFFFAOYSA-N

>  <BindingDB>


>  <PubChem>
155184510

>  <ChEMBL>


$$$$
129
Actelion Java MolfileCreator 2.0

  0  0  0  0  0  0              0 V3000
M  V30 BEGIN CTAB
M  V30 COUNTS 29 31 0 0 0
M  V30 BEGIN ATOM
M  V30 1 Br 2.598 1.0 0.0 0
M  V30 2 C 2.598 0.0 0.0 0
M  V30 3 C 1.732 -0.5 0.0 0
M  V30 4 C 3.4641 -0.4999 0.0 0
M  V30 5 N 1.732 -1.5 0.0 0
M  V30 6 N 0.866 0.0 0.0 0
M  V30 7 N 3.4641 -1.4999 0.0 0
M  V30 8 C 2.598 -1.9999 0.0 0
M  V30 9 C 0.0 -0.5 0.0 0
M  V30 10 N 2.598 -2.9999 0.0 0
M  V30 11 C -0.866 0.0 0.0 0
M  V30 12 C 0.0 -1.4999 0.0 0
M  V30 13 C 3.4641 -3.4999 0.0 0
M  V30 14 C -1.732 -0.4999 0.0 0
M  V30 15 C -0.866 1.0 0.0 0
M  V30 16 C -0.866 -1.9999 0.0 0
M  V30 17 C 3.4641 -4.4999 0.0 0
M  V30 18 C 4.3301 -2.9999 0.0 0
M  V30 19 F -2.598 0.0 0.0 0
M  V30 20 C -1.732 -1.4999 0.0 0
M  V30 21 O 0.0 1.5 0.0 0
M  V30 22 N -1.732 1.5 0.0 0
M  V30 23 C 4.3301 -4.9999 0.0 0
M  V30 24 C 5.1961 -3.4999 0.0 0
M  V30 25 C 5.1961 -4.4999 0.0 0
M  V30 26 S 6.0621 -4.9999 0.0 0
M  V30 27 O 5.5621 -5.866 0.0 0
M  V30 28 O 6.5621 -4.1339 0.0 0
M  V30 29 N 6.9282 -5.4999 0.0 0
M  V30 END ATOM
M  V30 BEGIN BOND
M  V30 1 1 1 2
M  V30 2 2 2 3
M  V30 3 1 2 4
M  V30 4 1 3 5
M  V30 5 1 3 6
M  V30 6 2 4 7
M  V30 7 2 5 8
M  V30 8 1 6 9
M  V30 9 1 8 10
M  V30 10 2 9 11
M  V30 11 1 9 12
M  V30 12 1 10 13
M  V30 13 1 11 14
M  V30 14 1 11 15
M  V30 15 2 12 16
M  V30 16 2 13 17
M  V30 17 1 13 18
M  V30 18 1 14 19
M  V30 19 2 14 20
M  V30 20 2 15 21
M  V30 21 1 15 22
M  V30 22 1 17 23
M  V30 23 2 18 24
M  V30 24 2 23 25
M  V30 25 1 25 26
M  V30 26 2 26 27
M  V30 27 2 26 28
M  V30 28 1 26 29
M  V30 29 1 7 8
M  V30 30 1 16 20
M  V30 31 1 24 25
M  V30 END BOND
M  V30 END CTAB
M  END
>  <Molecule Name>
Compound 385

>  <Molecule Name 2>
Compound 385

>  <Compound ID>
129

>  <Name>
TMX-3013

>  <Uniprot>
Q00535

>  <Target>
CDK5

>  <Smiles>
NC(=O)C1=C(F)C=CC=C1NC1=NC(NC2=CC=C(S(N)(=O)=O)C=C2)=NC=C1Br

>  <Kd (nM)>


>  <Assay (Kd)>


>  <Ki (nM)>


>  <Assay (Ki)>


>  <IC50 (nM)>
0.5

>  <Assay (IC50)>
IC50 of CDK5/p25 was tested by the Z'-LYTE assays

>  <EC50 (nM)>


>  <Assay (EC50)>


>  <Article DOI>
10.1002/anie.202004087

>  <Molecular Weight>
481.307

>  <Exact Mass>
480.0015496

>  <XLogP3>
2.74

>  <Heavy Atom Count>
29

>  <Ring Count>
3

>  <Hydrogen Bond Acceptor Count>
7

>  <Hydrogen Bond Donor Count>
4

>  <Rotatable Bond Count>
6

>  <Topological Polar Surface Area>
153.09

>  <Molecular Formula>
C17H14BrFN6O3S

>  <InChI>
InChI=1S/C17H14BrFN6O3S/c18-11-8-22-17(23-9-4-6-10(7-5-9)29(21,27)28)25-16(11)24-13-3-1-2-12(19)14(13)15(20)26/h1-8H,(H2,20,26)(H2,21,27,28)(H2,22,23,24,25)

>  <InChI Key>
VCPYDRGRPKSEOJ-UHFFFAOYSA-N

>  <BindingDB>


>  <PubChem>
155184510

>  <ChEMBL>


$$$$
129
Actelion Java MolfileCreator 2.0

  0  0  0  0  0  0              0 V3000
M  V30 BEGIN CTAB
M  V30 COUNTS 29 31 0 0 0
M  V30 BEGIN ATOM
M  V30 1 Br 2.598 1.0 0.0 0
M  V30 2 C 2.598 0.0 0.0 0
M  V30 3 C 1.732 -0.5 0.0 0
M  V30 4 C 3.4641 -0.4999 0.0 0
M  V30 5 N 1.732 -1.5 0.0 0
M  V30 6 N 0.866 0.0 0.0 0
M  V30 7 N 3.4641 -1.4999 0.0 0
M  V30 8 C 2.598 -1.9999 0.0 0
M  V30 9 C 0.0 -0.5 0.0 0
M  V30 10 N 2.598 -2.9999 0.0 0
M  V30 11 C -0.866 0.0 0.0 0
M  V30 12 C 0.0 -1.4999 0.0 0
M  V30 13 C 3.4641 -3.4999 0.0 0
M  V30 14 C -1.732 -0.4999 0.0 0
M  V30 15 C -0.866 1.0 0.0 0
M  V30 16 C -0.866 -1.9999 0.0 0
M  V30 17 C 3.4641 -4.4999 0.0 0
M  V30 18 C 4.3301 -2.9999 0.0 0
M  V30 19 F -2.598 0.0 0.0 0
M  V30 20 C -1.732 -1.4999 0.0 0
M  V30 21 O 0.0 1.5 0.0 0
M  V30 22 N -1.732 1.5 0.0 0
M  V30 23 C 4.3301 -4.9999 0.0 0
M  V30 24 C 5.1961 -3.4999 0.0 0
M  V30 25 C 5.1961 -4.4999 0.0 0
M  V30 26 S 6.0621 -4.9999 0.0 0
M  V30 27 O 5.5621 -5.866 0.0 0
M  V30 28 O 6.5621 -4.1339 0.0 0
M  V30 29 N 6.9282 -5.4999 0.0 0
M  V30 END ATOM
M  V30 BEGIN BOND
M  V30 1 1 1 2
M  V30 2 2 2 3
M  V30 3 1 2 4
M  V30 4 1 3 5
M  V30 5 1 3 6
M  V30 6 2 4 7
M  V30 7 2 5 8
M  V30 8 1 6 9
M  V30 9 1 8 10
M  V30 10 2 9 11
M  V30 11 1 9 12
M  V30 12 1 10 13
M  V30 13 1 11 14
M  V30 14 1 11 15
M  V30 15 2 12 16
M  V30 16 2 13 17
M  V30 17 1 13 18
M  V30 18 1 14 19
M  V30 19 2 14 20
M  V30 20 2 15 21
M  V30 21 1 15 22
M  V30 22 1 17 23
M  V30 23 2 18 24
M  V30 24 2 23 25
M  V30 25 1 25 26
M  V30 26 2 26 27
M  V30 27 2 26 28
M  V30 28 1 26 29
M  V30 29 1 7 8
M  V30 30 1 16 20
M  V30 31 1 24 25
M  V30 END BOND
M  V30 END CTAB
M  END
>  <Molecule Name>
Compound 386

>  <Molecule Name 2>
Compound 386

>  <Compound ID>
129

>  <Name>
TMX-3013

>  <Uniprot>
Q00534

>  <Target>
CDK6

>  <Smiles>
NC(=O)C1=C(F)C=CC=C1NC1=NC(NC2=CC=C(S(N)(=O)=O)C=C2)=NC=C1Br

>  <Kd (nM)>


>  <Assay (Kd)>


>  <Ki (nM)>


>  <Assay (Ki)>


>  <IC50 (nM)>
15.6

>  <Assay (IC50)>
IC50 of CDK6/cyclin D1 was tested by the Adapta assays

>  <EC50 (nM)>


>  <Assay (EC50)>


>  <Article DOI>
10.1002/anie.202004087

>  <Molecular Weight>
481.307

>  <Exact Mass>
480.0015496

>  <XLogP3>
2.74

>  <Heavy Atom Count>
29

>  <Ring Count>
3

>  <Hydrogen Bond Acceptor Count>
7

>  <Hydrogen Bond Donor Count>
4

>  <Rotatable Bond Count>
6

>  <Topological Polar Surface Area>
153.09

>  <Molecular Formula>
C17H14BrFN6O3S

>  <InChI>
InChI=1S/C17H14BrFN6O3S/c18-11-8-22-17(23-9-4-6-10(7-5-9)29(21,27)28)25-16(11)24-13-3-1-2-12(19)14(13)15(20)26/h1-8H,(H2,20,26)(H2,21,27,28)(H2,22,23,24,25)

>  <InChI Key>
VCPYDRGRPKSEOJ-UHFFFAOYSA-N

>  <BindingDB>


>  <PubChem>
155184510

>  <ChEMBL>


$$$$
129
Actelion Java MolfileCreator 2.0

  0  0  0  0  0  0              0 V3000
M  V30 BEGIN CTAB
M  V30 COUNTS 29 31 0 0 0
M  V30 BEGIN ATOM
M  V30 1 Br 2.598 1.0 0.0 0
M  V30 2 C 2.598 0.0 0.0 0
M  V30 3 C 1.732 -0.5 0.0 0
M  V30 4 C 3.4641 -0.4999 0.0 0
M  V30 5 N 1.732 -1.5 0.0 0
M  V30 6 N 0.866 0.0 0.0 0
M  V30 7 N 3.4641 -1.4999 0.0 0
M  V30 8 C 2.598 -1.9999 0.0 0
M  V30 9 C 0.0 -0.5 0.0 0
M  V30 10 N 2.598 -2.9999 0.0 0
M  V30 11 C -0.866 0.0 0.0 0
M  V30 12 C 0.0 -1.4999 0.0 0
M  V30 13 C 3.4641 -3.4999 0.0 0
M  V30 14 C -1.732 -0.4999 0.0 0
M  V30 15 C -0.866 1.0 0.0 0
M  V30 16 C -0.866 -1.9999 0.0 0
M  V30 17 C 3.4641 -4.4999 0.0 0
M  V30 18 C 4.3301 -2.9999 0.0 0
M  V30 19 F -2.598 0.0 0.0 0
M  V30 20 C -1.732 -1.4999 0.0 0
M  V30 21 O 0.0 1.5 0.0 0
M  V30 22 N -1.732 1.5 0.0 0
M  V30 23 C 4.3301 -4.9999 0.0 0
M  V30 24 C 5.1961 -3.4999 0.0 0
M  V30 25 C 5.1961 -4.4999 0.0 0
M  V30 26 S 6.0621 -4.9999 0.0 0
M  V30 27 O 5.5621 -5.866 0.0 0
M  V30 28 O 6.5621 -4.1339 0.0 0
M  V30 29 N 6.9282 -5.4999 0.0 0
M  V30 END ATOM
M  V30 BEGIN BOND
M  V30 1 1 1 2
M  V30 2 2 2 3
M  V30 3 1 2 4
M  V30 4 1 3 5
M  V30 5 1 3 6
M  V30 6 2 4 7
M  V30 7 2 5 8
M  V30 8 1 6 9
M  V30 9 1 8 10
M  V30 10 2 9 11
M  V30 11 1 9 12
M  V30 12 1 10 13
M  V30 13 1 11 14
M  V30 14 1 11 15
M  V30 15 2 12 16
M  V30 16 2 13 17
M  V30 17 1 13 18
M  V30 18 1 14 19
M  V30 19 2 14 20
M  V30 20 2 15 21
M  V30 21 1 15 22
M  V30 22 1 17 23
M  V30 23 2 18 24
M  V30 24 2 23 25
M  V30 25 1 25 26
M  V30 26 2 26 27
M  V30 27 2 26 28
M  V30 28 1 26 29
M  V30 29 1 7 8
M  V30 30 1 16 20
M  V30 31 1 24 25
M  V30 END BOND
M  V30 END CTAB
M  END
>  <Molecule Name>
Compound 387

>  <Molecule Name 2>
Compound 387

>  <Compound ID>
129

>  <Name>
TMX-3013

>  <Uniprot>
P50613

>  <Target>
CDK7

>  <Smiles>
NC(=O)C1=C(F)C=CC=C1NC1=NC(NC2=CC=C(S(N)(=O)=O)C=C2)=NC=C1Br

>  <Kd (nM)>


>  <Assay (Kd)>


>  <Ki (nM)>


>  <Assay (Ki)>


>  <IC50 (nM)>


>  <Assay (IC50)>


>  <EC50 (nM)>


>  <Assay (EC50)>


>  <Article DOI>
10.1016/j.cell.2020.10.038

>  <Molecular Weight>
481.307

>  <Exact Mass>
480.0015496

>  <XLogP3>
2.74

>  <Heavy Atom Count>
29

>  <Ring Count>
3

>  <Hydrogen Bond Acceptor Count>
7

>  <Hydrogen Bond Donor Count>
4

>  <Rotatable Bond Count>
6

>  <Topological Polar Surface Area>
153.09

>  <Molecular Formula>
C17H14BrFN6O3S

>  <InChI>
InChI=1S/C17H14BrFN6O3S/c18-11-8-22-17(23-9-4-6-10(7-5-9)29(21,27)28)25-16(11)24-13-3-1-2-12(19)14(13)15(20)26/h1-8H,(H2,20,26)(H2,21,27,28)(H2,22,23,24,25)

>  <InChI Key>
VCPYDRGRPKSEOJ-UHFFFAOYSA-N

>  <BindingDB>


>  <PubChem>
155184510

>  <ChEMBL>


$$$$
129
Actelion Java MolfileCreator 2.0

  0  0  0  0  0  0              0 V3000
M  V30 BEGIN CTAB
M  V30 COUNTS 29 31 0 0 0
M  V30 BEGIN ATOM
M  V30 1 Br 2.598 1.0 0.0 0
M  V30 2 C 2.598 0.0 0.0 0
M  V30 3 C 1.732 -0.5 0.0 0
M  V30 4 C 3.4641 -0.4999 0.0 0
M  V30 5 N 1.732 -1.5 0.0 0
M  V30 6 N 0.866 0.0 0.0 0
M  V30 7 N 3.4641 -1.4999 0.0 0
M  V30 8 C 2.598 -1.9999 0.0 0
M  V30 9 C 0.0 -0.5 0.0 0
M  V30 10 N 2.598 -2.9999 0.0 0
M  V30 11 C -0.866 0.0 0.0 0
M  V30 12 C 0.0 -1.4999 0.0 0
M  V30 13 C 3.4641 -3.4999 0.0 0
M  V30 14 C -1.732 -0.4999 0.0 0
M  V30 15 C -0.866 1.0 0.0 0
M  V30 16 C -0.866 -1.9999 0.0 0
M  V30 17 C 3.4641 -4.4999 0.0 0
M  V30 18 C 4.3301 -2.9999 0.0 0
M  V30 19 F -2.598 0.0 0.0 0
M  V30 20 C -1.732 -1.4999 0.0 0
M  V30 21 O 0.0 1.5 0.0 0
M  V30 22 N -1.732 1.5 0.0 0
M  V30 23 C 4.3301 -4.9999 0.0 0
M  V30 24 C 5.1961 -3.4999 0.0 0
M  V30 25 C 5.1961 -4.4999 0.0 0
M  V30 26 S 6.0621 -4.9999 0.0 0
M  V30 27 O 5.5621 -5.866 0.0 0
M  V30 28 O 6.5621 -4.1339 0.0 0
M  V30 29 N 6.9282 -5.4999 0.0 0
M  V30 END ATOM
M  V30 BEGIN BOND
M  V30 1 1 1 2
M  V30 2 2 2 3
M  V30 3 1 2 4
M  V30 4 1 3 5
M  V30 5 1 3 6
M  V30 6 2 4 7
M  V30 7 2 5 8
M  V30 8 1 6 9
M  V30 9 1 8 10
M  V30 10 2 9 11
M  V30 11 1 9 12
M  V30 12 1 10 13
M  V30 13 1 11 14
M  V30 14 1 11 15
M  V30 15 2 12 16
M  V30 16 2 13 17
M  V30 17 1 13 18
M  V30 18 1 14 19
M  V30 19 2 14 20
M  V30 20 2 15 21
M  V30 21 1 15 22
M  V30 22 1 17 23
M  V30 23 2 18 24
M  V30 24 2 23 25
M  V30 25 1 25 26
M  V30 26 2 26 27
M  V30 27 2 26 28
M  V30 28 1 26 29
M  V30 29 1 7 8
M  V30 30 1 16 20
M  V30 31 1 24 25
M  V30 END BOND
M  V30 END CTAB
M  END
>  <Molecule Name>
Compound 388

>  <Molecule Name 2>
Compound 388

>  <Compound ID>
129

>  <Name>
TMX-3013

>  <Uniprot>
P50750

>  <Target>
CDK9

>  <Smiles>
NC(=O)C1=C(F)C=CC=C1NC1=NC(NC2=CC=C(S(N)(=O)=O)C=C2)=NC=C1Br

>  <Kd (nM)>


>  <Assay (Kd)>


>  <Ki (nM)>


>  <Assay (Ki)>


>  <IC50 (nM)>


>  <Assay (IC50)>


>  <EC50 (nM)>


>  <Assay (EC50)>


>  <Article DOI>
10.1016/j.cell.2020.10.038

>  <Molecular Weight>
481.307

>  <Exact Mass>
480.0015496

>  <XLogP3>
2.74

>  <Heavy Atom Count>
29

>  <Ring Count>
3

>  <Hydrogen Bond Acceptor Count>
7

>  <Hydrogen Bond Donor Count>
4

>  <Rotatable Bond Count>
6

>  <Topological Polar Surface Area>
153.09

>  <Molecular Formula>
C17H14BrFN6O3S

>  <InChI>
InChI=1S/C17H14BrFN6O3S/c18-11-8-22-17(23-9-4-6-10(7-5-9)29(21,27)28)25-16(11)24-13-3-1-2-12(19)14(13)15(20)26/h1-8H,(H2,20,26)(H2,21,27,28)(H2,22,23,24,25)

>  <InChI Key>
VCPYDRGRPKSEOJ-UHFFFAOYSA-N

>  <BindingDB>


>  <PubChem>
155184510

>  <ChEMBL>


$$$$
129
Actelion Java MolfileCreator 2.0

  0  0  0  0  0  0              0 V3000
M  V30 BEGIN CTAB
M  V30 COUNTS 29 31 0 0 0
M  V30 BEGIN ATOM
M  V30 1 Br 2.598 1.0 0.0 0
M  V30 2 C 2.598 0.0 0.0 0
M  V30 3 C 1.732 -0.5 0.0 0
M  V30 4 C 3.4641 -0.4999 0.0 0
M  V30 5 N 1.732 -1.5 0.0 0
M  V30 6 N 0.866 0.0 0.0 0
M  V30 7 N 3.4641 -1.4999 0.0 0
M  V30 8 C 2.598 -1.9999 0.0 0
M  V30 9 C 0.0 -0.5 0.0 0
M  V30 10 N 2.598 -2.9999 0.0 0
M  V30 11 C -0.866 0.0 0.0 0
M  V30 12 C 0.0 -1.4999 0.0 0
M  V30 13 C 3.4641 -3.4999 0.0 0
M  V30 14 C -1.732 -0.4999 0.0 0
M  V30 15 C -0.866 1.0 0.0 0
M  V30 16 C -0.866 -1.9999 0.0 0
M  V30 17 C 3.4641 -4.4999 0.0 0
M  V30 18 C 4.3301 -2.9999 0.0 0
M  V30 19 F -2.598 0.0 0.0 0
M  V30 20 C -1.732 -1.4999 0.0 0
M  V30 21 O 0.0 1.5 0.0 0
M  V30 22 N -1.732 1.5 0.0 0
M  V30 23 C 4.3301 -4.9999 0.0 0
M  V30 24 C 5.1961 -3.4999 0.0 0
M  V30 25 C 5.1961 -4.4999 0.0 0
M  V30 26 S 6.0621 -4.9999 0.0 0
M  V30 27 O 5.5621 -5.866 0.0 0
M  V30 28 O 6.5621 -4.1339 0.0 0
M  V30 29 N 6.9282 -5.4999 0.0 0
M  V30 END ATOM
M  V30 BEGIN BOND
M  V30 1 1 1 2
M  V30 2 2 2 3
M  V30 3 1 2 4
M  V30 4 1 3 5
M  V30 5 1 3 6
M  V30 6 2 4 7
M  V30 7 2 5 8
M  V30 8 1 6 9
M  V30 9 1 8 10
M  V30 10 2 9 11
M  V30 11 1 9 12
M  V30 12 1 10 13
M  V30 13 1 11 14
M  V30 14 1 11 15
M  V30 15 2 12 16
M  V30 16 2 13 17
M  V30 17 1 13 18
M  V30 18 1 14 19
M  V30 19 2 14 20
M  V30 20 2 15 21
M  V30 21 1 15 22
M  V30 22 1 17 23
M  V30 23 2 18 24
M  V30 24 2 23 25
M  V30 25 1 25 26
M  V30 26 2 26 27
M  V30 27 2 26 28
M  V30 28 1 26 29
M  V30 29 1 7 8
M  V30 30 1 16 20
M  V30 31 1 24 25
M  V30 END BOND
M  V30 END CTAB
M  END
>  <Molecule Name>
Compound 389

>  <Molecule Name 2>
Compound 389

>  <Compound ID>
129

>  <Name>
TMX-3013

>  <Uniprot>
P49759

>  <Target>
CLK1

>  <Smiles>
NC(=O)C1=C(F)C=CC=C1NC1=NC(NC2=CC=C(S(N)(=O)=O)C=C2)=NC=C1Br

>  <Kd (nM)>


>  <Assay (Kd)>


>  <Ki (nM)>


>  <Assay (Ki)>


>  <IC50 (nM)>


>  <Assay (IC50)>


>  <EC50 (nM)>


>  <Assay (EC50)>


>  <Article DOI>
10.1016/j.cell.2020.10.038

>  <Molecular Weight>
481.307

>  <Exact Mass>
480.0015496

>  <XLogP3>
2.74

>  <Heavy Atom Count>
29

>  <Ring Count>
3

>  <Hydrogen Bond Acceptor Count>
7

>  <Hydrogen Bond Donor Count>
4

>  <Rotatable Bond Count>
6

>  <Topological Polar Surface Area>
153.09

>  <Molecular Formula>
C17H14BrFN6O3S

>  <InChI>
InChI=1S/C17H14BrFN6O3S/c18-11-8-22-17(23-9-4-6-10(7-5-9)29(21,27)28)25-16(11)24-13-3-1-2-12(19)14(13)15(20)26/h1-8H,(H2,20,26)(H2,21,27,28)(H2,22,23,24,25)

>  <InChI Key>
VCPYDRGRPKSEOJ-UHFFFAOYSA-N

>  <BindingDB>


>  <PubChem>
155184510

>  <ChEMBL>


$$$$
129
Actelion Java MolfileCreator 2.0

  0  0  0  0  0  0              0 V3000
M  V30 BEGIN CTAB
M  V30 COUNTS 29 31 0 0 0
M  V30 BEGIN ATOM
M  V30 1 Br 2.598 1.0 0.0 0
M  V30 2 C 2.598 0.0 0.0 0
M  V30 3 C 1.732 -0.5 0.0 0
M  V30 4 C 3.4641 -0.4999 0.0 0
M  V30 5 N 1.732 -1.5 0.0 0
M  V30 6 N 0.866 0.0 0.0 0
M  V30 7 N 3.4641 -1.4999 0.0 0
M  V30 8 C 2.598 -1.9999 0.0 0
M  V30 9 C 0.0 -0.5 0.0 0
M  V30 10 N 2.598 -2.9999 0.0 0
M  V30 11 C -0.866 0.0 0.0 0
M  V30 12 C 0.0 -1.4999 0.0 0
M  V30 13 C 3.4641 -3.4999 0.0 0
M  V30 14 C -1.732 -0.4999 0.0 0
M  V30 15 C -0.866 1.0 0.0 0
M  V30 16 C -0.866 -1.9999 0.0 0
M  V30 17 C 3.4641 -4.4999 0.0 0
M  V30 18 C 4.3301 -2.9999 0.0 0
M  V30 19 F -2.598 0.0 0.0 0
M  V30 20 C -1.732 -1.4999 0.0 0
M  V30 21 O 0.0 1.5 0.0 0
M  V30 22 N -1.732 1.5 0.0 0
M  V30 23 C 4.3301 -4.9999 0.0 0
M  V30 24 C 5.1961 -3.4999 0.0 0
M  V30 25 C 5.1961 -4.4999 0.0 0
M  V30 26 S 6.0621 -4.9999 0.0 0
M  V30 27 O 5.5621 -5.866 0.0 0
M  V30 28 O 6.5621 -4.1339 0.0 0
M  V30 29 N 6.9282 -5.4999 0.0 0
M  V30 END ATOM
M  V30 BEGIN BOND
M  V30 1 1 1 2
M  V30 2 2 2 3
M  V30 3 1 2 4
M  V30 4 1 3 5
M  V30 5 1 3 6
M  V30 6 2 4 7
M  V30 7 2 5 8
M  V30 8 1 6 9
M  V30 9 1 8 10
M  V30 10 2 9 11
M  V30 11 1 9 12
M  V30 12 1 10 13
M  V30 13 1 11 14
M  V30 14 1 11 15
M  V30 15 2 12 16
M  V30 16 2 13 17
M  V30 17 1 13 18
M  V30 18 1 14 19
M  V30 19 2 14 20
M  V30 20 2 15 21
M  V30 21 1 15 22
M  V30 22 1 17 23
M  V30 23 2 18 24
M  V30 24 2 23 25
M  V30 25 1 25 26
M  V30 26 2 26 27
M  V30 27 2 26 28
M  V30 28 1 26 29
M  V30 29 1 7 8
M  V30 30 1 16 20
M  V30 31 1 24 25
M  V30 END BOND
M  V30 END CTAB
M  END
>  <Molecule Name>
Compound 390

>  <Molecule Name 2>
Compound 390

>  <Compound ID>
129

>  <Name>
TMX-3013

>  <Uniprot>
P16591

>  <Target>
FER

>  <Smiles>
NC(=O)C1=C(F)C=CC=C1NC1=NC(NC2=CC=C(S(N)(=O)=O)C=C2)=NC=C1Br

>  <Kd (nM)>


>  <Assay (Kd)>


>  <Ki (nM)>


>  <Assay (Ki)>


>  <IC50 (nM)>


>  <Assay (IC50)>


>  <EC50 (nM)>


>  <Assay (EC50)>


>  <Article DOI>
10.1016/j.cell.2020.10.038

>  <Molecular Weight>
481.307

>  <Exact Mass>
480.0015496

>  <XLogP3>
2.74

>  <Heavy Atom Count>
29

>  <Ring Count>
3

>  <Hydrogen Bond Acceptor Count>
7

>  <Hydrogen Bond Donor Count>
4

>  <Rotatable Bond Count>
6

>  <Topological Polar Surface Area>
153.09

>  <Molecular Formula>
C17H14BrFN6O3S

>  <InChI>
InChI=1S/C17H14BrFN6O3S/c18-11-8-22-17(23-9-4-6-10(7-5-9)29(21,27)28)25-16(11)24-13-3-1-2-12(19)14(13)15(20)26/h1-8H,(H2,20,26)(H2,21,27,28)(H2,22,23,24,25)

>  <InChI Key>
VCPYDRGRPKSEOJ-UHFFFAOYSA-N

>  <BindingDB>


>  <PubChem>
155184510

>  <ChEMBL>


$$$$
129
Actelion Java MolfileCreator 2.0

  0  0  0  0  0  0              0 V3000
M  V30 BEGIN CTAB
M  V30 COUNTS 29 31 0 0 0
M  V30 BEGIN ATOM
M  V30 1 Br 2.598 1.0 0.0 0
M  V30 2 C 2.598 0.0 0.0 0
M  V30 3 C 1.732 -0.5 0.0 0
M  V30 4 C 3.4641 -0.4999 0.0 0
M  V30 5 N 1.732 -1.5 0.0 0
M  V30 6 N 0.866 0.0 0.0 0
M  V30 7 N 3.4641 -1.4999 0.0 0
M  V30 8 C 2.598 -1.9999 0.0 0
M  V30 9 C 0.0 -0.5 0.0 0
M  V30 10 N 2.598 -2.9999 0.0 0
M  V30 11 C -0.866 0.0 0.0 0
M  V30 12 C 0.0 -1.4999 0.0 0
M  V30 13 C 3.4641 -3.4999 0.0 0
M  V30 14 C -1.732 -0.4999 0.0 0
M  V30 15 C -0.866 1.0 0.0 0
M  V30 16 C -0.866 -1.9999 0.0 0
M  V30 17 C 3.4641 -4.4999 0.0 0
M  V30 18 C 4.3301 -2.9999 0.0 0
M  V30 19 F -2.598 0.0 0.0 0
M  V30 20 C -1.732 -1.4999 0.0 0
M  V30 21 O 0.0 1.5 0.0 0
M  V30 22 N -1.732 1.5 0.0 0
M  V30 23 C 4.3301 -4.9999 0.0 0
M  V30 24 C 5.1961 -3.4999 0.0 0
M  V30 25 C 5.1961 -4.4999 0.0 0
M  V30 26 S 6.0621 -4.9999 0.0 0
M  V30 27 O 5.5621 -5.866 0.0 0
M  V30 28 O 6.5621 -4.1339 0.0 0
M  V30 29 N 6.9282 -5.4999 0.0 0
M  V30 END ATOM
M  V30 BEGIN BOND
M  V30 1 1 1 2
M  V30 2 2 2 3
M  V30 3 1 2 4
M  V30 4 1 3 5
M  V30 5 1 3 6
M  V30 6 2 4 7
M  V30 7 2 5 8
M  V30 8 1 6 9
M  V30 9 1 8 10
M  V30 10 2 9 11
M  V30 11 1 9 12
M  V30 12 1 10 13
M  V30 13 1 11 14
M  V30 14 1 11 15
M  V30 15 2 12 16
M  V30 16 2 13 17
M  V30 17 1 13 18
M  V30 18 1 14 19
M  V30 19 2 14 20
M  V30 20 2 15 21
M  V30 21 1 15 22
M  V30 22 1 17 23
M  V30 23 2 18 24
M  V30 24 2 23 25
M  V30 25 1 25 26
M  V30 26 2 26 27
M  V30 27 2 26 28
M  V30 28 1 26 29
M  V30 29 1 7 8
M  V30 30 1 16 20
M  V30 31 1 24 25
M  V30 END BOND
M  V30 END CTAB
M  END
>  <Molecule Name>
Compound 391

>  <Molecule Name 2>
Compound 391

>  <Compound ID>
129

>  <Name>
TMX-3013

>  <Uniprot>
P49840

>  <Target>
GSK3A

>  <Smiles>
NC(=O)C1=C(F)C=CC=C1NC1=NC(NC2=CC=C(S(N)(=O)=O)C=C2)=NC=C1Br

>  <Kd (nM)>


>  <Assay (Kd)>


>  <Ki (nM)>


>  <Assay (Ki)>


>  <IC50 (nM)>


>  <Assay (IC50)>


>  <EC50 (nM)>


>  <Assay (EC50)>


>  <Article DOI>
10.1016/j.cell.2020.10.038

>  <Molecular Weight>
481.307

>  <Exact Mass>
480.0015496

>  <XLogP3>
2.74

>  <Heavy Atom Count>
29

>  <Ring Count>
3

>  <Hydrogen Bond Acceptor Count>
7

>  <Hydrogen Bond Donor Count>
4

>  <Rotatable Bond Count>
6

>  <Topological Polar Surface Area>
153.09

>  <Molecular Formula>
C17H14BrFN6O3S

>  <InChI>
InChI=1S/C17H14BrFN6O3S/c18-11-8-22-17(23-9-4-6-10(7-5-9)29(21,27)28)25-16(11)24-13-3-1-2-12(19)14(13)15(20)26/h1-8H,(H2,20,26)(H2,21,27,28)(H2,22,23,24,25)

>  <InChI Key>
VCPYDRGRPKSEOJ-UHFFFAOYSA-N

>  <BindingDB>


>  <PubChem>
155184510

>  <ChEMBL>


$$$$
129
Actelion Java MolfileCreator 2.0

  0  0  0  0  0  0              0 V3000
M  V30 BEGIN CTAB
M  V30 COUNTS 29 31 0 0 0
M  V30 BEGIN ATOM
M  V30 1 Br 2.598 1.0 0.0 0
M  V30 2 C 2.598 0.0 0.0 0
M  V30 3 C 1.732 -0.5 0.0 0
M  V30 4 C 3.4641 -0.4999 0.0 0
M  V30 5 N 1.732 -1.5 0.0 0
M  V30 6 N 0.866 0.0 0.0 0
M  V30 7 N 3.4641 -1.4999 0.0 0
M  V30 8 C 2.598 -1.9999 0.0 0
M  V30 9 C 0.0 -0.5 0.0 0
M  V30 10 N 2.598 -2.9999 0.0 0
M  V30 11 C -0.866 0.0 0.0 0
M  V30 12 C 0.0 -1.4999 0.0 0
M  V30 13 C 3.4641 -3.4999 0.0 0
M  V30 14 C -1.732 -0.4999 0.0 0
M  V30 15 C -0.866 1.0 0.0 0
M  V30 16 C -0.866 -1.9999 0.0 0
M  V30 17 C 3.4641 -4.4999 0.0 0
M  V30 18 C 4.3301 -2.9999 0.0 0
M  V30 19 F -2.598 0.0 0.0 0
M  V30 20 C -1.732 -1.4999 0.0 0
M  V30 21 O 0.0 1.5 0.0 0
M  V30 22 N -1.732 1.5 0.0 0
M  V30 23 C 4.3301 -4.9999 0.0 0
M  V30 24 C 5.1961 -3.4999 0.0 0
M  V30 25 C 5.1961 -4.4999 0.0 0
M  V30 26 S 6.0621 -4.9999 0.0 0
M  V30 27 O 5.5621 -5.866 0.0 0
M  V30 28 O 6.5621 -4.1339 0.0 0
M  V30 29 N 6.9282 -5.4999 0.0 0
M  V30 END ATOM
M  V30 BEGIN BOND
M  V30 1 1 1 2
M  V30 2 2 2 3
M  V30 3 1 2 4
M  V30 4 1 3 5
M  V30 5 1 3 6
M  V30 6 2 4 7
M  V30 7 2 5 8
M  V30 8 1 6 9
M  V30 9 1 8 10
M  V30 10 2 9 11
M  V30 11 1 9 12
M  V30 12 1 10 13
M  V30 13 1 11 14
M  V30 14 1 11 15
M  V30 15 2 12 16
M  V30 16 2 13 17
M  V30 17 1 13 18
M  V30 18 1 14 19
M  V30 19 2 14 20
M  V30 20 2 15 21
M  V30 21 1 15 22
M  V30 22 1 17 23
M  V30 23 2 18 24
M  V30 24 2 23 25
M  V30 25 1 25 26
M  V30 26 2 26 27
M  V30 27 2 26 28
M  V30 28 1 26 29
M  V30 29 1 7 8
M  V30 30 1 16 20
M  V30 31 1 24 25
M  V30 END BOND
M  V30 END CTAB
M  END
>  <Molecule Name>
Compound 392

>  <Molecule Name 2>
Compound 392

>  <Compound ID>
129

>  <Name>
TMX-3013

>  <Uniprot>
P49841

>  <Target>
GSK-3beta

>  <Smiles>
NC(=O)C1=C(F)C=CC=C1NC1=NC(NC2=CC=C(S(N)(=O)=O)C=C2)=NC=C1Br

>  <Kd (nM)>


>  <Assay (Kd)>


>  <Ki (nM)>


>  <Assay (Ki)>


>  <IC50 (nM)>


>  <Assay (IC50)>


>  <EC50 (nM)>


>  <Assay (EC50)>


>  <Article DOI>
10.1016/j.cell.2020.10.038

>  <Molecular Weight>
481.307

>  <Exact Mass>
480.0015496

>  <XLogP3>
2.74

>  <Heavy Atom Count>
29

>  <Ring Count>
3

>  <Hydrogen Bond Acceptor Count>
7

>  <Hydrogen Bond Donor Count>
4

>  <Rotatable Bond Count>
6

>  <Topological Polar Surface Area>
153.09

>  <Molecular Formula>
C17H14BrFN6O3S

>  <InChI>
InChI=1S/C17H14BrFN6O3S/c18-11-8-22-17(23-9-4-6-10(7-5-9)29(21,27)28)25-16(11)24-13-3-1-2-12(19)14(13)15(20)26/h1-8H,(H2,20,26)(H2,21,27,28)(H2,22,23,24,25)

>  <InChI Key>
VCPYDRGRPKSEOJ-UHFFFAOYSA-N

>  <BindingDB>


>  <PubChem>
155184510

>  <ChEMBL>


$$$$
129
Actelion Java MolfileCreator 2.0

  0  0  0  0  0  0              0 V3000
M  V30 BEGIN CTAB
M  V30 COUNTS 29 31 0 0 0
M  V30 BEGIN ATOM
M  V30 1 Br 2.598 1.0 0.0 0
M  V30 2 C 2.598 0.0 0.0 0
M  V30 3 C 1.732 -0.5 0.0 0
M  V30 4 C 3.4641 -0.4999 0.0 0
M  V30 5 N 1.732 -1.5 0.0 0
M  V30 6 N 0.866 0.0 0.0 0
M  V30 7 N 3.4641 -1.4999 0.0 0
M  V30 8 C 2.598 -1.9999 0.0 0
M  V30 9 C 0.0 -0.5 0.0 0
M  V30 10 N 2.598 -2.9999 0.0 0
M  V30 11 C -0.866 0.0 0.0 0
M  V30 12 C 0.0 -1.4999 0.0 0
M  V30 13 C 3.4641 -3.4999 0.0 0
M  V30 14 C -1.732 -0.4999 0.0 0
M  V30 15 C -0.866 1.0 0.0 0
M  V30 16 C -0.866 -1.9999 0.0 0
M  V30 17 C 3.4641 -4.4999 0.0 0
M  V30 18 C 4.3301 -2.9999 0.0 0
M  V30 19 F -2.598 0.0 0.0 0
M  V30 20 C -1.732 -1.4999 0.0 0
M  V30 21 O 0.0 1.5 0.0 0
M  V30 22 N -1.732 1.5 0.0 0
M  V30 23 C 4.3301 -4.9999 0.0 0
M  V30 24 C 5.1961 -3.4999 0.0 0
M  V30 25 C 5.1961 -4.4999 0.0 0
M  V30 26 S 6.0621 -4.9999 0.0 0
M  V30 27 O 5.5621 -5.866 0.0 0
M  V30 28 O 6.5621 -4.1339 0.0 0
M  V30 29 N 6.9282 -5.4999 0.0 0
M  V30 END ATOM
M  V30 BEGIN BOND
M  V30 1 1 1 2
M  V30 2 2 2 3
M  V30 3 1 2 4
M  V30 4 1 3 5
M  V30 5 1 3 6
M  V30 6 2 4 7
M  V30 7 2 5 8
M  V30 8 1 6 9
M  V30 9 1 8 10
M  V30 10 2 9 11
M  V30 11 1 9 12
M  V30 12 1 10 13
M  V30 13 1 11 14
M  V30 14 1 11 15
M  V30 15 2 12 16
M  V30 16 2 13 17
M  V30 17 1 13 18
M  V30 18 1 14 19
M  V30 19 2 14 20
M  V30 20 2 15 21
M  V30 21 1 15 22
M  V30 22 1 17 23
M  V30 23 2 18 24
M  V30 24 2 23 25
M  V30 25 1 25 26
M  V30 26 2 26 27
M  V30 27 2 26 28
M  V30 28 1 26 29
M  V30 29 1 7 8
M  V30 30 1 16 20
M  V30 31 1 24 25
M  V30 END BOND
M  V30 END CTAB
M  END
>  <Molecule Name>
Compound 393

>  <Molecule Name 2>
Compound 393

>  <Compound ID>
129

>  <Name>
TMX-3013

>  <Uniprot>
Q9Y616

>  <Target>
IRAK3

>  <Smiles>
NC(=O)C1=C(F)C=CC=C1NC1=NC(NC2=CC=C(S(N)(=O)=O)C=C2)=NC=C1Br

>  <Kd (nM)>


>  <Assay (Kd)>


>  <Ki (nM)>


>  <Assay (Ki)>


>  <IC50 (nM)>


>  <Assay (IC50)>


>  <EC50 (nM)>


>  <Assay (EC50)>


>  <Article DOI>
10.1016/j.cell.2020.10.038

>  <Molecular Weight>
481.307

>  <Exact Mass>
480.0015496

>  <XLogP3>
2.74

>  <Heavy Atom Count>
29

>  <Ring Count>
3

>  <Hydrogen Bond Acceptor Count>
7

>  <Hydrogen Bond Donor Count>
4

>  <Rotatable Bond Count>
6

>  <Topological Polar Surface Area>
153.09

>  <Molecular Formula>
C17H14BrFN6O3S

>  <InChI>
InChI=1S/C17H14BrFN6O3S/c18-11-8-22-17(23-9-4-6-10(7-5-9)29(21,27)28)25-16(11)24-13-3-1-2-12(19)14(13)15(20)26/h1-8H,(H2,20,26)(H2,21,27,28)(H2,22,23,24,25)

>  <InChI Key>
VCPYDRGRPKSEOJ-UHFFFAOYSA-N

>  <BindingDB>


>  <PubChem>
155184510

>  <ChEMBL>


$$$$
129
Actelion Java MolfileCreator 2.0

  0  0  0  0  0  0              0 V3000
M  V30 BEGIN CTAB
M  V30 COUNTS 29 31 0 0 0
M  V30 BEGIN ATOM
M  V30 1 Br 2.598 1.0 0.0 0
M  V30 2 C 2.598 0.0 0.0 0
M  V30 3 C 1.732 -0.5 0.0 0
M  V30 4 C 3.4641 -0.4999 0.0 0
M  V30 5 N 1.732 -1.5 0.0 0
M  V30 6 N 0.866 0.0 0.0 0
M  V30 7 N 3.4641 -1.4999 0.0 0
M  V30 8 C 2.598 -1.9999 0.0 0
M  V30 9 C 0.0 -0.5 0.0 0
M  V30 10 N 2.598 -2.9999 0.0 0
M  V30 11 C -0.866 0.0 0.0 0
M  V30 12 C 0.0 -1.4999 0.0 0
M  V30 13 C 3.4641 -3.4999 0.0 0
M  V30 14 C -1.732 -0.4999 0.0 0
M  V30 15 C -0.866 1.0 0.0 0
M  V30 16 C -0.866 -1.9999 0.0 0
M  V30 17 C 3.4641 -4.4999 0.0 0
M  V30 18 C 4.3301 -2.9999 0.0 0
M  V30 19 F -2.598 0.0 0.0 0
M  V30 20 C -1.732 -1.4999 0.0 0
M  V30 21 O 0.0 1.5 0.0 0
M  V30 22 N -1.732 1.5 0.0 0
M  V30 23 C 4.3301 -4.9999 0.0 0
M  V30 24 C 5.1961 -3.4999 0.0 0
M  V30 25 C 5.1961 -4.4999 0.0 0
M  V30 26 S 6.0621 -4.9999 0.0 0
M  V30 27 O 5.5621 -5.866 0.0 0
M  V30 28 O 6.5621 -4.1339 0.0 0
M  V30 29 N 6.9282 -5.4999 0.0 0
M  V30 END ATOM
M  V30 BEGIN BOND
M  V30 1 1 1 2
M  V30 2 2 2 3
M  V30 3 1 2 4
M  V30 4 1 3 5
M  V30 5 1 3 6
M  V30 6 2 4 7
M  V30 7 2 5 8
M  V30 8 1 6 9
M  V30 9 1 8 10
M  V30 10 2 9 11
M  V30 11 1 9 12
M  V30 12 1 10 13
M  V30 13 1 11 14
M  V30 14 1 11 15
M  V30 15 2 12 16
M  V30 16 2 13 17
M  V30 17 1 13 18
M  V30 18 1 14 19
M  V30 19 2 14 20
M  V30 20 2 15 21
M  V30 21 1 15 22
M  V30 22 1 17 23
M  V30 23 2 18 24
M  V30 24 2 23 25
M  V30 25 1 25 26
M  V30 26 2 26 27
M  V30 27 2 26 28
M  V30 28 1 26 29
M  V30 29 1 7 8
M  V30 30 1 16 20
M  V30 31 1 24 25
M  V30 END BOND
M  V30 END CTAB
M  END
>  <Molecule Name>
Compound 394

>  <Molecule Name 2>
Compound 394

>  <Compound ID>
129

>  <Name>
TMX-3013

>  <Uniprot>
Q16584

>  <Target>
MAP3K11

>  <Smiles>
NC(=O)C1=C(F)C=CC=C1NC1=NC(NC2=CC=C(S(N)(=O)=O)C=C2)=NC=C1Br

>  <Kd (nM)>


>  <Assay (Kd)>


>  <Ki (nM)>


>  <Assay (Ki)>


>  <IC50 (nM)>


>  <Assay (IC50)>


>  <EC50 (nM)>


>  <Assay (EC50)>


>  <Article DOI>
10.1016/j.cell.2020.10.038

>  <Molecular Weight>
481.307

>  <Exact Mass>
480.0015496

>  <XLogP3>
2.74

>  <Heavy Atom Count>
29

>  <Ring Count>
3

>  <Hydrogen Bond Acceptor Count>
7

>  <Hydrogen Bond Donor Count>
4

>  <Rotatable Bond Count>
6

>  <Topological Polar Surface Area>
153.09

>  <Molecular Formula>
C17H14BrFN6O3S

>  <InChI>
InChI=1S/C17H14BrFN6O3S/c18-11-8-22-17(23-9-4-6-10(7-5-9)29(21,27)28)25-16(11)24-13-3-1-2-12(19)14(13)15(20)26/h1-8H,(H2,20,26)(H2,21,27,28)(H2,22,23,24,25)

>  <InChI Key>
VCPYDRGRPKSEOJ-UHFFFAOYSA-N

>  <BindingDB>


>  <PubChem>
155184510

>  <ChEMBL>


$$$$
129
Actelion Java MolfileCreator 2.0

  0  0  0  0  0  0              0 V3000
M  V30 BEGIN CTAB
M  V30 COUNTS 29 31 0 0 0
M  V30 BEGIN ATOM
M  V30 1 Br 2.598 1.0 0.0 0
M  V30 2 C 2.598 0.0 0.0 0
M  V30 3 C 1.732 -0.5 0.0 0
M  V30 4 C 3.4641 -0.4999 0.0 0
M  V30 5 N 1.732 -1.5 0.0 0
M  V30 6 N 0.866 0.0 0.0 0
M  V30 7 N 3.4641 -1.4999 0.0 0
M  V30 8 C 2.598 -1.9999 0.0 0
M  V30 9 C 0.0 -0.5 0.0 0
M  V30 10 N 2.598 -2.9999 0.0 0
M  V30 11 C -0.866 0.0 0.0 0
M  V30 12 C 0.0 -1.4999 0.0 0
M  V30 13 C 3.4641 -3.4999 0.0 0
M  V30 14 C -1.732 -0.4999 0.0 0
M  V30 15 C -0.866 1.0 0.0 0
M  V30 16 C -0.866 -1.9999 0.0 0
M  V30 17 C 3.4641 -4.4999 0.0 0
M  V30 18 C 4.3301 -2.9999 0.0 0
M  V30 19 F -2.598 0.0 0.0 0
M  V30 20 C -1.732 -1.4999 0.0 0
M  V30 21 O 0.0 1.5 0.0 0
M  V30 22 N -1.732 1.5 0.0 0
M  V30 23 C 4.3301 -4.9999 0.0 0
M  V30 24 C 5.1961 -3.4999 0.0 0
M  V30 25 C 5.1961 -4.4999 0.0 0
M  V30 26 S 6.0621 -4.9999 0.0 0
M  V30 27 O 5.5621 -5.866 0.0 0
M  V30 28 O 6.5621 -4.1339 0.0 0
M  V30 29 N 6.9282 -5.4999 0.0 0
M  V30 END ATOM
M  V30 BEGIN BOND
M  V30 1 1 1 2
M  V30 2 2 2 3
M  V30 3 1 2 4
M  V30 4 1 3 5
M  V30 5 1 3 6
M  V30 6 2 4 7
M  V30 7 2 5 8
M  V30 8 1 6 9
M  V30 9 1 8 10
M  V30 10 2 9 11
M  V30 11 1 9 12
M  V30 12 1 10 13
M  V30 13 1 11 14
M  V30 14 1 11 15
M  V30 15 2 12 16
M  V30 16 2 13 17
M  V30 17 1 13 18
M  V30 18 1 14 19
M  V30 19 2 14 20
M  V30 20 2 15 21
M  V30 21 1 15 22
M  V30 22 1 17 23
M  V30 23 2 18 24
M  V30 24 2 23 25
M  V30 25 1 25 26
M  V30 26 2 26 27
M  V30 27 2 26 28
M  V30 28 1 26 29
M  V30 29 1 7 8
M  V30 30 1 16 20
M  V30 31 1 24 25
M  V30 END BOND
M  V30 END CTAB
M  END
>  <Molecule Name>
Compound 395

>  <Molecule Name 2>
Compound 395

>  <Compound ID>
129

>  <Name>
TMX-3013

>  <Uniprot>
P45983

>  <Target>
MAPK8

>  <Smiles>
NC(=O)C1=C(F)C=CC=C1NC1=NC(NC2=CC=C(S(N)(=O)=O)C=C2)=NC=C1Br

>  <Kd (nM)>


>  <Assay (Kd)>


>  <Ki (nM)>


>  <Assay (Ki)>


>  <IC50 (nM)>


>  <Assay (IC50)>


>  <EC50 (nM)>


>  <Assay (EC50)>


>  <Article DOI>
10.1016/j.cell.2020.10.038

>  <Molecular Weight>
481.307

>  <Exact Mass>
480.0015496

>  <XLogP3>
2.74

>  <Heavy Atom Count>
29

>  <Ring Count>
3

>  <Hydrogen Bond Acceptor Count>
7

>  <Hydrogen Bond Donor Count>
4

>  <Rotatable Bond Count>
6

>  <Topological Polar Surface Area>
153.09

>  <Molecular Formula>
C17H14BrFN6O3S

>  <InChI>
InChI=1S/C17H14BrFN6O3S/c18-11-8-22-17(23-9-4-6-10(7-5-9)29(21,27)28)25-16(11)24-13-3-1-2-12(19)14(13)15(20)26/h1-8H,(H2,20,26)(H2,21,27,28)(H2,22,23,24,25)

>  <InChI Key>
VCPYDRGRPKSEOJ-UHFFFAOYSA-N

>  <BindingDB>


>  <PubChem>
155184510

>  <ChEMBL>


$$$$
129
Actelion Java MolfileCreator 2.0

  0  0  0  0  0  0              0 V3000
M  V30 BEGIN CTAB
M  V30 COUNTS 29 31 0 0 0
M  V30 BEGIN ATOM
M  V30 1 Br 2.598 1.0 0.0 0
M  V30 2 C 2.598 0.0 0.0 0
M  V30 3 C 1.732 -0.5 0.0 0
M  V30 4 C 3.4641 -0.4999 0.0 0
M  V30 5 N 1.732 -1.5 0.0 0
M  V30 6 N 0.866 0.0 0.0 0
M  V30 7 N 3.4641 -1.4999 0.0 0
M  V30 8 C 2.598 -1.9999 0.0 0
M  V30 9 C 0.0 -0.5 0.0 0
M  V30 10 N 2.598 -2.9999 0.0 0
M  V30 11 C -0.866 0.0 0.0 0
M  V30 12 C 0.0 -1.4999 0.0 0
M  V30 13 C 3.4641 -3.4999 0.0 0
M  V30 14 C -1.732 -0.4999 0.0 0
M  V30 15 C -0.866 1.0 0.0 0
M  V30 16 C -0.866 -1.9999 0.0 0
M  V30 17 C 3.4641 -4.4999 0.0 0
M  V30 18 C 4.3301 -2.9999 0.0 0
M  V30 19 F -2.598 0.0 0.0 0
M  V30 20 C -1.732 -1.4999 0.0 0
M  V30 21 O 0.0 1.5 0.0 0
M  V30 22 N -1.732 1.5 0.0 0
M  V30 23 C 4.3301 -4.9999 0.0 0
M  V30 24 C 5.1961 -3.4999 0.0 0
M  V30 25 C 5.1961 -4.4999 0.0 0
M  V30 26 S 6.0621 -4.9999 0.0 0
M  V30 27 O 5.5621 -5.866 0.0 0
M  V30 28 O 6.5621 -4.1339 0.0 0
M  V30 29 N 6.9282 -5.4999 0.0 0
M  V30 END ATOM
M  V30 BEGIN BOND
M  V30 1 1 1 2
M  V30 2 2 2 3
M  V30 3 1 2 4
M  V30 4 1 3 5
M  V30 5 1 3 6
M  V30 6 2 4 7
M  V30 7 2 5 8
M  V30 8 1 6 9
M  V30 9 1 8 10
M  V30 10 2 9 11
M  V30 11 1 9 12
M  V30 12 1 10 13
M  V30 13 1 11 14
M  V30 14 1 11 15
M  V30 15 2 12 16
M  V30 16 2 13 17
M  V30 17 1 13 18
M  V30 18 1 14 19
M  V30 19 2 14 20
M  V30 20 2 15 21
M  V30 21 1 15 22
M  V30 22 1 17 23
M  V30 23 2 18 24
M  V30 24 2 23 25
M  V30 25 1 25 26
M  V30 26 2 26 27
M  V30 27 2 26 28
M  V30 28 1 26 29
M  V30 29 1 7 8
M  V30 30 1 16 20
M  V30 31 1 24 25
M  V30 END BOND
M  V30 END CTAB
M  END
>  <Molecule Name>
Compound 396

>  <Molecule Name 2>
Compound 396

>  <Compound ID>
129

>  <Name>
TMX-3013

>  <Uniprot>
P45984

>  <Target>
MAPK9

>  <Smiles>
NC(=O)C1=C(F)C=CC=C1NC1=NC(NC2=CC=C(S(N)(=O)=O)C=C2)=NC=C1Br

>  <Kd (nM)>


>  <Assay (Kd)>


>  <Ki (nM)>


>  <Assay (Ki)>


>  <IC50 (nM)>


>  <Assay (IC50)>


>  <EC50 (nM)>


>  <Assay (EC50)>


>  <Article DOI>
10.1016/j.cell.2020.10.038

>  <Molecular Weight>
481.307

>  <Exact Mass>
480.0015496

>  <XLogP3>
2.74

>  <Heavy Atom Count>
29

>  <Ring Count>
3

>  <Hydrogen Bond Acceptor Count>
7

>  <Hydrogen Bond Donor Count>
4

>  <Rotatable Bond Count>
6

>  <Topological Polar Surface Area>
153.09

>  <Molecular Formula>
C17H14BrFN6O3S

>  <InChI>
InChI=1S/C17H14BrFN6O3S/c18-11-8-22-17(23-9-4-6-10(7-5-9)29(21,27)28)25-16(11)24-13-3-1-2-12(19)14(13)15(20)26/h1-8H,(H2,20,26)(H2,21,27,28)(H2,22,23,24,25)

>  <InChI Key>
VCPYDRGRPKSEOJ-UHFFFAOYSA-N

>  <BindingDB>


>  <PubChem>
155184510

>  <ChEMBL>


$$$$
129
Actelion Java MolfileCreator 2.0

  0  0  0  0  0  0              0 V3000
M  V30 BEGIN CTAB
M  V30 COUNTS 29 31 0 0 0
M  V30 BEGIN ATOM
M  V30 1 Br 2.598 1.0 0.0 0
M  V30 2 C 2.598 0.0 0.0 0
M  V30 3 C 1.732 -0.5 0.0 0
M  V30 4 C 3.4641 -0.4999 0.0 0
M  V30 5 N 1.732 -1.5 0.0 0
M  V30 6 N 0.866 0.0 0.0 0
M  V30 7 N 3.4641 -1.4999 0.0 0
M  V30 8 C 2.598 -1.9999 0.0 0
M  V30 9 C 0.0 -0.5 0.0 0
M  V30 10 N 2.598 -2.9999 0.0 0
M  V30 11 C -0.866 0.0 0.0 0
M  V30 12 C 0.0 -1.4999 0.0 0
M  V30 13 C 3.4641 -3.4999 0.0 0
M  V30 14 C -1.732 -0.4999 0.0 0
M  V30 15 C -0.866 1.0 0.0 0
M  V30 16 C -0.866 -1.9999 0.0 0
M  V30 17 C 3.4641 -4.4999 0.0 0
M  V30 18 C 4.3301 -2.9999 0.0 0
M  V30 19 F -2.598 0.0 0.0 0
M  V30 20 C -1.732 -1.4999 0.0 0
M  V30 21 O 0.0 1.5 0.0 0
M  V30 22 N -1.732 1.5 0.0 0
M  V30 23 C 4.3301 -4.9999 0.0 0
M  V30 24 C 5.1961 -3.4999 0.0 0
M  V30 25 C 5.1961 -4.4999 0.0 0
M  V30 26 S 6.0621 -4.9999 0.0 0
M  V30 27 O 5.5621 -5.866 0.0 0
M  V30 28 O 6.5621 -4.1339 0.0 0
M  V30 29 N 6.9282 -5.4999 0.0 0
M  V30 END ATOM
M  V30 BEGIN BOND
M  V30 1 1 1 2
M  V30 2 2 2 3
M  V30 3 1 2 4
M  V30 4 1 3 5
M  V30 5 1 3 6
M  V30 6 2 4 7
M  V30 7 2 5 8
M  V30 8 1 6 9
M  V30 9 1 8 10
M  V30 10 2 9 11
M  V30 11 1 9 12
M  V30 12 1 10 13
M  V30 13 1 11 14
M  V30 14 1 11 15
M  V30 15 2 12 16
M  V30 16 2 13 17
M  V30 17 1 13 18
M  V30 18 1 14 19
M  V30 19 2 14 20
M  V30 20 2 15 21
M  V30 21 1 15 22
M  V30 22 1 17 23
M  V30 23 2 18 24
M  V30 24 2 23 25
M  V30 25 1 25 26
M  V30 26 2 26 27
M  V30 27 2 26 28
M  V30 28 1 26 29
M  V30 29 1 7 8
M  V30 30 1 16 20
M  V30 31 1 24 25
M  V30 END BOND
M  V30 END CTAB
M  END
>  <Molecule Name>
Compound 397

>  <Molecule Name 2>
Compound 397

>  <Compound ID>
129

>  <Name>
TMX-3013

>  <Uniprot>
O60285

>  <Target>
NUAK1

>  <Smiles>
NC(=O)C1=C(F)C=CC=C1NC1=NC(NC2=CC=C(S(N)(=O)=O)C=C2)=NC=C1Br

>  <Kd (nM)>


>  <Assay (Kd)>


>  <Ki (nM)>


>  <Assay (Ki)>


>  <IC50 (nM)>


>  <Assay (IC50)>


>  <EC50 (nM)>


>  <Assay (EC50)>


>  <Article DOI>
10.1016/j.cell.2020.10.038

>  <Molecular Weight>
481.307

>  <Exact Mass>
480.0015496

>  <XLogP3>
2.74

>  <Heavy Atom Count>
29

>  <Ring Count>
3

>  <Hydrogen Bond Acceptor Count>
7

>  <Hydrogen Bond Donor Count>
4

>  <Rotatable Bond Count>
6

>  <Topological Polar Surface Area>
153.09

>  <Molecular Formula>
C17H14BrFN6O3S

>  <InChI>
InChI=1S/C17H14BrFN6O3S/c18-11-8-22-17(23-9-4-6-10(7-5-9)29(21,27)28)25-16(11)24-13-3-1-2-12(19)14(13)15(20)26/h1-8H,(H2,20,26)(H2,21,27,28)(H2,22,23,24,25)

>  <InChI Key>
VCPYDRGRPKSEOJ-UHFFFAOYSA-N

>  <BindingDB>


>  <PubChem>
155184510

>  <ChEMBL>


$$$$
129
Actelion Java MolfileCreator 2.0

  0  0  0  0  0  0              0 V3000
M  V30 BEGIN CTAB
M  V30 COUNTS 29 31 0 0 0
M  V30 BEGIN ATOM
M  V30 1 Br 2.598 1.0 0.0 0
M  V30 2 C 2.598 0.0 0.0 0
M  V30 3 C 1.732 -0.5 0.0 0
M  V30 4 C 3.4641 -0.4999 0.0 0
M  V30 5 N 1.732 -1.5 0.0 0
M  V30 6 N 0.866 0.0 0.0 0
M  V30 7 N 3.4641 -1.4999 0.0 0
M  V30 8 C 2.598 -1.9999 0.0 0
M  V30 9 C 0.0 -0.5 0.0 0
M  V30 10 N 2.598 -2.9999 0.0 0
M  V30 11 C -0.866 0.0 0.0 0
M  V30 12 C 0.0 -1.4999 0.0 0
M  V30 13 C 3.4641 -3.4999 0.0 0
M  V30 14 C -1.732 -0.4999 0.0 0
M  V30 15 C -0.866 1.0 0.0 0
M  V30 16 C -0.866 -1.9999 0.0 0
M  V30 17 C 3.4641 -4.4999 0.0 0
M  V30 18 C 4.3301 -2.9999 0.0 0
M  V30 19 F -2.598 0.0 0.0 0
M  V30 20 C -1.732 -1.4999 0.0 0
M  V30 21 O 0.0 1.5 0.0 0
M  V30 22 N -1.732 1.5 0.0 0
M  V30 23 C 4.3301 -4.9999 0.0 0
M  V30 24 C 5.1961 -3.4999 0.0 0
M  V30 25 C 5.1961 -4.4999 0.0 0
M  V30 26 S 6.0621 -4.9999 0.0 0
M  V30 27 O 5.5621 -5.866 0.0 0
M  V30 28 O 6.5621 -4.1339 0.0 0
M  V30 29 N 6.9282 -5.4999 0.0 0
M  V30 END ATOM
M  V30 BEGIN BOND
M  V30 1 1 1 2
M  V30 2 2 2 3
M  V30 3 1 2 4
M  V30 4 1 3 5
M  V30 5 1 3 6
M  V30 6 2 4 7
M  V30 7 2 5 8
M  V30 8 1 6 9
M  V30 9 1 8 10
M  V30 10 2 9 11
M  V30 11 1 9 12
M  V30 12 1 10 13
M  V30 13 1 11 14
M  V30 14 1 11 15
M  V30 15 2 12 16
M  V30 16 2 13 17
M  V30 17 1 13 18
M  V30 18 1 14 19
M  V30 19 2 14 20
M  V30 20 2 15 21
M  V30 21 1 15 22
M  V30 22 1 17 23
M  V30 23 2 18 24
M  V30 24 2 23 25
M  V30 25 1 25 26
M  V30 26 2 26 27
M  V30 27 2 26 28
M  V30 28 1 26 29
M  V30 29 1 7 8
M  V30 30 1 16 20
M  V30 31 1 24 25
M  V30 END BOND
M  V30 END CTAB
M  END
>  <Molecule Name>
Compound 398

>  <Molecule Name 2>
Compound 398

>  <Compound ID>
129

>  <Name>
TMX-3013

>  <Uniprot>
Q13131

>  <Target>
PRKAA1

>  <Smiles>
NC(=O)C1=C(F)C=CC=C1NC1=NC(NC2=CC=C(S(N)(=O)=O)C=C2)=NC=C1Br

>  <Kd (nM)>


>  <Assay (Kd)>


>  <Ki (nM)>


>  <Assay (Ki)>


>  <IC50 (nM)>


>  <Assay (IC50)>


>  <EC50 (nM)>


>  <Assay (EC50)>


>  <Article DOI>
10.1016/j.cell.2020.10.038

>  <Molecular Weight>
481.307

>  <Exact Mass>
480.0015496

>  <XLogP3>
2.74

>  <Heavy Atom Count>
29

>  <Ring Count>
3

>  <Hydrogen Bond Acceptor Count>
7

>  <Hydrogen Bond Donor Count>
4

>  <Rotatable Bond Count>
6

>  <Topological Polar Surface Area>
153.09

>  <Molecular Formula>
C17H14BrFN6O3S

>  <InChI>
InChI=1S/C17H14BrFN6O3S/c18-11-8-22-17(23-9-4-6-10(7-5-9)29(21,27)28)25-16(11)24-13-3-1-2-12(19)14(13)15(20)26/h1-8H,(H2,20,26)(H2,21,27,28)(H2,22,23,24,25)

>  <InChI Key>
VCPYDRGRPKSEOJ-UHFFFAOYSA-N

>  <BindingDB>


>  <PubChem>
155184510

>  <ChEMBL>


$$$$
129
Actelion Java MolfileCreator 2.0

  0  0  0  0  0  0              0 V3000
M  V30 BEGIN CTAB
M  V30 COUNTS 29 31 0 0 0
M  V30 BEGIN ATOM
M  V30 1 Br 2.598 1.0 0.0 0
M  V30 2 C 2.598 0.0 0.0 0
M  V30 3 C 1.732 -0.5 0.0 0
M  V30 4 C 3.4641 -0.4999 0.0 0
M  V30 5 N 1.732 -1.5 0.0 0
M  V30 6 N 0.866 0.0 0.0 0
M  V30 7 N 3.4641 -1.4999 0.0 0
M  V30 8 C 2.598 -1.9999 0.0 0
M  V30 9 C 0.0 -0.5 0.0 0
M  V30 10 N 2.598 -2.9999 0.0 0
M  V30 11 C -0.866 0.0 0.0 0
M  V30 12 C 0.0 -1.4999 0.0 0
M  V30 13 C 3.4641 -3.4999 0.0 0
M  V30 14 C -1.732 -0.4999 0.0 0
M  V30 15 C -0.866 1.0 0.0 0
M  V30 16 C -0.866 -1.9999 0.0 0
M  V30 17 C 3.4641 -4.4999 0.0 0
M  V30 18 C 4.3301 -2.9999 0.0 0
M  V30 19 F -2.598 0.0 0.0 0
M  V30 20 C -1.732 -1.4999 0.0 0
M  V30 21 O 0.0 1.5 0.0 0
M  V30 22 N -1.732 1.5 0.0 0
M  V30 23 C 4.3301 -4.9999 0.0 0
M  V30 24 C 5.1961 -3.4999 0.0 0
M  V30 25 C 5.1961 -4.4999 0.0 0
M  V30 26 S 6.0621 -4.9999 0.0 0
M  V30 27 O 5.5621 -5.866 0.0 0
M  V30 28 O 6.5621 -4.1339 0.0 0
M  V30 29 N 6.9282 -5.4999 0.0 0
M  V30 END ATOM
M  V30 BEGIN BOND
M  V30 1 1 1 2
M  V30 2 2 2 3
M  V30 3 1 2 4
M  V30 4 1 3 5
M  V30 5 1 3 6
M  V30 6 2 4 7
M  V30 7 2 5 8
M  V30 8 1 6 9
M  V30 9 1 8 10
M  V30 10 2 9 11
M  V30 11 1 9 12
M  V30 12 1 10 13
M  V30 13 1 11 14
M  V30 14 1 11 15
M  V30 15 2 12 16
M  V30 16 2 13 17
M  V30 17 1 13 18
M  V30 18 1 14 19
M  V30 19 2 14 20
M  V30 20 2 15 21
M  V30 21 1 15 22
M  V30 22 1 17 23
M  V30 23 2 18 24
M  V30 24 2 23 25
M  V30 25 1 25 26
M  V30 26 2 26 27
M  V30 27 2 26 28
M  V30 28 1 26 29
M  V30 29 1 7 8
M  V30 30 1 16 20
M  V30 31 1 24 25
M  V30 END BOND
M  V30 END CTAB
M  END
>  <Molecule Name>
Compound 399

>  <Molecule Name 2>
Compound 399

>  <Compound ID>
129

>  <Name>
TMX-3013

>  <Uniprot>
P54646

>  <Target>
PRKAA2

>  <Smiles>
NC(=O)C1=C(F)C=CC=C1NC1=NC(NC2=CC=C(S(N)(=O)=O)C=C2)=NC=C1Br

>  <Kd (nM)>


>  <Assay (Kd)>


>  <Ki (nM)>


>  <Assay (Ki)>


>  <IC50 (nM)>


>  <Assay (IC50)>


>  <EC50 (nM)>


>  <Assay (EC50)>


>  <Article DOI>
10.1016/j.cell.2020.10.038

>  <Molecular Weight>
481.307

>  <Exact Mass>
480.0015496

>  <XLogP3>
2.74

>  <Heavy Atom Count>
29

>  <Ring Count>
3

>  <Hydrogen Bond Acceptor Count>
7

>  <Hydrogen Bond Donor Count>
4

>  <Rotatable Bond Count>
6

>  <Topological Polar Surface Area>
153.09

>  <Molecular Formula>
C17H14BrFN6O3S

>  <InChI>
InChI=1S/C17H14BrFN6O3S/c18-11-8-22-17(23-9-4-6-10(7-5-9)29(21,27)28)25-16(11)24-13-3-1-2-12(19)14(13)15(20)26/h1-8H,(H2,20,26)(H2,21,27,28)(H2,22,23,24,25)

>  <InChI Key>
VCPYDRGRPKSEOJ-UHFFFAOYSA-N

>  <BindingDB>


>  <PubChem>
155184510

>  <ChEMBL>


$$$$
129
Actelion Java MolfileCreator 2.0

  0  0  0  0  0  0              0 V3000
M  V30 BEGIN CTAB
M  V30 COUNTS 29 31 0 0 0
M  V30 BEGIN ATOM
M  V30 1 Br 2.598 1.0 0.0 0
M  V30 2 C 2.598 0.0 0.0 0
M  V30 3 C 1.732 -0.5 0.0 0
M  V30 4 C 3.4641 -0.4999 0.0 0
M  V30 5 N 1.732 -1.5 0.0 0
M  V30 6 N 0.866 0.0 0.0 0
M  V30 7 N 3.4641 -1.4999 0.0 0
M  V30 8 C 2.598 -1.9999 0.0 0
M  V30 9 C 0.0 -0.5 0.0 0
M  V30 10 N 2.598 -2.9999 0.0 0
M  V30 11 C -0.866 0.0 0.0 0
M  V30 12 C 0.0 -1.4999 0.0 0
M  V30 13 C 3.4641 -3.4999 0.0 0
M  V30 14 C -1.732 -0.4999 0.0 0
M  V30 15 C -0.866 1.0 0.0 0
M  V30 16 C -0.866 -1.9999 0.0 0
M  V30 17 C 3.4641 -4.4999 0.0 0
M  V30 18 C 4.3301 -2.9999 0.0 0
M  V30 19 F -2.598 0.0 0.0 0
M  V30 20 C -1.732 -1.4999 0.0 0
M  V30 21 O 0.0 1.5 0.0 0
M  V30 22 N -1.732 1.5 0.0 0
M  V30 23 C 4.3301 -4.9999 0.0 0
M  V30 24 C 5.1961 -3.4999 0.0 0
M  V30 25 C 5.1961 -4.4999 0.0 0
M  V30 26 S 6.0621 -4.9999 0.0 0
M  V30 27 O 5.5621 -5.866 0.0 0
M  V30 28 O 6.5621 -4.1339 0.0 0
M  V30 29 N 6.9282 -5.4999 0.0 0
M  V30 END ATOM
M  V30 BEGIN BOND
M  V30 1 1 1 2
M  V30 2 2 2 3
M  V30 3 1 2 4
M  V30 4 1 3 5
M  V30 5 1 3 6
M  V30 6 2 4 7
M  V30 7 2 5 8
M  V30 8 1 6 9
M  V30 9 1 8 10
M  V30 10 2 9 11
M  V30 11 1 9 12
M  V30 12 1 10 13
M  V30 13 1 11 14
M  V30 14 1 11 15
M  V30 15 2 12 16
M  V30 16 2 13 17
M  V30 17 1 13 18
M  V30 18 1 14 19
M  V30 19 2 14 20
M  V30 20 2 15 21
M  V30 21 1 15 22
M  V30 22 1 17 23
M  V30 23 2 18 24
M  V30 24 2 23 25
M  V30 25 1 25 26
M  V30 26 2 26 27
M  V30 27 2 26 28
M  V30 28 1 26 29
M  V30 29 1 7 8
M  V30 30 1 16 20
M  V30 31 1 24 25
M  V30 END BOND
M  V30 END CTAB
M  END
>  <Molecule Name>
Compound 400

>  <Molecule Name 2>
Compound 400

>  <Compound ID>
129

>  <Name>
TMX-3013

>  <Uniprot>
Q14289

>  <Target>
PTK2B

>  <Smiles>
NC(=O)C1=C(F)C=CC=C1NC1=NC(NC2=CC=C(S(N)(=O)=O)C=C2)=NC=C1Br

>  <Kd (nM)>


>  <Assay (Kd)>


>  <Ki (nM)>


>  <Assay (Ki)>


>  <IC50 (nM)>


>  <Assay (IC50)>


>  <EC50 (nM)>


>  <Assay (EC50)>


>  <Article DOI>
10.1016/j.cell.2020.10.038

>  <Molecular Weight>
481.307

>  <Exact Mass>
480.0015496

>  <XLogP3>
2.74

>  <Heavy Atom Count>
29

>  <Ring Count>
3

>  <Hydrogen Bond Acceptor Count>
7

>  <Hydrogen Bond Donor Count>
4

>  <Rotatable Bond Count>
6

>  <Topological Polar Surface Area>
153.09

>  <Molecular Formula>
C17H14BrFN6O3S

>  <InChI>
InChI=1S/C17H14BrFN6O3S/c18-11-8-22-17(23-9-4-6-10(7-5-9)29(21,27)28)25-16(11)24-13-3-1-2-12(19)14(13)15(20)26/h1-8H,(H2,20,26)(H2,21,27,28)(H2,22,23,24,25)

>  <InChI Key>
VCPYDRGRPKSEOJ-UHFFFAOYSA-N

>  <BindingDB>


>  <PubChem>
155184510

>  <ChEMBL>


$$$$
129
Actelion Java MolfileCreator 2.0

  0  0  0  0  0  0              0 V3000
M  V30 BEGIN CTAB
M  V30 COUNTS 29 31 0 0 0
M  V30 BEGIN ATOM
M  V30 1 Br 2.598 1.0 0.0 0
M  V30 2 C 2.598 0.0 0.0 0
M  V30 3 C 1.732 -0.5 0.0 0
M  V30 4 C 3.4641 -0.4999 0.0 0
M  V30 5 N 1.732 -1.5 0.0 0
M  V30 6 N 0.866 0.0 0.0 0
M  V30 7 N 3.4641 -1.4999 0.0 0
M  V30 8 C 2.598 -1.9999 0.0 0
M  V30 9 C 0.0 -0.5 0.0 0
M  V30 10 N 2.598 -2.9999 0.0 0
M  V30 11 C -0.866 0.0 0.0 0
M  V30 12 C 0.0 -1.4999 0.0 0
M  V30 13 C 3.4641 -3.4999 0.0 0
M  V30 14 C -1.732 -0.4999 0.0 0
M  V30 15 C -0.866 1.0 0.0 0
M  V30 16 C -0.866 -1.9999 0.0 0
M  V30 17 C 3.4641 -4.4999 0.0 0
M  V30 18 C 4.3301 -2.9999 0.0 0
M  V30 19 F -2.598 0.0 0.0 0
M  V30 20 C -1.732 -1.4999 0.0 0
M  V30 21 O 0.0 1.5 0.0 0
M  V30 22 N -1.732 1.5 0.0 0
M  V30 23 C 4.3301 -4.9999 0.0 0
M  V30 24 C 5.1961 -3.4999 0.0 0
M  V30 25 C 5.1961 -4.4999 0.0 0
M  V30 26 S 6.0621 -4.9999 0.0 0
M  V30 27 O 5.5621 -5.866 0.0 0
M  V30 28 O 6.5621 -4.1339 0.0 0
M  V30 29 N 6.9282 -5.4999 0.0 0
M  V30 END ATOM
M  V30 BEGIN BOND
M  V30 1 1 1 2
M  V30 2 2 2 3
M  V30 3 1 2 4
M  V30 4 1 3 5
M  V30 5 1 3 6
M  V30 6 2 4 7
M  V30 7 2 5 8
M  V30 8 1 6 9
M  V30 9 1 8 10
M  V30 10 2 9 11
M  V30 11 1 9 12
M  V30 12 1 10 13
M  V30 13 1 11 14
M  V30 14 1 11 15
M  V30 15 2 12 16
M  V30 16 2 13 17
M  V30 17 1 13 18
M  V30 18 1 14 19
M  V30 19 2 14 20
M  V30 20 2 15 21
M  V30 21 1 15 22
M  V30 22 1 17 23
M  V30 23 2 18 24
M  V30 24 2 23 25
M  V30 25 1 25 26
M  V30 26 2 26 27
M  V30 27 2 26 28
M  V30 28 1 26 29
M  V30 29 1 7 8
M  V30 30 1 16 20
M  V30 31 1 24 25
M  V30 END BOND
M  V30 END CTAB
M  END
>  <Molecule Name>
Compound 401

>  <Molecule Name 2>
Compound 401

>  <Compound ID>
129

>  <Name>
TMX-3013

>  <Uniprot>
Q15418

>  <Target>
RPS6KA1

>  <Smiles>
NC(=O)C1=C(F)C=CC=C1NC1=NC(NC2=CC=C(S(N)(=O)=O)C=C2)=NC=C1Br

>  <Kd (nM)>


>  <Assay (Kd)>


>  <Ki (nM)>


>  <Assay (Ki)>


>  <IC50 (nM)>


>  <Assay (IC50)>


>  <EC50 (nM)>


>  <Assay (EC50)>


>  <Article DOI>
10.1016/j.cell.2020.10.038

>  <Molecular Weight>
481.307

>  <Exact Mass>
480.0015496

>  <XLogP3>
2.74

>  <Heavy Atom Count>
29

>  <Ring Count>
3

>  <Hydrogen Bond Acceptor Count>
7

>  <Hydrogen Bond Donor Count>
4

>  <Rotatable Bond Count>
6

>  <Topological Polar Surface Area>
153.09

>  <Molecular Formula>
C17H14BrFN6O3S

>  <InChI>
InChI=1S/C17H14BrFN6O3S/c18-11-8-22-17(23-9-4-6-10(7-5-9)29(21,27)28)25-16(11)24-13-3-1-2-12(19)14(13)15(20)26/h1-8H,(H2,20,26)(H2,21,27,28)(H2,22,23,24,25)

>  <InChI Key>
VCPYDRGRPKSEOJ-UHFFFAOYSA-N

>  <BindingDB>


>  <PubChem>
155184510

>  <ChEMBL>


$$$$
129
Actelion Java MolfileCreator 2.0

  0  0  0  0  0  0              0 V3000
M  V30 BEGIN CTAB
M  V30 COUNTS 29 31 0 0 0
M  V30 BEGIN ATOM
M  V30 1 Br 2.598 1.0 0.0 0
M  V30 2 C 2.598 0.0 0.0 0
M  V30 3 C 1.732 -0.5 0.0 0
M  V30 4 C 3.4641 -0.4999 0.0 0
M  V30 5 N 1.732 -1.5 0.0 0
M  V30 6 N 0.866 0.0 0.0 0
M  V30 7 N 3.4641 -1.4999 0.0 0
M  V30 8 C 2.598 -1.9999 0.0 0
M  V30 9 C 0.0 -0.5 0.0 0
M  V30 10 N 2.598 -2.9999 0.0 0
M  V30 11 C -0.866 0.0 0.0 0
M  V30 12 C 0.0 -1.4999 0.0 0
M  V30 13 C 3.4641 -3.4999 0.0 0
M  V30 14 C -1.732 -0.4999 0.0 0
M  V30 15 C -0.866 1.0 0.0 0
M  V30 16 C -0.866 -1.9999 0.0 0
M  V30 17 C 3.4641 -4.4999 0.0 0
M  V30 18 C 4.3301 -2.9999 0.0 0
M  V30 19 F -2.598 0.0 0.0 0
M  V30 20 C -1.732 -1.4999 0.0 0
M  V30 21 O 0.0 1.5 0.0 0
M  V30 22 N -1.732 1.5 0.0 0
M  V30 23 C 4.3301 -4.9999 0.0 0
M  V30 24 C 5.1961 -3.4999 0.0 0
M  V30 25 C 5.1961 -4.4999 0.0 0
M  V30 26 S 6.0621 -4.9999 0.0 0
M  V30 27 O 5.5621 -5.866 0.0 0
M  V30 28 O 6.5621 -4.1339 0.0 0
M  V30 29 N 6.9282 -5.4999 0.0 0
M  V30 END ATOM
M  V30 BEGIN BOND
M  V30 1 1 1 2
M  V30 2 2 2 3
M  V30 3 1 2 4
M  V30 4 1 3 5
M  V30 5 1 3 6
M  V30 6 2 4 7
M  V30 7 2 5 8
M  V30 8 1 6 9
M  V30 9 1 8 10
M  V30 10 2 9 11
M  V30 11 1 9 12
M  V30 12 1 10 13
M  V30 13 1 11 14
M  V30 14 1 11 15
M  V30 15 2 12 16
M  V30 16 2 13 17
M  V30 17 1 13 18
M  V30 18 1 14 19
M  V30 19 2 14 20
M  V30 20 2 15 21
M  V30 21 1 15 22
M  V30 22 1 17 23
M  V30 23 2 18 24
M  V30 24 2 23 25
M  V30 25 1 25 26
M  V30 26 2 26 27
M  V30 27 2 26 28
M  V30 28 1 26 29
M  V30 29 1 7 8
M  V30 30 1 16 20
M  V30 31 1 24 25
M  V30 END BOND
M  V30 END CTAB
M  END
>  <Molecule Name>
Compound 402

>  <Molecule Name 2>
Compound 402

>  <Compound ID>
129

>  <Name>
TMX-3013

>  <Uniprot>
P51812

>  <Target>
RPS6KA3

>  <Smiles>
NC(=O)C1=C(F)C=CC=C1NC1=NC(NC2=CC=C(S(N)(=O)=O)C=C2)=NC=C1Br

>  <Kd (nM)>


>  <Assay (Kd)>


>  <Ki (nM)>


>  <Assay (Ki)>


>  <IC50 (nM)>


>  <Assay (IC50)>


>  <EC50 (nM)>


>  <Assay (EC50)>


>  <Article DOI>
10.1016/j.cell.2020.10.038

>  <Molecular Weight>
481.307

>  <Exact Mass>
480.0015496

>  <XLogP3>
2.74

>  <Heavy Atom Count>
29

>  <Ring Count>
3

>  <Hydrogen Bond Acceptor Count>
7

>  <Hydrogen Bond Donor Count>
4

>  <Rotatable Bond Count>
6

>  <Topological Polar Surface Area>
153.09

>  <Molecular Formula>
C17H14BrFN6O3S

>  <InChI>
InChI=1S/C17H14BrFN6O3S/c18-11-8-22-17(23-9-4-6-10(7-5-9)29(21,27)28)25-16(11)24-13-3-1-2-12(19)14(13)15(20)26/h1-8H,(H2,20,26)(H2,21,27,28)(H2,22,23,24,25)

>  <InChI Key>
VCPYDRGRPKSEOJ-UHFFFAOYSA-N

>  <BindingDB>


>  <PubChem>
155184510

>  <ChEMBL>


$$$$
129
Actelion Java MolfileCreator 2.0

  0  0  0  0  0  0              0 V3000
M  V30 BEGIN CTAB
M  V30 COUNTS 29 31 0 0 0
M  V30 BEGIN ATOM
M  V30 1 Br 2.598 1.0 0.0 0
M  V30 2 C 2.598 0.0 0.0 0
M  V30 3 C 1.732 -0.5 0.0 0
M  V30 4 C 3.4641 -0.4999 0.0 0
M  V30 5 N 1.732 -1.5 0.0 0
M  V30 6 N 0.866 0.0 0.0 0
M  V30 7 N 3.4641 -1.4999 0.0 0
M  V30 8 C 2.598 -1.9999 0.0 0
M  V30 9 C 0.0 -0.5 0.0 0
M  V30 10 N 2.598 -2.9999 0.0 0
M  V30 11 C -0.866 0.0 0.0 0
M  V30 12 C 0.0 -1.4999 0.0 0
M  V30 13 C 3.4641 -3.4999 0.0 0
M  V30 14 C -1.732 -0.4999 0.0 0
M  V30 15 C -0.866 1.0 0.0 0
M  V30 16 C -0.866 -1.9999 0.0 0
M  V30 17 C 3.4641 -4.4999 0.0 0
M  V30 18 C 4.3301 -2.9999 0.0 0
M  V30 19 F -2.598 0.0 0.0 0
M  V30 20 C -1.732 -1.4999 0.0 0
M  V30 21 O 0.0 1.5 0.0 0
M  V30 22 N -1.732 1.5 0.0 0
M  V30 23 C 4.3301 -4.9999 0.0 0
M  V30 24 C 5.1961 -3.4999 0.0 0
M  V30 25 C 5.1961 -4.4999 0.0 0
M  V30 26 S 6.0621 -4.9999 0.0 0
M  V30 27 O 5.5621 -5.866 0.0 0
M  V30 28 O 6.5621 -4.1339 0.0 0
M  V30 29 N 6.9282 -5.4999 0.0 0
M  V30 END ATOM
M  V30 BEGIN BOND
M  V30 1 1 1 2
M  V30 2 2 2 3
M  V30 3 1 2 4
M  V30 4 1 3 5
M  V30 5 1 3 6
M  V30 6 2 4 7
M  V30 7 2 5 8
M  V30 8 1 6 9
M  V30 9 1 8 10
M  V30 10 2 9 11
M  V30 11 1 9 12
M  V30 12 1 10 13
M  V30 13 1 11 14
M  V30 14 1 11 15
M  V30 15 2 12 16
M  V30 16 2 13 17
M  V30 17 1 13 18
M  V30 18 1 14 19
M  V30 19 2 14 20
M  V30 20 2 15 21
M  V30 21 1 15 22
M  V30 22 1 17 23
M  V30 23 2 18 24
M  V30 24 2 23 25
M  V30 25 1 25 26
M  V30 26 2 26 27
M  V30 27 2 26 28
M  V30 28 1 26 29
M  V30 29 1 7 8
M  V30 30 1 16 20
M  V30 31 1 24 25
M  V30 END BOND
M  V30 END CTAB
M  END
>  <Molecule Name>
Compound 403

>  <Molecule Name 2>
Compound 403

>  <Compound ID>
129

>  <Name>
TMX-3013

>  <Uniprot>
Q9BYT3

>  <Target>
STK33

>  <Smiles>
NC(=O)C1=C(F)C=CC=C1NC1=NC(NC2=CC=C(S(N)(=O)=O)C=C2)=NC=C1Br

>  <Kd (nM)>


>  <Assay (Kd)>


>  <Ki (nM)>


>  <Assay (Ki)>


>  <IC50 (nM)>


>  <Assay (IC50)>


>  <EC50 (nM)>


>  <Assay (EC50)>


>  <Article DOI>
10.1016/j.cell.2020.10.038

>  <Molecular Weight>
481.307

>  <Exact Mass>
480.0015496

>  <XLogP3>
2.74

>  <Heavy Atom Count>
29

>  <Ring Count>
3

>  <Hydrogen Bond Acceptor Count>
7

>  <Hydrogen Bond Donor Count>
4

>  <Rotatable Bond Count>
6

>  <Topological Polar Surface Area>
153.09

>  <Molecular Formula>
C17H14BrFN6O3S

>  <InChI>
InChI=1S/C17H14BrFN6O3S/c18-11-8-22-17(23-9-4-6-10(7-5-9)29(21,27)28)25-16(11)24-13-3-1-2-12(19)14(13)15(20)26/h1-8H,(H2,20,26)(H2,21,27,28)(H2,22,23,24,25)

>  <InChI Key>
VCPYDRGRPKSEOJ-UHFFFAOYSA-N

>  <BindingDB>


>  <PubChem>
155184510

>  <ChEMBL>


$$$$
129
Actelion Java MolfileCreator 2.0

  0  0  0  0  0  0              0 V3000
M  V30 BEGIN CTAB
M  V30 COUNTS 29 31 0 0 0
M  V30 BEGIN ATOM
M  V30 1 Br 2.598 1.0 0.0 0
M  V30 2 C 2.598 0.0 0.0 0
M  V30 3 C 1.732 -0.5 0.0 0
M  V30 4 C 3.4641 -0.4999 0.0 0
M  V30 5 N 1.732 -1.5 0.0 0
M  V30 6 N 0.866 0.0 0.0 0
M  V30 7 N 3.4641 -1.4999 0.0 0
M  V30 8 C 2.598 -1.9999 0.0 0
M  V30 9 C 0.0 -0.5 0.0 0
M  V30 10 N 2.598 -2.9999 0.0 0
M  V30 11 C -0.866 0.0 0.0 0
M  V30 12 C 0.0 -1.4999 0.0 0
M  V30 13 C 3.4641 -3.4999 0.0 0
M  V30 14 C -1.732 -0.4999 0.0 0
M  V30 15 C -0.866 1.0 0.0 0
M  V30 16 C -0.866 -1.9999 0.0 0
M  V30 17 C 3.4641 -4.4999 0.0 0
M  V30 18 C 4.3301 -2.9999 0.0 0
M  V30 19 F -2.598 0.0 0.0 0
M  V30 20 C -1.732 -1.4999 0.0 0
M  V30 21 O 0.0 1.5 0.0 0
M  V30 22 N -1.732 1.5 0.0 0
M  V30 23 C 4.3301 -4.9999 0.0 0
M  V30 24 C 5.1961 -3.4999 0.0 0
M  V30 25 C 5.1961 -4.4999 0.0 0
M  V30 26 S 6.0621 -4.9999 0.0 0
M  V30 27 O 5.5621 -5.866 0.0 0
M  V30 28 O 6.5621 -4.1339 0.0 0
M  V30 29 N 6.9282 -5.4999 0.0 0
M  V30 END ATOM
M  V30 BEGIN BOND
M  V30 1 1 1 2
M  V30 2 2 2 3
M  V30 3 1 2 4
M  V30 4 1 3 5
M  V30 5 1 3 6
M  V30 6 2 4 7
M  V30 7 2 5 8
M  V30 8 1 6 9
M  V30 9 1 8 10
M  V30 10 2 9 11
M  V30 11 1 9 12
M  V30 12 1 10 13
M  V30 13 1 11 14
M  V30 14 1 11 15
M  V30 15 2 12 16
M  V30 16 2 13 17
M  V30 17 1 13 18
M  V30 18 1 14 19
M  V30 19 2 14 20
M  V30 20 2 15 21
M  V30 21 1 15 22
M  V30 22 1 17 23
M  V30 23 2 18 24
M  V30 24 2 23 25
M  V30 25 1 25 26
M  V30 26 2 26 27
M  V30 27 2 26 28
M  V30 28 1 26 29
M  V30 29 1 7 8
M  V30 30 1 16 20
M  V30 31 1 24 25
M  V30 END BOND
M  V30 END CTAB
M  END
>  <Molecule Name>
Compound 404

>  <Molecule Name 2>
Compound 404

>  <Compound ID>
129

>  <Name>
TMX-3013

>  <Uniprot>
Q15208

>  <Target>
STK38

>  <Smiles>
NC(=O)C1=C(F)C=CC=C1NC1=NC(NC2=CC=C(S(N)(=O)=O)C=C2)=NC=C1Br

>  <Kd (nM)>


>  <Assay (Kd)>


>  <Ki (nM)>


>  <Assay (Ki)>


>  <IC50 (nM)>


>  <Assay (IC50)>


>  <EC50 (nM)>


>  <Assay (EC50)>


>  <Article DOI>
10.1016/j.cell.2020.10.038

>  <Molecular Weight>
481.307

>  <Exact Mass>
480.0015496

>  <XLogP3>
2.74

>  <Heavy Atom Count>
29

>  <Ring Count>
3

>  <Hydrogen Bond Acceptor Count>
7

>  <Hydrogen Bond Donor Count>
4

>  <Rotatable Bond Count>
6

>  <Topological Polar Surface Area>
153.09

>  <Molecular Formula>
C17H14BrFN6O3S

>  <InChI>
InChI=1S/C17H14BrFN6O3S/c18-11-8-22-17(23-9-4-6-10(7-5-9)29(21,27)28)25-16(11)24-13-3-1-2-12(19)14(13)15(20)26/h1-8H,(H2,20,26)(H2,21,27,28)(H2,22,23,24,25)

>  <InChI Key>
VCPYDRGRPKSEOJ-UHFFFAOYSA-N

>  <BindingDB>


>  <PubChem>
155184510

>  <ChEMBL>


$$$$
129
Actelion Java MolfileCreator 2.0

  0  0  0  0  0  0              0 V3000
M  V30 BEGIN CTAB
M  V30 COUNTS 29 31 0 0 0
M  V30 BEGIN ATOM
M  V30 1 Br 2.598 1.0 0.0 0
M  V30 2 C 2.598 0.0 0.0 0
M  V30 3 C 1.732 -0.5 0.0 0
M  V30 4 C 3.4641 -0.4999 0.0 0
M  V30 5 N 1.732 -1.5 0.0 0
M  V30 6 N 0.866 0.0 0.0 0
M  V30 7 N 3.4641 -1.4999 0.0 0
M  V30 8 C 2.598 -1.9999 0.0 0
M  V30 9 C 0.0 -0.5 0.0 0
M  V30 10 N 2.598 -2.9999 0.0 0
M  V30 11 C -0.866 0.0 0.0 0
M  V30 12 C 0.0 -1.4999 0.0 0
M  V30 13 C 3.4641 -3.4999 0.0 0
M  V30 14 C -1.732 -0.4999 0.0 0
M  V30 15 C -0.866 1.0 0.0 0
M  V30 16 C -0.866 -1.9999 0.0 0
M  V30 17 C 3.4641 -4.4999 0.0 0
M  V30 18 C 4.3301 -2.9999 0.0 0
M  V30 19 F -2.598 0.0 0.0 0
M  V30 20 C -1.732 -1.4999 0.0 0
M  V30 21 O 0.0 1.5 0.0 0
M  V30 22 N -1.732 1.5 0.0 0
M  V30 23 C 4.3301 -4.9999 0.0 0
M  V30 24 C 5.1961 -3.4999 0.0 0
M  V30 25 C 5.1961 -4.4999 0.0 0
M  V30 26 S 6.0621 -4.9999 0.0 0
M  V30 27 O 5.5621 -5.866 0.0 0
M  V30 28 O 6.5621 -4.1339 0.0 0
M  V30 29 N 6.9282 -5.4999 0.0 0
M  V30 END ATOM
M  V30 BEGIN BOND
M  V30 1 1 1 2
M  V30 2 2 2 3
M  V30 3 1 2 4
M  V30 4 1 3 5
M  V30 5 1 3 6
M  V30 6 2 4 7
M  V30 7 2 5 8
M  V30 8 1 6 9
M  V30 9 1 8 10
M  V30 10 2 9 11
M  V30 11 1 9 12
M  V30 12 1 10 13
M  V30 13 1 11 14
M  V30 14 1 11 15
M  V30 15 2 12 16
M  V30 16 2 13 17
M  V30 17 1 13 18
M  V30 18 1 14 19
M  V30 19 2 14 20
M  V30 20 2 15 21
M  V30 21 1 15 22
M  V30 22 1 17 23
M  V30 23 2 18 24
M  V30 24 2 23 25
M  V30 25 1 25 26
M  V30 26 2 26 27
M  V30 27 2 26 28
M  V30 28 1 26 29
M  V30 29 1 7 8
M  V30 30 1 16 20
M  V30 31 1 24 25
M  V30 END BOND
M  V30 END CTAB
M  END
>  <Molecule Name>
Compound 405

>  <Molecule Name 2>
Compound 405

>  <Compound ID>
129

>  <Name>
TMX-3013

>  <Uniprot>
P33981

>  <Target>
TTK

>  <Smiles>
NC(=O)C1=C(F)C=CC=C1NC1=NC(NC2=CC=C(S(N)(=O)=O)C=C2)=NC=C1Br

>  <Kd (nM)>


>  <Assay (Kd)>


>  <Ki (nM)>


>  <Assay (Ki)>


>  <IC50 (nM)>


>  <Assay (IC50)>


>  <EC50 (nM)>


>  <Assay (EC50)>


>  <Article DOI>
10.1016/j.cell.2020.10.038

>  <Molecular Weight>
481.307

>  <Exact Mass>
480.0015496

>  <XLogP3>
2.74

>  <Heavy Atom Count>
29

>  <Ring Count>
3

>  <Hydrogen Bond Acceptor Count>
7

>  <Hydrogen Bond Donor Count>
4

>  <Rotatable Bond Count>
6

>  <Topological Polar Surface Area>
153.09

>  <Molecular Formula>
C17H14BrFN6O3S

>  <InChI>
InChI=1S/C17H14BrFN6O3S/c18-11-8-22-17(23-9-4-6-10(7-5-9)29(21,27)28)25-16(11)24-13-3-1-2-12(19)14(13)15(20)26/h1-8H,(H2,20,26)(H2,21,27,28)(H2,22,23,24,25)

>  <InChI Key>
VCPYDRGRPKSEOJ-UHFFFAOYSA-N

>  <BindingDB>


>  <PubChem>
155184510

>  <ChEMBL>


$$$$
130
Actelion Java MolfileCreator 2.0

  0  0  0  0  0  0              0 V3000
M  V30 BEGIN CTAB
M  V30 COUNTS 30 32 0 0 0
M  V30 BEGIN ATOM
M  V30 1 Br 2.598 1.0 0.0 0
M  V30 2 C 2.598 0.0 0.0 0
M  V30 3 C 1.732 -0.5 0.0 0
M  V30 4 C 3.4641 -0.4999 0.0 0
M  V30 5 N 1.732 -1.5 0.0 0
M  V30 6 N 0.866 0.0 0.0 0
M  V30 7 N 3.4641 -1.4999 0.0 0
M  V30 8 C 2.598 -1.9999 0.0 0
M  V30 9 C 0.0 -0.5 0.0 0
M  V30 10 N 2.598 -2.9999 0.0 0
M  V30 11 C -0.866 0.0 0.0 0
M  V30 12 C 0.0 -1.4999 0.0 0
M  V30 13 C 3.4641 -3.4999 0.0 0
M  V30 14 C -1.732 -0.4999 0.0 0
M  V30 15 C -0.866 1.0 0.0 0
M  V30 16 C -0.866 -1.9999 0.0 0
M  V30 17 C 3.4641 -4.4999 0.0 0
M  V30 18 C 4.3301 -2.9999 0.0 0
M  V30 19 F -2.598 0.0 0.0 0
M  V30 20 C -1.732 -1.4999 0.0 0
M  V30 21 O 0.0 1.5 0.0 0
M  V30 22 N -1.732 1.5 0.0 0
M  V30 23 C 4.3301 -4.9999 0.0 0
M  V30 24 C 2.598 -4.9999 0.0 0
M  V30 25 C 5.1961 -3.4999 0.0 0
M  V30 26 C 5.1961 -4.4999 0.0 0
M  V30 27 S 6.0621 -4.9999 0.0 0
M  V30 28 O 5.5621 -5.866 0.0 0
M  V30 29 O 6.5621 -4.1339 0.0 0
M  V30 30 N 6.9282 -5.4999 0.0 0
M  V30 END ATOM
M  V30 BEGIN BOND
M  V30 1 1 1 2
M  V30 2 2 2 3
M  V30 3 1 2 4
M  V30 4 1 3 5
M  V30 5 1 3 6
M  V30 6 2 4 7
M  V30 7 2 5 8
M  V30 8 1 6 9
M  V30 9 1 8 10
M  V30 10 2 9 11
M  V30 11 1 9 12
M  V30 12 1 10 13
M  V30 13 1 11 14
M  V30 14 1 11 15
M  V30 15 2 12 16
M  V30 16 2 13 17
M  V30 17 1 13 18
M  V30 18 1 14 19
M  V30 19 2 14 20
M  V30 20 2 15 21
M  V30 21 1 15 22
M  V30 22 1 17 23
M  V30 23 1 17 24
M  V30 24 2 18 25
M  V30 25 2 23 26
M  V30 26 1 26 27
M  V30 27 2 27 28
M  V30 28 2 27 29
M  V30 29 1 27 30
M  V30 30 1 7 8
M  V30 31 1 16 20
M  V30 32 1 25 26
M  V30 END BOND
M  V30 END CTAB
M  END
>  <Molecule Name>
Compound 406

>  <Molecule Name 2>
Compound 406

>  <Compound ID>
130

>  <Name>
TMX-3010

>  <Uniprot>
O14965

>  <Target>
AURKA

>  <Smiles>
CC1=CC(S(N)(=O)=O)=CC=C1NC1=NC=C(Br)C(NC2=CC=CC(F)=C2C(N)=O)=N1

>  <Kd (nM)>


>  <Assay (Kd)>


>  <Ki (nM)>


>  <Assay (Ki)>


>  <IC50 (nM)>


>  <Assay (IC50)>


>  <EC50 (nM)>


>  <Assay (EC50)>


>  <Article DOI>
10.1016/j.cell.2020.10.038

>  <Molecular Weight>
495.334

>  <Exact Mass>
494.0171997

>  <XLogP3>
3.1

>  <Heavy Atom Count>
30

>  <Ring Count>
3

>  <Hydrogen Bond Acceptor Count>
7

>  <Hydrogen Bond Donor Count>
4

>  <Rotatable Bond Count>
6

>  <Topological Polar Surface Area>
153.09

>  <Molecular Formula>
C18H16BrFN6O3S

>  <InChI>
InChI=1S/C18H16BrFN6O3S/c1-9-7-10(30(22,28)29)5-6-13(9)25-18-23-8-11(19)17(26-18)24-14-4-2-3-12(20)15(14)16(21)27/h2-8H,1H3,(H2,21,27)(H2,22,28,29)(H2,23,24,25,26)

>  <InChI Key>
HRRALCQGXWYWOS-UHFFFAOYSA-N

>  <BindingDB>


>  <PubChem>


>  <ChEMBL>


$$$$
130
Actelion Java MolfileCreator 2.0

  0  0  0  0  0  0              0 V3000
M  V30 BEGIN CTAB
M  V30 COUNTS 30 32 0 0 0
M  V30 BEGIN ATOM
M  V30 1 Br 2.598 1.0 0.0 0
M  V30 2 C 2.598 0.0 0.0 0
M  V30 3 C 1.732 -0.5 0.0 0
M  V30 4 C 3.4641 -0.4999 0.0 0
M  V30 5 N 1.732 -1.5 0.0 0
M  V30 6 N 0.866 0.0 0.0 0
M  V30 7 N 3.4641 -1.4999 0.0 0
M  V30 8 C 2.598 -1.9999 0.0 0
M  V30 9 C 0.0 -0.5 0.0 0
M  V30 10 N 2.598 -2.9999 0.0 0
M  V30 11 C -0.866 0.0 0.0 0
M  V30 12 C 0.0 -1.4999 0.0 0
M  V30 13 C 3.4641 -3.4999 0.0 0
M  V30 14 C -1.732 -0.4999 0.0 0
M  V30 15 C -0.866 1.0 0.0 0
M  V30 16 C -0.866 -1.9999 0.0 0
M  V30 17 C 3.4641 -4.4999 0.0 0
M  V30 18 C 4.3301 -2.9999 0.0 0
M  V30 19 F -2.598 0.0 0.0 0
M  V30 20 C -1.732 -1.4999 0.0 0
M  V30 21 O 0.0 1.5 0.0 0
M  V30 22 N -1.732 1.5 0.0 0
M  V30 23 C 4.3301 -4.9999 0.0 0
M  V30 24 C 2.598 -4.9999 0.0 0
M  V30 25 C 5.1961 -3.4999 0.0 0
M  V30 26 C 5.1961 -4.4999 0.0 0
M  V30 27 S 6.0621 -4.9999 0.0 0
M  V30 28 O 5.5621 -5.866 0.0 0
M  V30 29 O 6.5621 -4.1339 0.0 0
M  V30 30 N 6.9282 -5.4999 0.0 0
M  V30 END ATOM
M  V30 BEGIN BOND
M  V30 1 1 1 2
M  V30 2 2 2 3
M  V30 3 1 2 4
M  V30 4 1 3 5
M  V30 5 1 3 6
M  V30 6 2 4 7
M  V30 7 2 5 8
M  V30 8 1 6 9
M  V30 9 1 8 10
M  V30 10 2 9 11
M  V30 11 1 9 12
M  V30 12 1 10 13
M  V30 13 1 11 14
M  V30 14 1 11 15
M  V30 15 2 12 16
M  V30 16 2 13 17
M  V30 17 1 13 18
M  V30 18 1 14 19
M  V30 19 2 14 20
M  V30 20 2 15 21
M  V30 21 1 15 22
M  V30 22 1 17 23
M  V30 23 1 17 24
M  V30 24 2 18 25
M  V30 25 2 23 26
M  V30 26 1 26 27
M  V30 27 2 27 28
M  V30 28 2 27 29
M  V30 29 1 27 30
M  V30 30 1 7 8
M  V30 31 1 16 20
M  V30 32 1 25 26
M  V30 END BOND
M  V30 END CTAB
M  END
>  <Molecule Name>
Compound 407

>  <Molecule Name 2>
Compound 407

>  <Compound ID>
130

>  <Name>
TMX-3010

>  <Uniprot>
Q96GD4

>  <Target>
AURKB

>  <Smiles>
CC1=CC(S(N)(=O)=O)=CC=C1NC1=NC=C(Br)C(NC2=CC=CC(F)=C2C(N)=O)=N1

>  <Kd (nM)>


>  <Assay (Kd)>


>  <Ki (nM)>


>  <Assay (Ki)>


>  <IC50 (nM)>


>  <Assay (IC50)>


>  <EC50 (nM)>


>  <Assay (EC50)>


>  <Article DOI>
10.1016/j.cell.2020.10.038

>  <Molecular Weight>
495.334

>  <Exact Mass>
494.0171997

>  <XLogP3>
3.1

>  <Heavy Atom Count>
30

>  <Ring Count>
3

>  <Hydrogen Bond Acceptor Count>
7

>  <Hydrogen Bond Donor Count>
4

>  <Rotatable Bond Count>
6

>  <Topological Polar Surface Area>
153.09

>  <Molecular Formula>
C18H16BrFN6O3S

>  <InChI>
InChI=1S/C18H16BrFN6O3S/c1-9-7-10(30(22,28)29)5-6-13(9)25-18-23-8-11(19)17(26-18)24-14-4-2-3-12(20)15(14)16(21)27/h2-8H,1H3,(H2,21,27)(H2,22,28,29)(H2,23,24,25,26)

>  <InChI Key>
HRRALCQGXWYWOS-UHFFFAOYSA-N

>  <BindingDB>


>  <PubChem>


>  <ChEMBL>


$$$$
130
Actelion Java MolfileCreator 2.0

  0  0  0  0  0  0              0 V3000
M  V30 BEGIN CTAB
M  V30 COUNTS 30 32 0 0 0
M  V30 BEGIN ATOM
M  V30 1 Br 2.598 1.0 0.0 0
M  V30 2 C 2.598 0.0 0.0 0
M  V30 3 C 1.732 -0.5 0.0 0
M  V30 4 C 3.4641 -0.4999 0.0 0
M  V30 5 N 1.732 -1.5 0.0 0
M  V30 6 N 0.866 0.0 0.0 0
M  V30 7 N 3.4641 -1.4999 0.0 0
M  V30 8 C 2.598 -1.9999 0.0 0
M  V30 9 C 0.0 -0.5 0.0 0
M  V30 10 N 2.598 -2.9999 0.0 0
M  V30 11 C -0.866 0.0 0.0 0
M  V30 12 C 0.0 -1.4999 0.0 0
M  V30 13 C 3.4641 -3.4999 0.0 0
M  V30 14 C -1.732 -0.4999 0.0 0
M  V30 15 C -0.866 1.0 0.0 0
M  V30 16 C -0.866 -1.9999 0.0 0
M  V30 17 C 3.4641 -4.4999 0.0 0
M  V30 18 C 4.3301 -2.9999 0.0 0
M  V30 19 F -2.598 0.0 0.0 0
M  V30 20 C -1.732 -1.4999 0.0 0
M  V30 21 O 0.0 1.5 0.0 0
M  V30 22 N -1.732 1.5 0.0 0
M  V30 23 C 4.3301 -4.9999 0.0 0
M  V30 24 C 2.598 -4.9999 0.0 0
M  V30 25 C 5.1961 -3.4999 0.0 0
M  V30 26 C 5.1961 -4.4999 0.0 0
M  V30 27 S 6.0621 -4.9999 0.0 0
M  V30 28 O 5.5621 -5.866 0.0 0
M  V30 29 O 6.5621 -4.1339 0.0 0
M  V30 30 N 6.9282 -5.4999 0.0 0
M  V30 END ATOM
M  V30 BEGIN BOND
M  V30 1 1 1 2
M  V30 2 2 2 3
M  V30 3 1 2 4
M  V30 4 1 3 5
M  V30 5 1 3 6
M  V30 6 2 4 7
M  V30 7 2 5 8
M  V30 8 1 6 9
M  V30 9 1 8 10
M  V30 10 2 9 11
M  V30 11 1 9 12
M  V30 12 1 10 13
M  V30 13 1 11 14
M  V30 14 1 11 15
M  V30 15 2 12 16
M  V30 16 2 13 17
M  V30 17 1 13 18
M  V30 18 1 14 19
M  V30 19 2 14 20
M  V30 20 2 15 21
M  V30 21 1 15 22
M  V30 22 1 17 23
M  V30 23 1 17 24
M  V30 24 2 18 25
M  V30 25 2 23 26
M  V30 26 1 26 27
M  V30 27 2 27 28
M  V30 28 2 27 29
M  V30 29 1 27 30
M  V30 30 1 7 8
M  V30 31 1 16 20
M  V30 32 1 25 26
M  V30 END BOND
M  V30 END CTAB
M  END
>  <Molecule Name>
Compound 408

>  <Molecule Name 2>
Compound 408

>  <Compound ID>
130

>  <Name>
TMX-3010

>  <Uniprot>
P06493

>  <Target>
CDK1

>  <Smiles>
CC1=CC(S(N)(=O)=O)=CC=C1NC1=NC=C(Br)C(NC2=CC=CC(F)=C2C(N)=O)=N1

>  <Kd (nM)>


>  <Assay (Kd)>


>  <Ki (nM)>


>  <Assay (Ki)>


>  <IC50 (nM)>


>  <Assay (IC50)>


>  <EC50 (nM)>


>  <Assay (EC50)>


>  <Article DOI>
10.1016/j.cell.2020.10.038

>  <Molecular Weight>
495.334

>  <Exact Mass>
494.0171997

>  <XLogP3>
3.1

>  <Heavy Atom Count>
30

>  <Ring Count>
3

>  <Hydrogen Bond Acceptor Count>
7

>  <Hydrogen Bond Donor Count>
4

>  <Rotatable Bond Count>
6

>  <Topological Polar Surface Area>
153.09

>  <Molecular Formula>
C18H16BrFN6O3S

>  <InChI>
InChI=1S/C18H16BrFN6O3S/c1-9-7-10(30(22,28)29)5-6-13(9)25-18-23-8-11(19)17(26-18)24-14-4-2-3-12(20)15(14)16(21)27/h2-8H,1H3,(H2,21,27)(H2,22,28,29)(H2,23,24,25,26)

>  <InChI Key>
HRRALCQGXWYWOS-UHFFFAOYSA-N

>  <BindingDB>


>  <PubChem>


>  <ChEMBL>


$$$$
130
Actelion Java MolfileCreator 2.0

  0  0  0  0  0  0              0 V3000
M  V30 BEGIN CTAB
M  V30 COUNTS 30 32 0 0 0
M  V30 BEGIN ATOM
M  V30 1 Br 2.598 1.0 0.0 0
M  V30 2 C 2.598 0.0 0.0 0
M  V30 3 C 1.732 -0.5 0.0 0
M  V30 4 C 3.4641 -0.4999 0.0 0
M  V30 5 N 1.732 -1.5 0.0 0
M  V30 6 N 0.866 0.0 0.0 0
M  V30 7 N 3.4641 -1.4999 0.0 0
M  V30 8 C 2.598 -1.9999 0.0 0
M  V30 9 C 0.0 -0.5 0.0 0
M  V30 10 N 2.598 -2.9999 0.0 0
M  V30 11 C -0.866 0.0 0.0 0
M  V30 12 C 0.0 -1.4999 0.0 0
M  V30 13 C 3.4641 -3.4999 0.0 0
M  V30 14 C -1.732 -0.4999 0.0 0
M  V30 15 C -0.866 1.0 0.0 0
M  V30 16 C -0.866 -1.9999 0.0 0
M  V30 17 C 3.4641 -4.4999 0.0 0
M  V30 18 C 4.3301 -2.9999 0.0 0
M  V30 19 F -2.598 0.0 0.0 0
M  V30 20 C -1.732 -1.4999 0.0 0
M  V30 21 O 0.0 1.5 0.0 0
M  V30 22 N -1.732 1.5 0.0 0
M  V30 23 C 4.3301 -4.9999 0.0 0
M  V30 24 C 2.598 -4.9999 0.0 0
M  V30 25 C 5.1961 -3.4999 0.0 0
M  V30 26 C 5.1961 -4.4999 0.0 0
M  V30 27 S 6.0621 -4.9999 0.0 0
M  V30 28 O 5.5621 -5.866 0.0 0
M  V30 29 O 6.5621 -4.1339 0.0 0
M  V30 30 N 6.9282 -5.4999 0.0 0
M  V30 END ATOM
M  V30 BEGIN BOND
M  V30 1 1 1 2
M  V30 2 2 2 3
M  V30 3 1 2 4
M  V30 4 1 3 5
M  V30 5 1 3 6
M  V30 6 2 4 7
M  V30 7 2 5 8
M  V30 8 1 6 9
M  V30 9 1 8 10
M  V30 10 2 9 11
M  V30 11 1 9 12
M  V30 12 1 10 13
M  V30 13 1 11 14
M  V30 14 1 11 15
M  V30 15 2 12 16
M  V30 16 2 13 17
M  V30 17 1 13 18
M  V30 18 1 14 19
M  V30 19 2 14 20
M  V30 20 2 15 21
M  V30 21 1 15 22
M  V30 22 1 17 23
M  V30 23 1 17 24
M  V30 24 2 18 25
M  V30 25 2 23 26
M  V30 26 1 26 27
M  V30 27 2 27 28
M  V30 28 2 27 29
M  V30 29 1 27 30
M  V30 30 1 7 8
M  V30 31 1 16 20
M  V30 32 1 25 26
M  V30 END BOND
M  V30 END CTAB
M  END
>  <Molecule Name>
Compound 409

>  <Molecule Name 2>
Compound 409

>  <Compound ID>
130

>  <Name>
TMX-3010

>  <Uniprot>
P24941

>  <Target>
CDK2

>  <Smiles>
CC1=CC(S(N)(=O)=O)=CC=C1NC1=NC=C(Br)C(NC2=CC=CC(F)=C2C(N)=O)=N1

>  <Kd (nM)>


>  <Assay (Kd)>


>  <Ki (nM)>


>  <Assay (Ki)>


>  <IC50 (nM)>
0.7

>  <Assay (IC50)>
IC50 of CDK2/cyclin A was tested by the Z'-LYTE assays

>  <EC50 (nM)>


>  <Assay (EC50)>


>  <Article DOI>
10.1002/anie.202004087

>  <Molecular Weight>
495.334

>  <Exact Mass>
494.0171997

>  <XLogP3>
3.1

>  <Heavy Atom Count>
30

>  <Ring Count>
3

>  <Hydrogen Bond Acceptor Count>
7

>  <Hydrogen Bond Donor Count>
4

>  <Rotatable Bond Count>
6

>  <Topological Polar Surface Area>
153.09

>  <Molecular Formula>
C18H16BrFN6O3S

>  <InChI>
InChI=1S/C18H16BrFN6O3S/c1-9-7-10(30(22,28)29)5-6-13(9)25-18-23-8-11(19)17(26-18)24-14-4-2-3-12(20)15(14)16(21)27/h2-8H,1H3,(H2,21,27)(H2,22,28,29)(H2,23,24,25,26)

>  <InChI Key>
HRRALCQGXWYWOS-UHFFFAOYSA-N

>  <BindingDB>


>  <PubChem>


>  <ChEMBL>


$$$$
130
Actelion Java MolfileCreator 2.0

  0  0  0  0  0  0              0 V3000
M  V30 BEGIN CTAB
M  V30 COUNTS 30 32 0 0 0
M  V30 BEGIN ATOM
M  V30 1 Br 2.598 1.0 0.0 0
M  V30 2 C 2.598 0.0 0.0 0
M  V30 3 C 1.732 -0.5 0.0 0
M  V30 4 C 3.4641 -0.4999 0.0 0
M  V30 5 N 1.732 -1.5 0.0 0
M  V30 6 N 0.866 0.0 0.0 0
M  V30 7 N 3.4641 -1.4999 0.0 0
M  V30 8 C 2.598 -1.9999 0.0 0
M  V30 9 C 0.0 -0.5 0.0 0
M  V30 10 N 2.598 -2.9999 0.0 0
M  V30 11 C -0.866 0.0 0.0 0
M  V30 12 C 0.0 -1.4999 0.0 0
M  V30 13 C 3.4641 -3.4999 0.0 0
M  V30 14 C -1.732 -0.4999 0.0 0
M  V30 15 C -0.866 1.0 0.0 0
M  V30 16 C -0.866 -1.9999 0.0 0
M  V30 17 C 3.4641 -4.4999 0.0 0
M  V30 18 C 4.3301 -2.9999 0.0 0
M  V30 19 F -2.598 0.0 0.0 0
M  V30 20 C -1.732 -1.4999 0.0 0
M  V30 21 O 0.0 1.5 0.0 0
M  V30 22 N -1.732 1.5 0.0 0
M  V30 23 C 4.3301 -4.9999 0.0 0
M  V30 24 C 2.598 -4.9999 0.0 0
M  V30 25 C 5.1961 -3.4999 0.0 0
M  V30 26 C 5.1961 -4.4999 0.0 0
M  V30 27 S 6.0621 -4.9999 0.0 0
M  V30 28 O 5.5621 -5.866 0.0 0
M  V30 29 O 6.5621 -4.1339 0.0 0
M  V30 30 N 6.9282 -5.4999 0.0 0
M  V30 END ATOM
M  V30 BEGIN BOND
M  V30 1 1 1 2
M  V30 2 2 2 3
M  V30 3 1 2 4
M  V30 4 1 3 5
M  V30 5 1 3 6
M  V30 6 2 4 7
M  V30 7 2 5 8
M  V30 8 1 6 9
M  V30 9 1 8 10
M  V30 10 2 9 11
M  V30 11 1 9 12
M  V30 12 1 10 13
M  V30 13 1 11 14
M  V30 14 1 11 15
M  V30 15 2 12 16
M  V30 16 2 13 17
M  V30 17 1 13 18
M  V30 18 1 14 19
M  V30 19 2 14 20
M  V30 20 2 15 21
M  V30 21 1 15 22
M  V30 22 1 17 23
M  V30 23 1 17 24
M  V30 24 2 18 25
M  V30 25 2 23 26
M  V30 26 1 26 27
M  V30 27 2 27 28
M  V30 28 2 27 29
M  V30 29 1 27 30
M  V30 30 1 7 8
M  V30 31 1 16 20
M  V30 32 1 25 26
M  V30 END BOND
M  V30 END CTAB
M  END
>  <Molecule Name>
Compound 410

>  <Molecule Name 2>
Compound 410

>  <Compound ID>
130

>  <Name>
TMX-3010

>  <Uniprot>
P11802

>  <Target>
CDK4

>  <Smiles>
CC1=CC(S(N)(=O)=O)=CC=C1NC1=NC=C(Br)C(NC2=CC=CC(F)=C2C(N)=O)=N1

>  <Kd (nM)>


>  <Assay (Kd)>


>  <Ki (nM)>


>  <Assay (Ki)>


>  <IC50 (nM)>
135

>  <Assay (IC50)>
IC50 of CDK4/cyclin D1 was tested by the Adapta assays

>  <EC50 (nM)>


>  <Assay (EC50)>


>  <Article DOI>
10.1002/anie.202004087

>  <Molecular Weight>
495.334

>  <Exact Mass>
494.0171997

>  <XLogP3>
3.1

>  <Heavy Atom Count>
30

>  <Ring Count>
3

>  <Hydrogen Bond Acceptor Count>
7

>  <Hydrogen Bond Donor Count>
4

>  <Rotatable Bond Count>
6

>  <Topological Polar Surface Area>
153.09

>  <Molecular Formula>
C18H16BrFN6O3S

>  <InChI>
InChI=1S/C18H16BrFN6O3S/c1-9-7-10(30(22,28)29)5-6-13(9)25-18-23-8-11(19)17(26-18)24-14-4-2-3-12(20)15(14)16(21)27/h2-8H,1H3,(H2,21,27)(H2,22,28,29)(H2,23,24,25,26)

>  <InChI Key>
HRRALCQGXWYWOS-UHFFFAOYSA-N

>  <BindingDB>


>  <PubChem>


>  <ChEMBL>


$$$$
130
Actelion Java MolfileCreator 2.0

  0  0  0  0  0  0              0 V3000
M  V30 BEGIN CTAB
M  V30 COUNTS 30 32 0 0 0
M  V30 BEGIN ATOM
M  V30 1 Br 2.598 1.0 0.0 0
M  V30 2 C 2.598 0.0 0.0 0
M  V30 3 C 1.732 -0.5 0.0 0
M  V30 4 C 3.4641 -0.4999 0.0 0
M  V30 5 N 1.732 -1.5 0.0 0
M  V30 6 N 0.866 0.0 0.0 0
M  V30 7 N 3.4641 -1.4999 0.0 0
M  V30 8 C 2.598 -1.9999 0.0 0
M  V30 9 C 0.0 -0.5 0.0 0
M  V30 10 N 2.598 -2.9999 0.0 0
M  V30 11 C -0.866 0.0 0.0 0
M  V30 12 C 0.0 -1.4999 0.0 0
M  V30 13 C 3.4641 -3.4999 0.0 0
M  V30 14 C -1.732 -0.4999 0.0 0
M  V30 15 C -0.866 1.0 0.0 0
M  V30 16 C -0.866 -1.9999 0.0 0
M  V30 17 C 3.4641 -4.4999 0.0 0
M  V30 18 C 4.3301 -2.9999 0.0 0
M  V30 19 F -2.598 0.0 0.0 0
M  V30 20 C -1.732 -1.4999 0.0 0
M  V30 21 O 0.0 1.5 0.0 0
M  V30 22 N -1.732 1.5 0.0 0
M  V30 23 C 4.3301 -4.9999 0.0 0
M  V30 24 C 2.598 -4.9999 0.0 0
M  V30 25 C 5.1961 -3.4999 0.0 0
M  V30 26 C 5.1961 -4.4999 0.0 0
M  V30 27 S 6.0621 -4.9999 0.0 0
M  V30 28 O 5.5621 -5.866 0.0 0
M  V30 29 O 6.5621 -4.1339 0.0 0
M  V30 30 N 6.9282 -5.4999 0.0 0
M  V30 END ATOM
M  V30 BEGIN BOND
M  V30 1 1 1 2
M  V30 2 2 2 3
M  V30 3 1 2 4
M  V30 4 1 3 5
M  V30 5 1 3 6
M  V30 6 2 4 7
M  V30 7 2 5 8
M  V30 8 1 6 9
M  V30 9 1 8 10
M  V30 10 2 9 11
M  V30 11 1 9 12
M  V30 12 1 10 13
M  V30 13 1 11 14
M  V30 14 1 11 15
M  V30 15 2 12 16
M  V30 16 2 13 17
M  V30 17 1 13 18
M  V30 18 1 14 19
M  V30 19 2 14 20
M  V30 20 2 15 21
M  V30 21 1 15 22
M  V30 22 1 17 23
M  V30 23 1 17 24
M  V30 24 2 18 25
M  V30 25 2 23 26
M  V30 26 1 26 27
M  V30 27 2 27 28
M  V30 28 2 27 29
M  V30 29 1 27 30
M  V30 30 1 7 8
M  V30 31 1 16 20
M  V30 32 1 25 26
M  V30 END BOND
M  V30 END CTAB
M  END
>  <Molecule Name>
Compound 411

>  <Molecule Name 2>
Compound 411

>  <Compound ID>
130

>  <Name>
TMX-3010

>  <Uniprot>
Q00535

>  <Target>
CDK5

>  <Smiles>
CC1=CC(S(N)(=O)=O)=CC=C1NC1=NC=C(Br)C(NC2=CC=CC(F)=C2C(N)=O)=N1

>  <Kd (nM)>


>  <Assay (Kd)>


>  <Ki (nM)>


>  <Assay (Ki)>


>  <IC50 (nM)>
0.9

>  <Assay (IC50)>
IC50 of CDK5/p25 was tested by the Z'-LYTE assays

>  <EC50 (nM)>


>  <Assay (EC50)>


>  <Article DOI>
10.1002/anie.202004087

>  <Molecular Weight>
495.334

>  <Exact Mass>
494.0171997

>  <XLogP3>
3.1

>  <Heavy Atom Count>
30

>  <Ring Count>
3

>  <Hydrogen Bond Acceptor Count>
7

>  <Hydrogen Bond Donor Count>
4

>  <Rotatable Bond Count>
6

>  <Topological Polar Surface Area>
153.09

>  <Molecular Formula>
C18H16BrFN6O3S

>  <InChI>
InChI=1S/C18H16BrFN6O3S/c1-9-7-10(30(22,28)29)5-6-13(9)25-18-23-8-11(19)17(26-18)24-14-4-2-3-12(20)15(14)16(21)27/h2-8H,1H3,(H2,21,27)(H2,22,28,29)(H2,23,24,25,26)

>  <InChI Key>
HRRALCQGXWYWOS-UHFFFAOYSA-N

>  <BindingDB>


>  <PubChem>


>  <ChEMBL>


$$$$
130
Actelion Java MolfileCreator 2.0

  0  0  0  0  0  0              0 V3000
M  V30 BEGIN CTAB
M  V30 COUNTS 30 32 0 0 0
M  V30 BEGIN ATOM
M  V30 1 Br 2.598 1.0 0.0 0
M  V30 2 C 2.598 0.0 0.0 0
M  V30 3 C 1.732 -0.5 0.0 0
M  V30 4 C 3.4641 -0.4999 0.0 0
M  V30 5 N 1.732 -1.5 0.0 0
M  V30 6 N 0.866 0.0 0.0 0
M  V30 7 N 3.4641 -1.4999 0.0 0
M  V30 8 C 2.598 -1.9999 0.0 0
M  V30 9 C 0.0 -0.5 0.0 0
M  V30 10 N 2.598 -2.9999 0.0 0
M  V30 11 C -0.866 0.0 0.0 0
M  V30 12 C 0.0 -1.4999 0.0 0
M  V30 13 C 3.4641 -3.4999 0.0 0
M  V30 14 C -1.732 -0.4999 0.0 0
M  V30 15 C -0.866 1.0 0.0 0
M  V30 16 C -0.866 -1.9999 0.0 0
M  V30 17 C 3.4641 -4.4999 0.0 0
M  V30 18 C 4.3301 -2.9999 0.0 0
M  V30 19 F -2.598 0.0 0.0 0
M  V30 20 C -1.732 -1.4999 0.0 0
M  V30 21 O 0.0 1.5 0.0 0
M  V30 22 N -1.732 1.5 0.0 0
M  V30 23 C 4.3301 -4.9999 0.0 0
M  V30 24 C 2.598 -4.9999 0.0 0
M  V30 25 C 5.1961 -3.4999 0.0 0
M  V30 26 C 5.1961 -4.4999 0.0 0
M  V30 27 S 6.0621 -4.9999 0.0 0
M  V30 28 O 5.5621 -5.866 0.0 0
M  V30 29 O 6.5621 -4.1339 0.0 0
M  V30 30 N 6.9282 -5.4999 0.0 0
M  V30 END ATOM
M  V30 BEGIN BOND
M  V30 1 1 1 2
M  V30 2 2 2 3
M  V30 3 1 2 4
M  V30 4 1 3 5
M  V30 5 1 3 6
M  V30 6 2 4 7
M  V30 7 2 5 8
M  V30 8 1 6 9
M  V30 9 1 8 10
M  V30 10 2 9 11
M  V30 11 1 9 12
M  V30 12 1 10 13
M  V30 13 1 11 14
M  V30 14 1 11 15
M  V30 15 2 12 16
M  V30 16 2 13 17
M  V30 17 1 13 18
M  V30 18 1 14 19
M  V30 19 2 14 20
M  V30 20 2 15 21
M  V30 21 1 15 22
M  V30 22 1 17 23
M  V30 23 1 17 24
M  V30 24 2 18 25
M  V30 25 2 23 26
M  V30 26 1 26 27
M  V30 27 2 27 28
M  V30 28 2 27 29
M  V30 29 1 27 30
M  V30 30 1 7 8
M  V30 31 1 16 20
M  V30 32 1 25 26
M  V30 END BOND
M  V30 END CTAB
M  END
>  <Molecule Name>
Compound 412

>  <Molecule Name 2>
Compound 412

>  <Compound ID>
130

>  <Name>
TMX-3010

>  <Uniprot>
Q00534

>  <Target>
CDK6

>  <Smiles>
CC1=CC(S(N)(=O)=O)=CC=C1NC1=NC=C(Br)C(NC2=CC=CC(F)=C2C(N)=O)=N1

>  <Kd (nM)>


>  <Assay (Kd)>


>  <Ki (nM)>


>  <Assay (Ki)>


>  <IC50 (nM)>
84.1

>  <Assay (IC50)>
IC50 of CDK6/cyclin D1 was tested by the Adapta assays

>  <EC50 (nM)>


>  <Assay (EC50)>


>  <Article DOI>
10.1002/anie.202004087

>  <Molecular Weight>
495.334

>  <Exact Mass>
494.0171997

>  <XLogP3>
3.1

>  <Heavy Atom Count>
30

>  <Ring Count>
3

>  <Hydrogen Bond Acceptor Count>
7

>  <Hydrogen Bond Donor Count>
4

>  <Rotatable Bond Count>
6

>  <Topological Polar Surface Area>
153.09

>  <Molecular Formula>
C18H16BrFN6O3S

>  <InChI>
InChI=1S/C18H16BrFN6O3S/c1-9-7-10(30(22,28)29)5-6-13(9)25-18-23-8-11(19)17(26-18)24-14-4-2-3-12(20)15(14)16(21)27/h2-8H,1H3,(H2,21,27)(H2,22,28,29)(H2,23,24,25,26)

>  <InChI Key>
HRRALCQGXWYWOS-UHFFFAOYSA-N

>  <BindingDB>


>  <PubChem>


>  <ChEMBL>


$$$$
130
Actelion Java MolfileCreator 2.0

  0  0  0  0  0  0              0 V3000
M  V30 BEGIN CTAB
M  V30 COUNTS 30 32 0 0 0
M  V30 BEGIN ATOM
M  V30 1 Br 2.598 1.0 0.0 0
M  V30 2 C 2.598 0.0 0.0 0
M  V30 3 C 1.732 -0.5 0.0 0
M  V30 4 C 3.4641 -0.4999 0.0 0
M  V30 5 N 1.732 -1.5 0.0 0
M  V30 6 N 0.866 0.0 0.0 0
M  V30 7 N 3.4641 -1.4999 0.0 0
M  V30 8 C 2.598 -1.9999 0.0 0
M  V30 9 C 0.0 -0.5 0.0 0
M  V30 10 N 2.598 -2.9999 0.0 0
M  V30 11 C -0.866 0.0 0.0 0
M  V30 12 C 0.0 -1.4999 0.0 0
M  V30 13 C 3.4641 -3.4999 0.0 0
M  V30 14 C -1.732 -0.4999 0.0 0
M  V30 15 C -0.866 1.0 0.0 0
M  V30 16 C -0.866 -1.9999 0.0 0
M  V30 17 C 3.4641 -4.4999 0.0 0
M  V30 18 C 4.3301 -2.9999 0.0 0
M  V30 19 F -2.598 0.0 0.0 0
M  V30 20 C -1.732 -1.4999 0.0 0
M  V30 21 O 0.0 1.5 0.0 0
M  V30 22 N -1.732 1.5 0.0 0
M  V30 23 C 4.3301 -4.9999 0.0 0
M  V30 24 C 2.598 -4.9999 0.0 0
M  V30 25 C 5.1961 -3.4999 0.0 0
M  V30 26 C 5.1961 -4.4999 0.0 0
M  V30 27 S 6.0621 -4.9999 0.0 0
M  V30 28 O 5.5621 -5.866 0.0 0
M  V30 29 O 6.5621 -4.1339 0.0 0
M  V30 30 N 6.9282 -5.4999 0.0 0
M  V30 END ATOM
M  V30 BEGIN BOND
M  V30 1 1 1 2
M  V30 2 2 2 3
M  V30 3 1 2 4
M  V30 4 1 3 5
M  V30 5 1 3 6
M  V30 6 2 4 7
M  V30 7 2 5 8
M  V30 8 1 6 9
M  V30 9 1 8 10
M  V30 10 2 9 11
M  V30 11 1 9 12
M  V30 12 1 10 13
M  V30 13 1 11 14
M  V30 14 1 11 15
M  V30 15 2 12 16
M  V30 16 2 13 17
M  V30 17 1 13 18
M  V30 18 1 14 19
M  V30 19 2 14 20
M  V30 20 2 15 21
M  V30 21 1 15 22
M  V30 22 1 17 23
M  V30 23 1 17 24
M  V30 24 2 18 25
M  V30 25 2 23 26
M  V30 26 1 26 27
M  V30 27 2 27 28
M  V30 28 2 27 29
M  V30 29 1 27 30
M  V30 30 1 7 8
M  V30 31 1 16 20
M  V30 32 1 25 26
M  V30 END BOND
M  V30 END CTAB
M  END
>  <Molecule Name>
Compound 413

>  <Molecule Name 2>
Compound 413

>  <Compound ID>
130

>  <Name>
TMX-3010

>  <Uniprot>
P50613

>  <Target>
CDK7

>  <Smiles>
CC1=CC(S(N)(=O)=O)=CC=C1NC1=NC=C(Br)C(NC2=CC=CC(F)=C2C(N)=O)=N1

>  <Kd (nM)>


>  <Assay (Kd)>


>  <Ki (nM)>


>  <Assay (Ki)>


>  <IC50 (nM)>
94.5

>  <Assay (IC50)>
IC50 of CDK7/cyclin H was tested by the Adapta assays

>  <EC50 (nM)>


>  <Assay (EC50)>


>  <Article DOI>
10.1002/anie.202004087

>  <Molecular Weight>
495.334

>  <Exact Mass>
494.0171997

>  <XLogP3>
3.1

>  <Heavy Atom Count>
30

>  <Ring Count>
3

>  <Hydrogen Bond Acceptor Count>
7

>  <Hydrogen Bond Donor Count>
4

>  <Rotatable Bond Count>
6

>  <Topological Polar Surface Area>
153.09

>  <Molecular Formula>
C18H16BrFN6O3S

>  <InChI>
InChI=1S/C18H16BrFN6O3S/c1-9-7-10(30(22,28)29)5-6-13(9)25-18-23-8-11(19)17(26-18)24-14-4-2-3-12(20)15(14)16(21)27/h2-8H,1H3,(H2,21,27)(H2,22,28,29)(H2,23,24,25,26)

>  <InChI Key>
HRRALCQGXWYWOS-UHFFFAOYSA-N

>  <BindingDB>


>  <PubChem>


>  <ChEMBL>


$$$$
130
Actelion Java MolfileCreator 2.0

  0  0  0  0  0  0              0 V3000
M  V30 BEGIN CTAB
M  V30 COUNTS 30 32 0 0 0
M  V30 BEGIN ATOM
M  V30 1 Br 2.598 1.0 0.0 0
M  V30 2 C 2.598 0.0 0.0 0
M  V30 3 C 1.732 -0.5 0.0 0
M  V30 4 C 3.4641 -0.4999 0.0 0
M  V30 5 N 1.732 -1.5 0.0 0
M  V30 6 N 0.866 0.0 0.0 0
M  V30 7 N 3.4641 -1.4999 0.0 0
M  V30 8 C 2.598 -1.9999 0.0 0
M  V30 9 C 0.0 -0.5 0.0 0
M  V30 10 N 2.598 -2.9999 0.0 0
M  V30 11 C -0.866 0.0 0.0 0
M  V30 12 C 0.0 -1.4999 0.0 0
M  V30 13 C 3.4641 -3.4999 0.0 0
M  V30 14 C -1.732 -0.4999 0.0 0
M  V30 15 C -0.866 1.0 0.0 0
M  V30 16 C -0.866 -1.9999 0.0 0
M  V30 17 C 3.4641 -4.4999 0.0 0
M  V30 18 C 4.3301 -2.9999 0.0 0
M  V30 19 F -2.598 0.0 0.0 0
M  V30 20 C -1.732 -1.4999 0.0 0
M  V30 21 O 0.0 1.5 0.0 0
M  V30 22 N -1.732 1.5 0.0 0
M  V30 23 C 4.3301 -4.9999 0.0 0
M  V30 24 C 2.598 -4.9999 0.0 0
M  V30 25 C 5.1961 -3.4999 0.0 0
M  V30 26 C 5.1961 -4.4999 0.0 0
M  V30 27 S 6.0621 -4.9999 0.0 0
M  V30 28 O 5.5621 -5.866 0.0 0
M  V30 29 O 6.5621 -4.1339 0.0 0
M  V30 30 N 6.9282 -5.4999 0.0 0
M  V30 END ATOM
M  V30 BEGIN BOND
M  V30 1 1 1 2
M  V30 2 2 2 3
M  V30 3 1 2 4
M  V30 4 1 3 5
M  V30 5 1 3 6
M  V30 6 2 4 7
M  V30 7 2 5 8
M  V30 8 1 6 9
M  V30 9 1 8 10
M  V30 10 2 9 11
M  V30 11 1 9 12
M  V30 12 1 10 13
M  V30 13 1 11 14
M  V30 14 1 11 15
M  V30 15 2 12 16
M  V30 16 2 13 17
M  V30 17 1 13 18
M  V30 18 1 14 19
M  V30 19 2 14 20
M  V30 20 2 15 21
M  V30 21 1 15 22
M  V30 22 1 17 23
M  V30 23 1 17 24
M  V30 24 2 18 25
M  V30 25 2 23 26
M  V30 26 1 26 27
M  V30 27 2 27 28
M  V30 28 2 27 29
M  V30 29 1 27 30
M  V30 30 1 7 8
M  V30 31 1 16 20
M  V30 32 1 25 26
M  V30 END BOND
M  V30 END CTAB
M  END
>  <Molecule Name>
Compound 414

>  <Molecule Name 2>
Compound 414

>  <Compound ID>
130

>  <Name>
TMX-3010

>  <Uniprot>
P50750

>  <Target>
CDK9

>  <Smiles>
CC1=CC(S(N)(=O)=O)=CC=C1NC1=NC=C(Br)C(NC2=CC=CC(F)=C2C(N)=O)=N1

>  <Kd (nM)>


>  <Assay (Kd)>


>  <Ki (nM)>


>  <Assay (Ki)>


>  <IC50 (nM)>
106

>  <Assay (IC50)>
IC50 of CDK9/cyclin T1 was tested by the Adapta assays

>  <EC50 (nM)>


>  <Assay (EC50)>


>  <Article DOI>
10.1002/anie.202004087

>  <Molecular Weight>
495.334

>  <Exact Mass>
494.0171997

>  <XLogP3>
3.1

>  <Heavy Atom Count>
30

>  <Ring Count>
3

>  <Hydrogen Bond Acceptor Count>
7

>  <Hydrogen Bond Donor Count>
4

>  <Rotatable Bond Count>
6

>  <Topological Polar Surface Area>
153.09

>  <Molecular Formula>
C18H16BrFN6O3S

>  <InChI>
InChI=1S/C18H16BrFN6O3S/c1-9-7-10(30(22,28)29)5-6-13(9)25-18-23-8-11(19)17(26-18)24-14-4-2-3-12(20)15(14)16(21)27/h2-8H,1H3,(H2,21,27)(H2,22,28,29)(H2,23,24,25,26)

>  <InChI Key>
HRRALCQGXWYWOS-UHFFFAOYSA-N

>  <BindingDB>


>  <PubChem>


>  <ChEMBL>


$$$$
130
Actelion Java MolfileCreator 2.0

  0  0  0  0  0  0              0 V3000
M  V30 BEGIN CTAB
M  V30 COUNTS 30 32 0 0 0
M  V30 BEGIN ATOM
M  V30 1 Br 2.598 1.0 0.0 0
M  V30 2 C 2.598 0.0 0.0 0
M  V30 3 C 1.732 -0.5 0.0 0
M  V30 4 C 3.4641 -0.4999 0.0 0
M  V30 5 N 1.732 -1.5 0.0 0
M  V30 6 N 0.866 0.0 0.0 0
M  V30 7 N 3.4641 -1.4999 0.0 0
M  V30 8 C 2.598 -1.9999 0.0 0
M  V30 9 C 0.0 -0.5 0.0 0
M  V30 10 N 2.598 -2.9999 0.0 0
M  V30 11 C -0.866 0.0 0.0 0
M  V30 12 C 0.0 -1.4999 0.0 0
M  V30 13 C 3.4641 -3.4999 0.0 0
M  V30 14 C -1.732 -0.4999 0.0 0
M  V30 15 C -0.866 1.0 0.0 0
M  V30 16 C -0.866 -1.9999 0.0 0
M  V30 17 C 3.4641 -4.4999 0.0 0
M  V30 18 C 4.3301 -2.9999 0.0 0
M  V30 19 F -2.598 0.0 0.0 0
M  V30 20 C -1.732 -1.4999 0.0 0
M  V30 21 O 0.0 1.5 0.0 0
M  V30 22 N -1.732 1.5 0.0 0
M  V30 23 C 4.3301 -4.9999 0.0 0
M  V30 24 C 2.598 -4.9999 0.0 0
M  V30 25 C 5.1961 -3.4999 0.0 0
M  V30 26 C 5.1961 -4.4999 0.0 0
M  V30 27 S 6.0621 -4.9999 0.0 0
M  V30 28 O 5.5621 -5.866 0.0 0
M  V30 29 O 6.5621 -4.1339 0.0 0
M  V30 30 N 6.9282 -5.4999 0.0 0
M  V30 END ATOM
M  V30 BEGIN BOND
M  V30 1 1 1 2
M  V30 2 2 2 3
M  V30 3 1 2 4
M  V30 4 1 3 5
M  V30 5 1 3 6
M  V30 6 2 4 7
M  V30 7 2 5 8
M  V30 8 1 6 9
M  V30 9 1 8 10
M  V30 10 2 9 11
M  V30 11 1 9 12
M  V30 12 1 10 13
M  V30 13 1 11 14
M  V30 14 1 11 15
M  V30 15 2 12 16
M  V30 16 2 13 17
M  V30 17 1 13 18
M  V30 18 1 14 19
M  V30 19 2 14 20
M  V30 20 2 15 21
M  V30 21 1 15 22
M  V30 22 1 17 23
M  V30 23 1 17 24
M  V30 24 2 18 25
M  V30 25 2 23 26
M  V30 26 1 26 27
M  V30 27 2 27 28
M  V30 28 2 27 29
M  V30 29 1 27 30
M  V30 30 1 7 8
M  V30 31 1 16 20
M  V30 32 1 25 26
M  V30 END BOND
M  V30 END CTAB
M  END
>  <Molecule Name>
Compound 415

>  <Molecule Name 2>
Compound 415

>  <Compound ID>
130

>  <Name>
TMX-3010

>  <Uniprot>
Q05397

>  <Target>
FAK

>  <Smiles>
CC1=CC(S(N)(=O)=O)=CC=C1NC1=NC=C(Br)C(NC2=CC=CC(F)=C2C(N)=O)=N1

>  <Kd (nM)>


>  <Assay (Kd)>


>  <Ki (nM)>


>  <Assay (Ki)>


>  <IC50 (nM)>


>  <Assay (IC50)>


>  <EC50 (nM)>


>  <Assay (EC50)>


>  <Article DOI>
10.1016/j.cell.2020.10.038

>  <Molecular Weight>
495.334

>  <Exact Mass>
494.0171997

>  <XLogP3>
3.1

>  <Heavy Atom Count>
30

>  <Ring Count>
3

>  <Hydrogen Bond Acceptor Count>
7

>  <Hydrogen Bond Donor Count>
4

>  <Rotatable Bond Count>
6

>  <Topological Polar Surface Area>
153.09

>  <Molecular Formula>
C18H16BrFN6O3S

>  <InChI>
InChI=1S/C18H16BrFN6O3S/c1-9-7-10(30(22,28)29)5-6-13(9)25-18-23-8-11(19)17(26-18)24-14-4-2-3-12(20)15(14)16(21)27/h2-8H,1H3,(H2,21,27)(H2,22,28,29)(H2,23,24,25,26)

>  <InChI Key>
HRRALCQGXWYWOS-UHFFFAOYSA-N

>  <BindingDB>


>  <PubChem>


>  <ChEMBL>


$$$$
130
Actelion Java MolfileCreator 2.0

  0  0  0  0  0  0              0 V3000
M  V30 BEGIN CTAB
M  V30 COUNTS 30 32 0 0 0
M  V30 BEGIN ATOM
M  V30 1 Br 2.598 1.0 0.0 0
M  V30 2 C 2.598 0.0 0.0 0
M  V30 3 C 1.732 -0.5 0.0 0
M  V30 4 C 3.4641 -0.4999 0.0 0
M  V30 5 N 1.732 -1.5 0.0 0
M  V30 6 N 0.866 0.0 0.0 0
M  V30 7 N 3.4641 -1.4999 0.0 0
M  V30 8 C 2.598 -1.9999 0.0 0
M  V30 9 C 0.0 -0.5 0.0 0
M  V30 10 N 2.598 -2.9999 0.0 0
M  V30 11 C -0.866 0.0 0.0 0
M  V30 12 C 0.0 -1.4999 0.0 0
M  V30 13 C 3.4641 -3.4999 0.0 0
M  V30 14 C -1.732 -0.4999 0.0 0
M  V30 15 C -0.866 1.0 0.0 0
M  V30 16 C -0.866 -1.9999 0.0 0
M  V30 17 C 3.4641 -4.4999 0.0 0
M  V30 18 C 4.3301 -2.9999 0.0 0
M  V30 19 F -2.598 0.0 0.0 0
M  V30 20 C -1.732 -1.4999 0.0 0
M  V30 21 O 0.0 1.5 0.0 0
M  V30 22 N -1.732 1.5 0.0 0
M  V30 23 C 4.3301 -4.9999 0.0 0
M  V30 24 C 2.598 -4.9999 0.0 0
M  V30 25 C 5.1961 -3.4999 0.0 0
M  V30 26 C 5.1961 -4.4999 0.0 0
M  V30 27 S 6.0621 -4.9999 0.0 0
M  V30 28 O 5.5621 -5.866 0.0 0
M  V30 29 O 6.5621 -4.1339 0.0 0
M  V30 30 N 6.9282 -5.4999 0.0 0
M  V30 END ATOM
M  V30 BEGIN BOND
M  V30 1 1 1 2
M  V30 2 2 2 3
M  V30 3 1 2 4
M  V30 4 1 3 5
M  V30 5 1 3 6
M  V30 6 2 4 7
M  V30 7 2 5 8
M  V30 8 1 6 9
M  V30 9 1 8 10
M  V30 10 2 9 11
M  V30 11 1 9 12
M  V30 12 1 10 13
M  V30 13 1 11 14
M  V30 14 1 11 15
M  V30 15 2 12 16
M  V30 16 2 13 17
M  V30 17 1 13 18
M  V30 18 1 14 19
M  V30 19 2 14 20
M  V30 20 2 15 21
M  V30 21 1 15 22
M  V30 22 1 17 23
M  V30 23 1 17 24
M  V30 24 2 18 25
M  V30 25 2 23 26
M  V30 26 1 26 27
M  V30 27 2 27 28
M  V30 28 2 27 29
M  V30 29 1 27 30
M  V30 30 1 7 8
M  V30 31 1 16 20
M  V30 32 1 25 26
M  V30 END BOND
M  V30 END CTAB
M  END
>  <Molecule Name>
Compound 416

>  <Molecule Name 2>
Compound 416

>  <Compound ID>
130

>  <Name>
TMX-3010

>  <Uniprot>
P45983

>  <Target>
MAPK8

>  <Smiles>
CC1=CC(S(N)(=O)=O)=CC=C1NC1=NC=C(Br)C(NC2=CC=CC(F)=C2C(N)=O)=N1

>  <Kd (nM)>


>  <Assay (Kd)>


>  <Ki (nM)>


>  <Assay (Ki)>


>  <IC50 (nM)>


>  <Assay (IC50)>


>  <EC50 (nM)>


>  <Assay (EC50)>


>  <Article DOI>
10.1016/j.cell.2020.10.038

>  <Molecular Weight>
495.334

>  <Exact Mass>
494.0171997

>  <XLogP3>
3.1

>  <Heavy Atom Count>
30

>  <Ring Count>
3

>  <Hydrogen Bond Acceptor Count>
7

>  <Hydrogen Bond Donor Count>
4

>  <Rotatable Bond Count>
6

>  <Topological Polar Surface Area>
153.09

>  <Molecular Formula>
C18H16BrFN6O3S

>  <InChI>
InChI=1S/C18H16BrFN6O3S/c1-9-7-10(30(22,28)29)5-6-13(9)25-18-23-8-11(19)17(26-18)24-14-4-2-3-12(20)15(14)16(21)27/h2-8H,1H3,(H2,21,27)(H2,22,28,29)(H2,23,24,25,26)

>  <InChI Key>
HRRALCQGXWYWOS-UHFFFAOYSA-N

>  <BindingDB>


>  <PubChem>


>  <ChEMBL>


$$$$
130
Actelion Java MolfileCreator 2.0

  0  0  0  0  0  0              0 V3000
M  V30 BEGIN CTAB
M  V30 COUNTS 30 32 0 0 0
M  V30 BEGIN ATOM
M  V30 1 Br 2.598 1.0 0.0 0
M  V30 2 C 2.598 0.0 0.0 0
M  V30 3 C 1.732 -0.5 0.0 0
M  V30 4 C 3.4641 -0.4999 0.0 0
M  V30 5 N 1.732 -1.5 0.0 0
M  V30 6 N 0.866 0.0 0.0 0
M  V30 7 N 3.4641 -1.4999 0.0 0
M  V30 8 C 2.598 -1.9999 0.0 0
M  V30 9 C 0.0 -0.5 0.0 0
M  V30 10 N 2.598 -2.9999 0.0 0
M  V30 11 C -0.866 0.0 0.0 0
M  V30 12 C 0.0 -1.4999 0.0 0
M  V30 13 C 3.4641 -3.4999 0.0 0
M  V30 14 C -1.732 -0.4999 0.0 0
M  V30 15 C -0.866 1.0 0.0 0
M  V30 16 C -0.866 -1.9999 0.0 0
M  V30 17 C 3.4641 -4.4999 0.0 0
M  V30 18 C 4.3301 -2.9999 0.0 0
M  V30 19 F -2.598 0.0 0.0 0
M  V30 20 C -1.732 -1.4999 0.0 0
M  V30 21 O 0.0 1.5 0.0 0
M  V30 22 N -1.732 1.5 0.0 0
M  V30 23 C 4.3301 -4.9999 0.0 0
M  V30 24 C 2.598 -4.9999 0.0 0
M  V30 25 C 5.1961 -3.4999 0.0 0
M  V30 26 C 5.1961 -4.4999 0.0 0
M  V30 27 S 6.0621 -4.9999 0.0 0
M  V30 28 O 5.5621 -5.866 0.0 0
M  V30 29 O 6.5621 -4.1339 0.0 0
M  V30 30 N 6.9282 -5.4999 0.0 0
M  V30 END ATOM
M  V30 BEGIN BOND
M  V30 1 1 1 2
M  V30 2 2 2 3
M  V30 3 1 2 4
M  V30 4 1 3 5
M  V30 5 1 3 6
M  V30 6 2 4 7
M  V30 7 2 5 8
M  V30 8 1 6 9
M  V30 9 1 8 10
M  V30 10 2 9 11
M  V30 11 1 9 12
M  V30 12 1 10 13
M  V30 13 1 11 14
M  V30 14 1 11 15
M  V30 15 2 12 16
M  V30 16 2 13 17
M  V30 17 1 13 18
M  V30 18 1 14 19
M  V30 19 2 14 20
M  V30 20 2 15 21
M  V30 21 1 15 22
M  V30 22 1 17 23
M  V30 23 1 17 24
M  V30 24 2 18 25
M  V30 25 2 23 26
M  V30 26 1 26 27
M  V30 27 2 27 28
M  V30 28 2 27 29
M  V30 29 1 27 30
M  V30 30 1 7 8
M  V30 31 1 16 20
M  V30 32 1 25 26
M  V30 END BOND
M  V30 END CTAB
M  END
>  <Molecule Name>
Compound 417

>  <Molecule Name 2>
Compound 417

>  <Compound ID>
130

>  <Name>
TMX-3010

>  <Uniprot>
P45984

>  <Target>
MAPK9

>  <Smiles>
CC1=CC(S(N)(=O)=O)=CC=C1NC1=NC=C(Br)C(NC2=CC=CC(F)=C2C(N)=O)=N1

>  <Kd (nM)>


>  <Assay (Kd)>


>  <Ki (nM)>


>  <Assay (Ki)>


>  <IC50 (nM)>


>  <Assay (IC50)>


>  <EC50 (nM)>


>  <Assay (EC50)>


>  <Article DOI>
10.1016/j.cell.2020.10.038

>  <Molecular Weight>
495.334

>  <Exact Mass>
494.0171997

>  <XLogP3>
3.1

>  <Heavy Atom Count>
30

>  <Ring Count>
3

>  <Hydrogen Bond Acceptor Count>
7

>  <Hydrogen Bond Donor Count>
4

>  <Rotatable Bond Count>
6

>  <Topological Polar Surface Area>
153.09

>  <Molecular Formula>
C18H16BrFN6O3S

>  <InChI>
InChI=1S/C18H16BrFN6O3S/c1-9-7-10(30(22,28)29)5-6-13(9)25-18-23-8-11(19)17(26-18)24-14-4-2-3-12(20)15(14)16(21)27/h2-8H,1H3,(H2,21,27)(H2,22,28,29)(H2,23,24,25,26)

>  <InChI Key>
HRRALCQGXWYWOS-UHFFFAOYSA-N

>  <BindingDB>


>  <PubChem>


>  <ChEMBL>


$$$$
130
Actelion Java MolfileCreator 2.0

  0  0  0  0  0  0              0 V3000
M  V30 BEGIN CTAB
M  V30 COUNTS 30 32 0 0 0
M  V30 BEGIN ATOM
M  V30 1 Br 2.598 1.0 0.0 0
M  V30 2 C 2.598 0.0 0.0 0
M  V30 3 C 1.732 -0.5 0.0 0
M  V30 4 C 3.4641 -0.4999 0.0 0
M  V30 5 N 1.732 -1.5 0.0 0
M  V30 6 N 0.866 0.0 0.0 0
M  V30 7 N 3.4641 -1.4999 0.0 0
M  V30 8 C 2.598 -1.9999 0.0 0
M  V30 9 C 0.0 -0.5 0.0 0
M  V30 10 N 2.598 -2.9999 0.0 0
M  V30 11 C -0.866 0.0 0.0 0
M  V30 12 C 0.0 -1.4999 0.0 0
M  V30 13 C 3.4641 -3.4999 0.0 0
M  V30 14 C -1.732 -0.4999 0.0 0
M  V30 15 C -0.866 1.0 0.0 0
M  V30 16 C -0.866 -1.9999 0.0 0
M  V30 17 C 3.4641 -4.4999 0.0 0
M  V30 18 C 4.3301 -2.9999 0.0 0
M  V30 19 F -2.598 0.0 0.0 0
M  V30 20 C -1.732 -1.4999 0.0 0
M  V30 21 O 0.0 1.5 0.0 0
M  V30 22 N -1.732 1.5 0.0 0
M  V30 23 C 4.3301 -4.9999 0.0 0
M  V30 24 C 2.598 -4.9999 0.0 0
M  V30 25 C 5.1961 -3.4999 0.0 0
M  V30 26 C 5.1961 -4.4999 0.0 0
M  V30 27 S 6.0621 -4.9999 0.0 0
M  V30 28 O 5.5621 -5.866 0.0 0
M  V30 29 O 6.5621 -4.1339 0.0 0
M  V30 30 N 6.9282 -5.4999 0.0 0
M  V30 END ATOM
M  V30 BEGIN BOND
M  V30 1 1 1 2
M  V30 2 2 2 3
M  V30 3 1 2 4
M  V30 4 1 3 5
M  V30 5 1 3 6
M  V30 6 2 4 7
M  V30 7 2 5 8
M  V30 8 1 6 9
M  V30 9 1 8 10
M  V30 10 2 9 11
M  V30 11 1 9 12
M  V30 12 1 10 13
M  V30 13 1 11 14
M  V30 14 1 11 15
M  V30 15 2 12 16
M  V30 16 2 13 17
M  V30 17 1 13 18
M  V30 18 1 14 19
M  V30 19 2 14 20
M  V30 20 2 15 21
M  V30 21 1 15 22
M  V30 22 1 17 23
M  V30 23 1 17 24
M  V30 24 2 18 25
M  V30 25 2 23 26
M  V30 26 1 26 27
M  V30 27 2 27 28
M  V30 28 2 27 29
M  V30 29 1 27 30
M  V30 30 1 7 8
M  V30 31 1 16 20
M  V30 32 1 25 26
M  V30 END BOND
M  V30 END CTAB
M  END
>  <Molecule Name>
Compound 418

>  <Molecule Name 2>
Compound 418

>  <Compound ID>
130

>  <Name>
TMX-3010

>  <Uniprot>
Q15418

>  <Target>
RPS6KA1

>  <Smiles>
CC1=CC(S(N)(=O)=O)=CC=C1NC1=NC=C(Br)C(NC2=CC=CC(F)=C2C(N)=O)=N1

>  <Kd (nM)>


>  <Assay (Kd)>


>  <Ki (nM)>


>  <Assay (Ki)>


>  <IC50 (nM)>


>  <Assay (IC50)>


>  <EC50 (nM)>


>  <Assay (EC50)>


>  <Article DOI>
10.1016/j.cell.2020.10.038

>  <Molecular Weight>
495.334

>  <Exact Mass>
494.0171997

>  <XLogP3>
3.1

>  <Heavy Atom Count>
30

>  <Ring Count>
3

>  <Hydrogen Bond Acceptor Count>
7

>  <Hydrogen Bond Donor Count>
4

>  <Rotatable Bond Count>
6

>  <Topological Polar Surface Area>
153.09

>  <Molecular Formula>
C18H16BrFN6O3S

>  <InChI>
InChI=1S/C18H16BrFN6O3S/c1-9-7-10(30(22,28)29)5-6-13(9)25-18-23-8-11(19)17(26-18)24-14-4-2-3-12(20)15(14)16(21)27/h2-8H,1H3,(H2,21,27)(H2,22,28,29)(H2,23,24,25,26)

>  <InChI Key>
HRRALCQGXWYWOS-UHFFFAOYSA-N

>  <BindingDB>


>  <PubChem>


>  <ChEMBL>


$$$$
130
Actelion Java MolfileCreator 2.0

  0  0  0  0  0  0              0 V3000
M  V30 BEGIN CTAB
M  V30 COUNTS 30 32 0 0 0
M  V30 BEGIN ATOM
M  V30 1 Br 2.598 1.0 0.0 0
M  V30 2 C 2.598 0.0 0.0 0
M  V30 3 C 1.732 -0.5 0.0 0
M  V30 4 C 3.4641 -0.4999 0.0 0
M  V30 5 N 1.732 -1.5 0.0 0
M  V30 6 N 0.866 0.0 0.0 0
M  V30 7 N 3.4641 -1.4999 0.0 0
M  V30 8 C 2.598 -1.9999 0.0 0
M  V30 9 C 0.0 -0.5 0.0 0
M  V30 10 N 2.598 -2.9999 0.0 0
M  V30 11 C -0.866 0.0 0.0 0
M  V30 12 C 0.0 -1.4999 0.0 0
M  V30 13 C 3.4641 -3.4999 0.0 0
M  V30 14 C -1.732 -0.4999 0.0 0
M  V30 15 C -0.866 1.0 0.0 0
M  V30 16 C -0.866 -1.9999 0.0 0
M  V30 17 C 3.4641 -4.4999 0.0 0
M  V30 18 C 4.3301 -2.9999 0.0 0
M  V30 19 F -2.598 0.0 0.0 0
M  V30 20 C -1.732 -1.4999 0.0 0
M  V30 21 O 0.0 1.5 0.0 0
M  V30 22 N -1.732 1.5 0.0 0
M  V30 23 C 4.3301 -4.9999 0.0 0
M  V30 24 C 2.598 -4.9999 0.0 0
M  V30 25 C 5.1961 -3.4999 0.0 0
M  V30 26 C 5.1961 -4.4999 0.0 0
M  V30 27 S 6.0621 -4.9999 0.0 0
M  V30 28 O 5.5621 -5.866 0.0 0
M  V30 29 O 6.5621 -4.1339 0.0 0
M  V30 30 N 6.9282 -5.4999 0.0 0
M  V30 END ATOM
M  V30 BEGIN BOND
M  V30 1 1 1 2
M  V30 2 2 2 3
M  V30 3 1 2 4
M  V30 4 1 3 5
M  V30 5 1 3 6
M  V30 6 2 4 7
M  V30 7 2 5 8
M  V30 8 1 6 9
M  V30 9 1 8 10
M  V30 10 2 9 11
M  V30 11 1 9 12
M  V30 12 1 10 13
M  V30 13 1 11 14
M  V30 14 1 11 15
M  V30 15 2 12 16
M  V30 16 2 13 17
M  V30 17 1 13 18
M  V30 18 1 14 19
M  V30 19 2 14 20
M  V30 20 2 15 21
M  V30 21 1 15 22
M  V30 22 1 17 23
M  V30 23 1 17 24
M  V30 24 2 18 25
M  V30 25 2 23 26
M  V30 26 1 26 27
M  V30 27 2 27 28
M  V30 28 2 27 29
M  V30 29 1 27 30
M  V30 30 1 7 8
M  V30 31 1 16 20
M  V30 32 1 25 26
M  V30 END BOND
M  V30 END CTAB
M  END
>  <Molecule Name>
Compound 419

>  <Molecule Name 2>
Compound 419

>  <Compound ID>
130

>  <Name>
TMX-3010

>  <Uniprot>
P51812

>  <Target>
RPS6KA3

>  <Smiles>
CC1=CC(S(N)(=O)=O)=CC=C1NC1=NC=C(Br)C(NC2=CC=CC(F)=C2C(N)=O)=N1

>  <Kd (nM)>


>  <Assay (Kd)>


>  <Ki (nM)>


>  <Assay (Ki)>


>  <IC50 (nM)>


>  <Assay (IC50)>


>  <EC50 (nM)>


>  <Assay (EC50)>


>  <Article DOI>
10.1016/j.cell.2020.10.038

>  <Molecular Weight>
495.334

>  <Exact Mass>
494.0171997

>  <XLogP3>
3.1

>  <Heavy Atom Count>
30

>  <Ring Count>
3

>  <Hydrogen Bond Acceptor Count>
7

>  <Hydrogen Bond Donor Count>
4

>  <Rotatable Bond Count>
6

>  <Topological Polar Surface Area>
153.09

>  <Molecular Formula>
C18H16BrFN6O3S

>  <InChI>
InChI=1S/C18H16BrFN6O3S/c1-9-7-10(30(22,28)29)5-6-13(9)25-18-23-8-11(19)17(26-18)24-14-4-2-3-12(20)15(14)16(21)27/h2-8H,1H3,(H2,21,27)(H2,22,28,29)(H2,23,24,25,26)

>  <InChI Key>
HRRALCQGXWYWOS-UHFFFAOYSA-N

>  <BindingDB>


>  <PubChem>


>  <ChEMBL>


$$$$
130
Actelion Java MolfileCreator 2.0

  0  0  0  0  0  0              0 V3000
M  V30 BEGIN CTAB
M  V30 COUNTS 30 32 0 0 0
M  V30 BEGIN ATOM
M  V30 1 Br 2.598 1.0 0.0 0
M  V30 2 C 2.598 0.0 0.0 0
M  V30 3 C 1.732 -0.5 0.0 0
M  V30 4 C 3.4641 -0.4999 0.0 0
M  V30 5 N 1.732 -1.5 0.0 0
M  V30 6 N 0.866 0.0 0.0 0
M  V30 7 N 3.4641 -1.4999 0.0 0
M  V30 8 C 2.598 -1.9999 0.0 0
M  V30 9 C 0.0 -0.5 0.0 0
M  V30 10 N 2.598 -2.9999 0.0 0
M  V30 11 C -0.866 0.0 0.0 0
M  V30 12 C 0.0 -1.4999 0.0 0
M  V30 13 C 3.4641 -3.4999 0.0 0
M  V30 14 C -1.732 -0.4999 0.0 0
M  V30 15 C -0.866 1.0 0.0 0
M  V30 16 C -0.866 -1.9999 0.0 0
M  V30 17 C 3.4641 -4.4999 0.0 0
M  V30 18 C 4.3301 -2.9999 0.0 0
M  V30 19 F -2.598 0.0 0.0 0
M  V30 20 C -1.732 -1.4999 0.0 0
M  V30 21 O 0.0 1.5 0.0 0
M  V30 22 N -1.732 1.5 0.0 0
M  V30 23 C 4.3301 -4.9999 0.0 0
M  V30 24 C 2.598 -4.9999 0.0 0
M  V30 25 C 5.1961 -3.4999 0.0 0
M  V30 26 C 5.1961 -4.4999 0.0 0
M  V30 27 S 6.0621 -4.9999 0.0 0
M  V30 28 O 5.5621 -5.866 0.0 0
M  V30 29 O 6.5621 -4.1339 0.0 0
M  V30 30 N 6.9282 -5.4999 0.0 0
M  V30 END ATOM
M  V30 BEGIN BOND
M  V30 1 1 1 2
M  V30 2 2 2 3
M  V30 3 1 2 4
M  V30 4 1 3 5
M  V30 5 1 3 6
M  V30 6 2 4 7
M  V30 7 2 5 8
M  V30 8 1 6 9
M  V30 9 1 8 10
M  V30 10 2 9 11
M  V30 11 1 9 12
M  V30 12 1 10 13
M  V30 13 1 11 14
M  V30 14 1 11 15
M  V30 15 2 12 16
M  V30 16 2 13 17
M  V30 17 1 13 18
M  V30 18 1 14 19
M  V30 19 2 14 20
M  V30 20 2 15 21
M  V30 21 1 15 22
M  V30 22 1 17 23
M  V30 23 1 17 24
M  V30 24 2 18 25
M  V30 25 2 23 26
M  V30 26 1 26 27
M  V30 27 2 27 28
M  V30 28 2 27 29
M  V30 29 1 27 30
M  V30 30 1 7 8
M  V30 31 1 16 20
M  V30 32 1 25 26
M  V30 END BOND
M  V30 END CTAB
M  END
>  <Molecule Name>
Compound 420

>  <Molecule Name 2>
Compound 420

>  <Compound ID>
130

>  <Name>
TMX-3010

>  <Uniprot>
Q9BYT3

>  <Target>
STK33

>  <Smiles>
CC1=CC(S(N)(=O)=O)=CC=C1NC1=NC=C(Br)C(NC2=CC=CC(F)=C2C(N)=O)=N1

>  <Kd (nM)>


>  <Assay (Kd)>


>  <Ki (nM)>


>  <Assay (Ki)>


>  <IC50 (nM)>


>  <Assay (IC50)>


>  <EC50 (nM)>


>  <Assay (EC50)>


>  <Article DOI>
10.1016/j.cell.2020.10.038

>  <Molecular Weight>
495.334

>  <Exact Mass>
494.0171997

>  <XLogP3>
3.1

>  <Heavy Atom Count>
30

>  <Ring Count>
3

>  <Hydrogen Bond Acceptor Count>
7

>  <Hydrogen Bond Donor Count>
4

>  <Rotatable Bond Count>
6

>  <Topological Polar Surface Area>
153.09

>  <Molecular Formula>
C18H16BrFN6O3S

>  <InChI>
InChI=1S/C18H16BrFN6O3S/c1-9-7-10(30(22,28)29)5-6-13(9)25-18-23-8-11(19)17(26-18)24-14-4-2-3-12(20)15(14)16(21)27/h2-8H,1H3,(H2,21,27)(H2,22,28,29)(H2,23,24,25,26)

>  <InChI Key>
HRRALCQGXWYWOS-UHFFFAOYSA-N

>  <BindingDB>


>  <PubChem>


>  <ChEMBL>


$$$$
130
Actelion Java MolfileCreator 2.0

  0  0  0  0  0  0              0 V3000
M  V30 BEGIN CTAB
M  V30 COUNTS 30 32 0 0 0
M  V30 BEGIN ATOM
M  V30 1 Br 2.598 1.0 0.0 0
M  V30 2 C 2.598 0.0 0.0 0
M  V30 3 C 1.732 -0.5 0.0 0
M  V30 4 C 3.4641 -0.4999 0.0 0
M  V30 5 N 1.732 -1.5 0.0 0
M  V30 6 N 0.866 0.0 0.0 0
M  V30 7 N 3.4641 -1.4999 0.0 0
M  V30 8 C 2.598 -1.9999 0.0 0
M  V30 9 C 0.0 -0.5 0.0 0
M  V30 10 N 2.598 -2.9999 0.0 0
M  V30 11 C -0.866 0.0 0.0 0
M  V30 12 C 0.0 -1.4999 0.0 0
M  V30 13 C 3.4641 -3.4999 0.0 0
M  V30 14 C -1.732 -0.4999 0.0 0
M  V30 15 C -0.866 1.0 0.0 0
M  V30 16 C -0.866 -1.9999 0.0 0
M  V30 17 C 3.4641 -4.4999 0.0 0
M  V30 18 C 4.3301 -2.9999 0.0 0
M  V30 19 F -2.598 0.0 0.0 0
M  V30 20 C -1.732 -1.4999 0.0 0
M  V30 21 O 0.0 1.5 0.0 0
M  V30 22 N -1.732 1.5 0.0 0
M  V30 23 C 4.3301 -4.9999 0.0 0
M  V30 24 C 2.598 -4.9999 0.0 0
M  V30 25 C 5.1961 -3.4999 0.0 0
M  V30 26 C 5.1961 -4.4999 0.0 0
M  V30 27 S 6.0621 -4.9999 0.0 0
M  V30 28 O 5.5621 -5.866 0.0 0
M  V30 29 O 6.5621 -4.1339 0.0 0
M  V30 30 N 6.9282 -5.4999 0.0 0
M  V30 END ATOM
M  V30 BEGIN BOND
M  V30 1 1 1 2
M  V30 2 2 2 3
M  V30 3 1 2 4
M  V30 4 1 3 5
M  V30 5 1 3 6
M  V30 6 2 4 7
M  V30 7 2 5 8
M  V30 8 1 6 9
M  V30 9 1 8 10
M  V30 10 2 9 11
M  V30 11 1 9 12
M  V30 12 1 10 13
M  V30 13 1 11 14
M  V30 14 1 11 15
M  V30 15 2 12 16
M  V30 16 2 13 17
M  V30 17 1 13 18
M  V30 18 1 14 19
M  V30 19 2 14 20
M  V30 20 2 15 21
M  V30 21 1 15 22
M  V30 22 1 17 23
M  V30 23 1 17 24
M  V30 24 2 18 25
M  V30 25 2 23 26
M  V30 26 1 26 27
M  V30 27 2 27 28
M  V30 28 2 27 29
M  V30 29 1 27 30
M  V30 30 1 7 8
M  V30 31 1 16 20
M  V30 32 1 25 26
M  V30 END BOND
M  V30 END CTAB
M  END
>  <Molecule Name>
Compound 421

>  <Molecule Name 2>
Compound 421

>  <Compound ID>
130

>  <Name>
TMX-3010

>  <Uniprot>
P33981

>  <Target>
TTK

>  <Smiles>
CC1=CC(S(N)(=O)=O)=CC=C1NC1=NC=C(Br)C(NC2=CC=CC(F)=C2C(N)=O)=N1

>  <Kd (nM)>


>  <Assay (Kd)>


>  <Ki (nM)>


>  <Assay (Ki)>


>  <IC50 (nM)>


>  <Assay (IC50)>


>  <EC50 (nM)>


>  <Assay (EC50)>


>  <Article DOI>
10.1016/j.cell.2020.10.038

>  <Molecular Weight>
495.334

>  <Exact Mass>
494.0171997

>  <XLogP3>
3.1

>  <Heavy Atom Count>
30

>  <Ring Count>
3

>  <Hydrogen Bond Acceptor Count>
7

>  <Hydrogen Bond Donor Count>
4

>  <Rotatable Bond Count>
6

>  <Topological Polar Surface Area>
153.09

>  <Molecular Formula>
C18H16BrFN6O3S

>  <InChI>
InChI=1S/C18H16BrFN6O3S/c1-9-7-10(30(22,28)29)5-6-13(9)25-18-23-8-11(19)17(26-18)24-14-4-2-3-12(20)15(14)16(21)27/h2-8H,1H3,(H2,21,27)(H2,22,28,29)(H2,23,24,25,26)

>  <InChI Key>
HRRALCQGXWYWOS-UHFFFAOYSA-N

>  <BindingDB>


>  <PubChem>


>  <ChEMBL>


$$$$
131
Actelion Java MolfileCreator 2.0

  0  0  0  0  0  0              0 V3000
M  V30 BEGIN CTAB
M  V30 COUNTS 30 32 0 0 0
M  V30 BEGIN ATOM
M  V30 1 Br 2.598 1.0 0.0 0
M  V30 2 C 2.598 0.0 0.0 0
M  V30 3 C 1.732 -0.5 0.0 0
M  V30 4 C 3.4641 -0.4999 0.0 0
M  V30 5 N 1.732 -1.5 0.0 0
M  V30 6 N 0.866 0.0 0.0 0
M  V30 7 N 3.4641 -1.4999 0.0 0
M  V30 8 C 2.598 -1.9999 0.0 0
M  V30 9 C 0.0 -0.5 0.0 0
M  V30 10 N 2.598 -2.9999 0.0 0
M  V30 11 C -0.866 0.0 0.0 0
M  V30 12 C 0.0 -1.4999 0.0 0
M  V30 13 C 3.4641 -3.4999 0.0 0
M  V30 14 C -1.732 -0.4999 0.0 0
M  V30 15 C -0.866 1.0 0.0 0
M  V30 16 C -0.866 -1.9999 0.0 0
M  V30 17 C 3.4641 -4.4999 0.0 0
M  V30 18 C 4.3301 -2.9999 0.0 0
M  V30 19 F -2.598 0.0 0.0 0
M  V30 20 C -1.732 -1.4999 0.0 0
M  V30 21 O 0.0 1.5 0.0 0
M  V30 22 N -1.732 1.5 0.0 0
M  V30 23 C 4.3301 -4.9999 0.0 0
M  V30 24 C 5.1961 -3.4999 0.0 0
M  V30 25 C 5.1961 -4.4999 0.0 0
M  V30 26 C 4.3301 -5.9999 0.0 0
M  V30 27 S 6.0621 -4.9999 0.0 0
M  V30 28 O 5.5621 -5.866 0.0 0
M  V30 29 O 6.5621 -4.1339 0.0 0
M  V30 30 N 6.9282 -5.4999 0.0 0
M  V30 END ATOM
M  V30 BEGIN BOND
M  V30 1 1 1 2
M  V30 2 2 2 3
M  V30 3 1 2 4
M  V30 4 1 3 5
M  V30 5 1 3 6
M  V30 6 2 4 7
M  V30 7 2 5 8
M  V30 8 1 6 9
M  V30 9 1 8 10
M  V30 10 2 9 11
M  V30 11 1 9 12
M  V30 12 1 10 13
M  V30 13 1 11 14
M  V30 14 1 11 15
M  V30 15 2 12 16
M  V30 16 2 13 17
M  V30 17 1 13 18
M  V30 18 1 14 19
M  V30 19 2 14 20
M  V30 20 2 15 21
M  V30 21 1 15 22
M  V30 22 1 17 23
M  V30 23 2 18 24
M  V30 24 2 23 25
M  V30 25 1 23 26
M  V30 26 1 25 27
M  V30 27 2 27 28
M  V30 28 2 27 29
M  V30 29 1 27 30
M  V30 30 1 7 8
M  V30 31 1 16 20
M  V30 32 1 24 25
M  V30 END BOND
M  V30 END CTAB
M  END
>  <Molecule Name>
Compound 422

>  <Molecule Name 2>
Compound 422

>  <Compound ID>
131

>  <Name>
TMX-3012

>  <Uniprot>
Q2M2I8

>  <Target>
AAK1

>  <Smiles>
CC1=CC(NC2=NC=C(Br)C(NC3=CC=CC(F)=C3C(N)=O)=N2)=CC=C1S(N)(=O)=O

>  <Kd (nM)>


>  <Assay (Kd)>


>  <Ki (nM)>


>  <Assay (Ki)>


>  <IC50 (nM)>


>  <Assay (IC50)>


>  <EC50 (nM)>


>  <Assay (EC50)>


>  <Article DOI>
10.1016/j.cell.2020.10.038

>  <Molecular Weight>
495.334

>  <Exact Mass>
494.0171997

>  <XLogP3>
3.1

>  <Heavy Atom Count>
30

>  <Ring Count>
3

>  <Hydrogen Bond Acceptor Count>
7

>  <Hydrogen Bond Donor Count>
4

>  <Rotatable Bond Count>
6

>  <Topological Polar Surface Area>
153.09

>  <Molecular Formula>
C18H16BrFN6O3S

>  <InChI>
InChI=1S/C18H16BrFN6O3S/c1-9-7-10(5-6-14(9)30(22,28)29)24-18-23-8-11(19)17(26-18)25-13-4-2-3-12(20)15(13)16(21)27/h2-8H,1H3,(H2,21,27)(H2,22,28,29)(H2,23,24,25,26)

>  <InChI Key>
IDMHFFLVANCQJA-UHFFFAOYSA-N

>  <BindingDB>


>  <PubChem>


>  <ChEMBL>


$$$$
131
Actelion Java MolfileCreator 2.0

  0  0  0  0  0  0              0 V3000
M  V30 BEGIN CTAB
M  V30 COUNTS 30 32 0 0 0
M  V30 BEGIN ATOM
M  V30 1 Br 2.598 1.0 0.0 0
M  V30 2 C 2.598 0.0 0.0 0
M  V30 3 C 1.732 -0.5 0.0 0
M  V30 4 C 3.4641 -0.4999 0.0 0
M  V30 5 N 1.732 -1.5 0.0 0
M  V30 6 N 0.866 0.0 0.0 0
M  V30 7 N 3.4641 -1.4999 0.0 0
M  V30 8 C 2.598 -1.9999 0.0 0
M  V30 9 C 0.0 -0.5 0.0 0
M  V30 10 N 2.598 -2.9999 0.0 0
M  V30 11 C -0.866 0.0 0.0 0
M  V30 12 C 0.0 -1.4999 0.0 0
M  V30 13 C 3.4641 -3.4999 0.0 0
M  V30 14 C -1.732 -0.4999 0.0 0
M  V30 15 C -0.866 1.0 0.0 0
M  V30 16 C -0.866 -1.9999 0.0 0
M  V30 17 C 3.4641 -4.4999 0.0 0
M  V30 18 C 4.3301 -2.9999 0.0 0
M  V30 19 F -2.598 0.0 0.0 0
M  V30 20 C -1.732 -1.4999 0.0 0
M  V30 21 O 0.0 1.5 0.0 0
M  V30 22 N -1.732 1.5 0.0 0
M  V30 23 C 4.3301 -4.9999 0.0 0
M  V30 24 C 5.1961 -3.4999 0.0 0
M  V30 25 C 5.1961 -4.4999 0.0 0
M  V30 26 C 4.3301 -5.9999 0.0 0
M  V30 27 S 6.0621 -4.9999 0.0 0
M  V30 28 O 5.5621 -5.866 0.0 0
M  V30 29 O 6.5621 -4.1339 0.0 0
M  V30 30 N 6.9282 -5.4999 0.0 0
M  V30 END ATOM
M  V30 BEGIN BOND
M  V30 1 1 1 2
M  V30 2 2 2 3
M  V30 3 1 2 4
M  V30 4 1 3 5
M  V30 5 1 3 6
M  V30 6 2 4 7
M  V30 7 2 5 8
M  V30 8 1 6 9
M  V30 9 1 8 10
M  V30 10 2 9 11
M  V30 11 1 9 12
M  V30 12 1 10 13
M  V30 13 1 11 14
M  V30 14 1 11 15
M  V30 15 2 12 16
M  V30 16 2 13 17
M  V30 17 1 13 18
M  V30 18 1 14 19
M  V30 19 2 14 20
M  V30 20 2 15 21
M  V30 21 1 15 22
M  V30 22 1 17 23
M  V30 23 2 18 24
M  V30 24 2 23 25
M  V30 25 1 23 26
M  V30 26 1 25 27
M  V30 27 2 27 28
M  V30 28 2 27 29
M  V30 29 1 27 30
M  V30 30 1 7 8
M  V30 31 1 16 20
M  V30 32 1 24 25
M  V30 END BOND
M  V30 END CTAB
M  END
>  <Molecule Name>
Compound 423

>  <Molecule Name 2>
Compound 423

>  <Compound ID>
131

>  <Name>
TMX-3012

>  <Uniprot>
O14965

>  <Target>
AURKA

>  <Smiles>
CC1=CC(NC2=NC=C(Br)C(NC3=CC=CC(F)=C3C(N)=O)=N2)=CC=C1S(N)(=O)=O

>  <Kd (nM)>


>  <Assay (Kd)>


>  <Ki (nM)>


>  <Assay (Ki)>


>  <IC50 (nM)>


>  <Assay (IC50)>


>  <EC50 (nM)>


>  <Assay (EC50)>


>  <Article DOI>
10.1016/j.cell.2020.10.038

>  <Molecular Weight>
495.334

>  <Exact Mass>
494.0171997

>  <XLogP3>
3.1

>  <Heavy Atom Count>
30

>  <Ring Count>
3

>  <Hydrogen Bond Acceptor Count>
7

>  <Hydrogen Bond Donor Count>
4

>  <Rotatable Bond Count>
6

>  <Topological Polar Surface Area>
153.09

>  <Molecular Formula>
C18H16BrFN6O3S

>  <InChI>
InChI=1S/C18H16BrFN6O3S/c1-9-7-10(5-6-14(9)30(22,28)29)24-18-23-8-11(19)17(26-18)25-13-4-2-3-12(20)15(13)16(21)27/h2-8H,1H3,(H2,21,27)(H2,22,28,29)(H2,23,24,25,26)

>  <InChI Key>
IDMHFFLVANCQJA-UHFFFAOYSA-N

>  <BindingDB>


>  <PubChem>


>  <ChEMBL>


$$$$
131
Actelion Java MolfileCreator 2.0

  0  0  0  0  0  0              0 V3000
M  V30 BEGIN CTAB
M  V30 COUNTS 30 32 0 0 0
M  V30 BEGIN ATOM
M  V30 1 Br 2.598 1.0 0.0 0
M  V30 2 C 2.598 0.0 0.0 0
M  V30 3 C 1.732 -0.5 0.0 0
M  V30 4 C 3.4641 -0.4999 0.0 0
M  V30 5 N 1.732 -1.5 0.0 0
M  V30 6 N 0.866 0.0 0.0 0
M  V30 7 N 3.4641 -1.4999 0.0 0
M  V30 8 C 2.598 -1.9999 0.0 0
M  V30 9 C 0.0 -0.5 0.0 0
M  V30 10 N 2.598 -2.9999 0.0 0
M  V30 11 C -0.866 0.0 0.0 0
M  V30 12 C 0.0 -1.4999 0.0 0
M  V30 13 C 3.4641 -3.4999 0.0 0
M  V30 14 C -1.732 -0.4999 0.0 0
M  V30 15 C -0.866 1.0 0.0 0
M  V30 16 C -0.866 -1.9999 0.0 0
M  V30 17 C 3.4641 -4.4999 0.0 0
M  V30 18 C 4.3301 -2.9999 0.0 0
M  V30 19 F -2.598 0.0 0.0 0
M  V30 20 C -1.732 -1.4999 0.0 0
M  V30 21 O 0.0 1.5 0.0 0
M  V30 22 N -1.732 1.5 0.0 0
M  V30 23 C 4.3301 -4.9999 0.0 0
M  V30 24 C 5.1961 -3.4999 0.0 0
M  V30 25 C 5.1961 -4.4999 0.0 0
M  V30 26 C 4.3301 -5.9999 0.0 0
M  V30 27 S 6.0621 -4.9999 0.0 0
M  V30 28 O 5.5621 -5.866 0.0 0
M  V30 29 O 6.5621 -4.1339 0.0 0
M  V30 30 N 6.9282 -5.4999 0.0 0
M  V30 END ATOM
M  V30 BEGIN BOND
M  V30 1 1 1 2
M  V30 2 2 2 3
M  V30 3 1 2 4
M  V30 4 1 3 5
M  V30 5 1 3 6
M  V30 6 2 4 7
M  V30 7 2 5 8
M  V30 8 1 6 9
M  V30 9 1 8 10
M  V30 10 2 9 11
M  V30 11 1 9 12
M  V30 12 1 10 13
M  V30 13 1 11 14
M  V30 14 1 11 15
M  V30 15 2 12 16
M  V30 16 2 13 17
M  V30 17 1 13 18
M  V30 18 1 14 19
M  V30 19 2 14 20
M  V30 20 2 15 21
M  V30 21 1 15 22
M  V30 22 1 17 23
M  V30 23 2 18 24
M  V30 24 2 23 25
M  V30 25 1 23 26
M  V30 26 1 25 27
M  V30 27 2 27 28
M  V30 28 2 27 29
M  V30 29 1 27 30
M  V30 30 1 7 8
M  V30 31 1 16 20
M  V30 32 1 24 25
M  V30 END BOND
M  V30 END CTAB
M  END
>  <Molecule Name>
Compound 424

>  <Molecule Name 2>
Compound 424

>  <Compound ID>
131

>  <Name>
TMX-3012

>  <Uniprot>
Q96GD4

>  <Target>
AURKB

>  <Smiles>
CC1=CC(NC2=NC=C(Br)C(NC3=CC=CC(F)=C3C(N)=O)=N2)=CC=C1S(N)(=O)=O

>  <Kd (nM)>


>  <Assay (Kd)>


>  <Ki (nM)>


>  <Assay (Ki)>


>  <IC50 (nM)>


>  <Assay (IC50)>


>  <EC50 (nM)>


>  <Assay (EC50)>


>  <Article DOI>
10.1016/j.cell.2020.10.038

>  <Molecular Weight>
495.334

>  <Exact Mass>
494.0171997

>  <XLogP3>
3.1

>  <Heavy Atom Count>
30

>  <Ring Count>
3

>  <Hydrogen Bond Acceptor Count>
7

>  <Hydrogen Bond Donor Count>
4

>  <Rotatable Bond Count>
6

>  <Topological Polar Surface Area>
153.09

>  <Molecular Formula>
C18H16BrFN6O3S

>  <InChI>
InChI=1S/C18H16BrFN6O3S/c1-9-7-10(5-6-14(9)30(22,28)29)24-18-23-8-11(19)17(26-18)25-13-4-2-3-12(20)15(13)16(21)27/h2-8H,1H3,(H2,21,27)(H2,22,28,29)(H2,23,24,25,26)

>  <InChI Key>
IDMHFFLVANCQJA-UHFFFAOYSA-N

>  <BindingDB>


>  <PubChem>


>  <ChEMBL>


$$$$
131
Actelion Java MolfileCreator 2.0

  0  0  0  0  0  0              0 V3000
M  V30 BEGIN CTAB
M  V30 COUNTS 30 32 0 0 0
M  V30 BEGIN ATOM
M  V30 1 Br 2.598 1.0 0.0 0
M  V30 2 C 2.598 0.0 0.0 0
M  V30 3 C 1.732 -0.5 0.0 0
M  V30 4 C 3.4641 -0.4999 0.0 0
M  V30 5 N 1.732 -1.5 0.0 0
M  V30 6 N 0.866 0.0 0.0 0
M  V30 7 N 3.4641 -1.4999 0.0 0
M  V30 8 C 2.598 -1.9999 0.0 0
M  V30 9 C 0.0 -0.5 0.0 0
M  V30 10 N 2.598 -2.9999 0.0 0
M  V30 11 C -0.866 0.0 0.0 0
M  V30 12 C 0.0 -1.4999 0.0 0
M  V30 13 C 3.4641 -3.4999 0.0 0
M  V30 14 C -1.732 -0.4999 0.0 0
M  V30 15 C -0.866 1.0 0.0 0
M  V30 16 C -0.866 -1.9999 0.0 0
M  V30 17 C 3.4641 -4.4999 0.0 0
M  V30 18 C 4.3301 -2.9999 0.0 0
M  V30 19 F -2.598 0.0 0.0 0
M  V30 20 C -1.732 -1.4999 0.0 0
M  V30 21 O 0.0 1.5 0.0 0
M  V30 22 N -1.732 1.5 0.0 0
M  V30 23 C 4.3301 -4.9999 0.0 0
M  V30 24 C 5.1961 -3.4999 0.0 0
M  V30 25 C 5.1961 -4.4999 0.0 0
M  V30 26 C 4.3301 -5.9999 0.0 0
M  V30 27 S 6.0621 -4.9999 0.0 0
M  V30 28 O 5.5621 -5.866 0.0 0
M  V30 29 O 6.5621 -4.1339 0.0 0
M  V30 30 N 6.9282 -5.4999 0.0 0
M  V30 END ATOM
M  V30 BEGIN BOND
M  V30 1 1 1 2
M  V30 2 2 2 3
M  V30 3 1 2 4
M  V30 4 1 3 5
M  V30 5 1 3 6
M  V30 6 2 4 7
M  V30 7 2 5 8
M  V30 8 1 6 9
M  V30 9 1 8 10
M  V30 10 2 9 11
M  V30 11 1 9 12
M  V30 12 1 10 13
M  V30 13 1 11 14
M  V30 14 1 11 15
M  V30 15 2 12 16
M  V30 16 2 13 17
M  V30 17 1 13 18
M  V30 18 1 14 19
M  V30 19 2 14 20
M  V30 20 2 15 21
M  V30 21 1 15 22
M  V30 22 1 17 23
M  V30 23 2 18 24
M  V30 24 2 23 25
M  V30 25 1 23 26
M  V30 26 1 25 27
M  V30 27 2 27 28
M  V30 28 2 27 29
M  V30 29 1 27 30
M  V30 30 1 7 8
M  V30 31 1 16 20
M  V30 32 1 24 25
M  V30 END BOND
M  V30 END CTAB
M  END
>  <Molecule Name>
Compound 425

>  <Molecule Name 2>
Compound 425

>  <Compound ID>
131

>  <Name>
TMX-3012

>  <Uniprot>
Q9NYV4

>  <Target>
CDK12

>  <Smiles>
CC1=CC(NC2=NC=C(Br)C(NC3=CC=CC(F)=C3C(N)=O)=N2)=CC=C1S(N)(=O)=O

>  <Kd (nM)>


>  <Assay (Kd)>


>  <Ki (nM)>


>  <Assay (Ki)>


>  <IC50 (nM)>


>  <Assay (IC50)>


>  <EC50 (nM)>


>  <Assay (EC50)>


>  <Article DOI>
10.1016/j.cell.2020.10.038

>  <Molecular Weight>
495.334

>  <Exact Mass>
494.0171997

>  <XLogP3>
3.1

>  <Heavy Atom Count>
30

>  <Ring Count>
3

>  <Hydrogen Bond Acceptor Count>
7

>  <Hydrogen Bond Donor Count>
4

>  <Rotatable Bond Count>
6

>  <Topological Polar Surface Area>
153.09

>  <Molecular Formula>
C18H16BrFN6O3S

>  <InChI>
InChI=1S/C18H16BrFN6O3S/c1-9-7-10(5-6-14(9)30(22,28)29)24-18-23-8-11(19)17(26-18)25-13-4-2-3-12(20)15(13)16(21)27/h2-8H,1H3,(H2,21,27)(H2,22,28,29)(H2,23,24,25,26)

>  <InChI Key>
IDMHFFLVANCQJA-UHFFFAOYSA-N

>  <BindingDB>


>  <PubChem>


>  <ChEMBL>


$$$$
131
Actelion Java MolfileCreator 2.0

  0  0  0  0  0  0              0 V3000
M  V30 BEGIN CTAB
M  V30 COUNTS 30 32 0 0 0
M  V30 BEGIN ATOM
M  V30 1 Br 2.598 1.0 0.0 0
M  V30 2 C 2.598 0.0 0.0 0
M  V30 3 C 1.732 -0.5 0.0 0
M  V30 4 C 3.4641 -0.4999 0.0 0
M  V30 5 N 1.732 -1.5 0.0 0
M  V30 6 N 0.866 0.0 0.0 0
M  V30 7 N 3.4641 -1.4999 0.0 0
M  V30 8 C 2.598 -1.9999 0.0 0
M  V30 9 C 0.0 -0.5 0.0 0
M  V30 10 N 2.598 -2.9999 0.0 0
M  V30 11 C -0.866 0.0 0.0 0
M  V30 12 C 0.0 -1.4999 0.0 0
M  V30 13 C 3.4641 -3.4999 0.0 0
M  V30 14 C -1.732 -0.4999 0.0 0
M  V30 15 C -0.866 1.0 0.0 0
M  V30 16 C -0.866 -1.9999 0.0 0
M  V30 17 C 3.4641 -4.4999 0.0 0
M  V30 18 C 4.3301 -2.9999 0.0 0
M  V30 19 F -2.598 0.0 0.0 0
M  V30 20 C -1.732 -1.4999 0.0 0
M  V30 21 O 0.0 1.5 0.0 0
M  V30 22 N -1.732 1.5 0.0 0
M  V30 23 C 4.3301 -4.9999 0.0 0
M  V30 24 C 5.1961 -3.4999 0.0 0
M  V30 25 C 5.1961 -4.4999 0.0 0
M  V30 26 C 4.3301 -5.9999 0.0 0
M  V30 27 S 6.0621 -4.9999 0.0 0
M  V30 28 O 5.5621 -5.866 0.0 0
M  V30 29 O 6.5621 -4.1339 0.0 0
M  V30 30 N 6.9282 -5.4999 0.0 0
M  V30 END ATOM
M  V30 BEGIN BOND
M  V30 1 1 1 2
M  V30 2 2 2 3
M  V30 3 1 2 4
M  V30 4 1 3 5
M  V30 5 1 3 6
M  V30 6 2 4 7
M  V30 7 2 5 8
M  V30 8 1 6 9
M  V30 9 1 8 10
M  V30 10 2 9 11
M  V30 11 1 9 12
M  V30 12 1 10 13
M  V30 13 1 11 14
M  V30 14 1 11 15
M  V30 15 2 12 16
M  V30 16 2 13 17
M  V30 17 1 13 18
M  V30 18 1 14 19
M  V30 19 2 14 20
M  V30 20 2 15 21
M  V30 21 1 15 22
M  V30 22 1 17 23
M  V30 23 2 18 24
M  V30 24 2 23 25
M  V30 25 1 23 26
M  V30 26 1 25 27
M  V30 27 2 27 28
M  V30 28 2 27 29
M  V30 29 1 27 30
M  V30 30 1 7 8
M  V30 31 1 16 20
M  V30 32 1 24 25
M  V30 END BOND
M  V30 END CTAB
M  END
>  <Molecule Name>
Compound 426

>  <Molecule Name 2>
Compound 426

>  <Compound ID>
131

>  <Name>
TMX-3012

>  <Uniprot>
Q00536

>  <Target>
CDK16

>  <Smiles>
CC1=CC(NC2=NC=C(Br)C(NC3=CC=CC(F)=C3C(N)=O)=N2)=CC=C1S(N)(=O)=O

>  <Kd (nM)>


>  <Assay (Kd)>


>  <Ki (nM)>


>  <Assay (Ki)>


>  <IC50 (nM)>


>  <Assay (IC50)>


>  <EC50 (nM)>


>  <Assay (EC50)>


>  <Article DOI>
10.1016/j.cell.2020.10.038

>  <Molecular Weight>
495.334

>  <Exact Mass>
494.0171997

>  <XLogP3>
3.1

>  <Heavy Atom Count>
30

>  <Ring Count>
3

>  <Hydrogen Bond Acceptor Count>
7

>  <Hydrogen Bond Donor Count>
4

>  <Rotatable Bond Count>
6

>  <Topological Polar Surface Area>
153.09

>  <Molecular Formula>
C18H16BrFN6O3S

>  <InChI>
InChI=1S/C18H16BrFN6O3S/c1-9-7-10(5-6-14(9)30(22,28)29)24-18-23-8-11(19)17(26-18)25-13-4-2-3-12(20)15(13)16(21)27/h2-8H,1H3,(H2,21,27)(H2,22,28,29)(H2,23,24,25,26)

>  <InChI Key>
IDMHFFLVANCQJA-UHFFFAOYSA-N

>  <BindingDB>


>  <PubChem>


>  <ChEMBL>


$$$$
131
Actelion Java MolfileCreator 2.0

  0  0  0  0  0  0              0 V3000
M  V30 BEGIN CTAB
M  V30 COUNTS 30 32 0 0 0
M  V30 BEGIN ATOM
M  V30 1 Br 2.598 1.0 0.0 0
M  V30 2 C 2.598 0.0 0.0 0
M  V30 3 C 1.732 -0.5 0.0 0
M  V30 4 C 3.4641 -0.4999 0.0 0
M  V30 5 N 1.732 -1.5 0.0 0
M  V30 6 N 0.866 0.0 0.0 0
M  V30 7 N 3.4641 -1.4999 0.0 0
M  V30 8 C 2.598 -1.9999 0.0 0
M  V30 9 C 0.0 -0.5 0.0 0
M  V30 10 N 2.598 -2.9999 0.0 0
M  V30 11 C -0.866 0.0 0.0 0
M  V30 12 C 0.0 -1.4999 0.0 0
M  V30 13 C 3.4641 -3.4999 0.0 0
M  V30 14 C -1.732 -0.4999 0.0 0
M  V30 15 C -0.866 1.0 0.0 0
M  V30 16 C -0.866 -1.9999 0.0 0
M  V30 17 C 3.4641 -4.4999 0.0 0
M  V30 18 C 4.3301 -2.9999 0.0 0
M  V30 19 F -2.598 0.0 0.0 0
M  V30 20 C -1.732 -1.4999 0.0 0
M  V30 21 O 0.0 1.5 0.0 0
M  V30 22 N -1.732 1.5 0.0 0
M  V30 23 C 4.3301 -4.9999 0.0 0
M  V30 24 C 5.1961 -3.4999 0.0 0
M  V30 25 C 5.1961 -4.4999 0.0 0
M  V30 26 C 4.3301 -5.9999 0.0 0
M  V30 27 S 6.0621 -4.9999 0.0 0
M  V30 28 O 5.5621 -5.866 0.0 0
M  V30 29 O 6.5621 -4.1339 0.0 0
M  V30 30 N 6.9282 -5.4999 0.0 0
M  V30 END ATOM
M  V30 BEGIN BOND
M  V30 1 1 1 2
M  V30 2 2 2 3
M  V30 3 1 2 4
M  V30 4 1 3 5
M  V30 5 1 3 6
M  V30 6 2 4 7
M  V30 7 2 5 8
M  V30 8 1 6 9
M  V30 9 1 8 10
M  V30 10 2 9 11
M  V30 11 1 9 12
M  V30 12 1 10 13
M  V30 13 1 11 14
M  V30 14 1 11 15
M  V30 15 2 12 16
M  V30 16 2 13 17
M  V30 17 1 13 18
M  V30 18 1 14 19
M  V30 19 2 14 20
M  V30 20 2 15 21
M  V30 21 1 15 22
M  V30 22 1 17 23
M  V30 23 2 18 24
M  V30 24 2 23 25
M  V30 25 1 23 26
M  V30 26 1 25 27
M  V30 27 2 27 28
M  V30 28 2 27 29
M  V30 29 1 27 30
M  V30 30 1 7 8
M  V30 31 1 16 20
M  V30 32 1 24 25
M  V30 END BOND
M  V30 END CTAB
M  END
>  <Molecule Name>
Compound 427

>  <Molecule Name 2>
Compound 427

>  <Compound ID>
131

>  <Name>
TMX-3012

>  <Uniprot>
Q00537

>  <Target>
CDK17

>  <Smiles>
CC1=CC(NC2=NC=C(Br)C(NC3=CC=CC(F)=C3C(N)=O)=N2)=CC=C1S(N)(=O)=O

>  <Kd (nM)>


>  <Assay (Kd)>


>  <Ki (nM)>


>  <Assay (Ki)>


>  <IC50 (nM)>


>  <Assay (IC50)>


>  <EC50 (nM)>


>  <Assay (EC50)>


>  <Article DOI>
10.1016/j.cell.2020.10.038

>  <Molecular Weight>
495.334

>  <Exact Mass>
494.0171997

>  <XLogP3>
3.1

>  <Heavy Atom Count>
30

>  <Ring Count>
3

>  <Hydrogen Bond Acceptor Count>
7

>  <Hydrogen Bond Donor Count>
4

>  <Rotatable Bond Count>
6

>  <Topological Polar Surface Area>
153.09

>  <Molecular Formula>
C18H16BrFN6O3S

>  <InChI>
InChI=1S/C18H16BrFN6O3S/c1-9-7-10(5-6-14(9)30(22,28)29)24-18-23-8-11(19)17(26-18)25-13-4-2-3-12(20)15(13)16(21)27/h2-8H,1H3,(H2,21,27)(H2,22,28,29)(H2,23,24,25,26)

>  <InChI Key>
IDMHFFLVANCQJA-UHFFFAOYSA-N

>  <BindingDB>


>  <PubChem>


>  <ChEMBL>


$$$$
131
Actelion Java MolfileCreator 2.0

  0  0  0  0  0  0              0 V3000
M  V30 BEGIN CTAB
M  V30 COUNTS 30 32 0 0 0
M  V30 BEGIN ATOM
M  V30 1 Br 2.598 1.0 0.0 0
M  V30 2 C 2.598 0.0 0.0 0
M  V30 3 C 1.732 -0.5 0.0 0
M  V30 4 C 3.4641 -0.4999 0.0 0
M  V30 5 N 1.732 -1.5 0.0 0
M  V30 6 N 0.866 0.0 0.0 0
M  V30 7 N 3.4641 -1.4999 0.0 0
M  V30 8 C 2.598 -1.9999 0.0 0
M  V30 9 C 0.0 -0.5 0.0 0
M  V30 10 N 2.598 -2.9999 0.0 0
M  V30 11 C -0.866 0.0 0.0 0
M  V30 12 C 0.0 -1.4999 0.0 0
M  V30 13 C 3.4641 -3.4999 0.0 0
M  V30 14 C -1.732 -0.4999 0.0 0
M  V30 15 C -0.866 1.0 0.0 0
M  V30 16 C -0.866 -1.9999 0.0 0
M  V30 17 C 3.4641 -4.4999 0.0 0
M  V30 18 C 4.3301 -2.9999 0.0 0
M  V30 19 F -2.598 0.0 0.0 0
M  V30 20 C -1.732 -1.4999 0.0 0
M  V30 21 O 0.0 1.5 0.0 0
M  V30 22 N -1.732 1.5 0.0 0
M  V30 23 C 4.3301 -4.9999 0.0 0
M  V30 24 C 5.1961 -3.4999 0.0 0
M  V30 25 C 5.1961 -4.4999 0.0 0
M  V30 26 C 4.3301 -5.9999 0.0 0
M  V30 27 S 6.0621 -4.9999 0.0 0
M  V30 28 O 5.5621 -5.866 0.0 0
M  V30 29 O 6.5621 -4.1339 0.0 0
M  V30 30 N 6.9282 -5.4999 0.0 0
M  V30 END ATOM
M  V30 BEGIN BOND
M  V30 1 1 1 2
M  V30 2 2 2 3
M  V30 3 1 2 4
M  V30 4 1 3 5
M  V30 5 1 3 6
M  V30 6 2 4 7
M  V30 7 2 5 8
M  V30 8 1 6 9
M  V30 9 1 8 10
M  V30 10 2 9 11
M  V30 11 1 9 12
M  V30 12 1 10 13
M  V30 13 1 11 14
M  V30 14 1 11 15
M  V30 15 2 12 16
M  V30 16 2 13 17
M  V30 17 1 13 18
M  V30 18 1 14 19
M  V30 19 2 14 20
M  V30 20 2 15 21
M  V30 21 1 15 22
M  V30 22 1 17 23
M  V30 23 2 18 24
M  V30 24 2 23 25
M  V30 25 1 23 26
M  V30 26 1 25 27
M  V30 27 2 27 28
M  V30 28 2 27 29
M  V30 29 1 27 30
M  V30 30 1 7 8
M  V30 31 1 16 20
M  V30 32 1 24 25
M  V30 END BOND
M  V30 END CTAB
M  END
>  <Molecule Name>
Compound 428

>  <Molecule Name 2>
Compound 428

>  <Compound ID>
131

>  <Name>
TMX-3012

>  <Uniprot>
P06493

>  <Target>
CDK1

>  <Smiles>
CC1=CC(NC2=NC=C(Br)C(NC3=CC=CC(F)=C3C(N)=O)=N2)=CC=C1S(N)(=O)=O

>  <Kd (nM)>


>  <Assay (Kd)>


>  <Ki (nM)>


>  <Assay (Ki)>


>  <IC50 (nM)>


>  <Assay (IC50)>


>  <EC50 (nM)>


>  <Assay (EC50)>


>  <Article DOI>
10.1016/j.cell.2020.10.038

>  <Molecular Weight>
495.334

>  <Exact Mass>
494.0171997

>  <XLogP3>
3.1

>  <Heavy Atom Count>
30

>  <Ring Count>
3

>  <Hydrogen Bond Acceptor Count>
7

>  <Hydrogen Bond Donor Count>
4

>  <Rotatable Bond Count>
6

>  <Topological Polar Surface Area>
153.09

>  <Molecular Formula>
C18H16BrFN6O3S

>  <InChI>
InChI=1S/C18H16BrFN6O3S/c1-9-7-10(5-6-14(9)30(22,28)29)24-18-23-8-11(19)17(26-18)25-13-4-2-3-12(20)15(13)16(21)27/h2-8H,1H3,(H2,21,27)(H2,22,28,29)(H2,23,24,25,26)

>  <InChI Key>
IDMHFFLVANCQJA-UHFFFAOYSA-N

>  <BindingDB>


>  <PubChem>


>  <ChEMBL>


$$$$
131
Actelion Java MolfileCreator 2.0

  0  0  0  0  0  0              0 V3000
M  V30 BEGIN CTAB
M  V30 COUNTS 30 32 0 0 0
M  V30 BEGIN ATOM
M  V30 1 Br 2.598 1.0 0.0 0
M  V30 2 C 2.598 0.0 0.0 0
M  V30 3 C 1.732 -0.5 0.0 0
M  V30 4 C 3.4641 -0.4999 0.0 0
M  V30 5 N 1.732 -1.5 0.0 0
M  V30 6 N 0.866 0.0 0.0 0
M  V30 7 N 3.4641 -1.4999 0.0 0
M  V30 8 C 2.598 -1.9999 0.0 0
M  V30 9 C 0.0 -0.5 0.0 0
M  V30 10 N 2.598 -2.9999 0.0 0
M  V30 11 C -0.866 0.0 0.0 0
M  V30 12 C 0.0 -1.4999 0.0 0
M  V30 13 C 3.4641 -3.4999 0.0 0
M  V30 14 C -1.732 -0.4999 0.0 0
M  V30 15 C -0.866 1.0 0.0 0
M  V30 16 C -0.866 -1.9999 0.0 0
M  V30 17 C 3.4641 -4.4999 0.0 0
M  V30 18 C 4.3301 -2.9999 0.0 0
M  V30 19 F -2.598 0.0 0.0 0
M  V30 20 C -1.732 -1.4999 0.0 0
M  V30 21 O 0.0 1.5 0.0 0
M  V30 22 N -1.732 1.5 0.0 0
M  V30 23 C 4.3301 -4.9999 0.0 0
M  V30 24 C 5.1961 -3.4999 0.0 0
M  V30 25 C 5.1961 -4.4999 0.0 0
M  V30 26 C 4.3301 -5.9999 0.0 0
M  V30 27 S 6.0621 -4.9999 0.0 0
M  V30 28 O 5.5621 -5.866 0.0 0
M  V30 29 O 6.5621 -4.1339 0.0 0
M  V30 30 N 6.9282 -5.4999 0.0 0
M  V30 END ATOM
M  V30 BEGIN BOND
M  V30 1 1 1 2
M  V30 2 2 2 3
M  V30 3 1 2 4
M  V30 4 1 3 5
M  V30 5 1 3 6
M  V30 6 2 4 7
M  V30 7 2 5 8
M  V30 8 1 6 9
M  V30 9 1 8 10
M  V30 10 2 9 11
M  V30 11 1 9 12
M  V30 12 1 10 13
M  V30 13 1 11 14
M  V30 14 1 11 15
M  V30 15 2 12 16
M  V30 16 2 13 17
M  V30 17 1 13 18
M  V30 18 1 14 19
M  V30 19 2 14 20
M  V30 20 2 15 21
M  V30 21 1 15 22
M  V30 22 1 17 23
M  V30 23 2 18 24
M  V30 24 2 23 25
M  V30 25 1 23 26
M  V30 26 1 25 27
M  V30 27 2 27 28
M  V30 28 2 27 29
M  V30 29 1 27 30
M  V30 30 1 7 8
M  V30 31 1 16 20
M  V30 32 1 24 25
M  V30 END BOND
M  V30 END CTAB
M  END
>  <Molecule Name>
Compound 429

>  <Molecule Name 2>
Compound 429

>  <Compound ID>
131

>  <Name>
TMX-3012

>  <Uniprot>
P24941

>  <Target>
CDK2

>  <Smiles>
CC1=CC(NC2=NC=C(Br)C(NC3=CC=CC(F)=C3C(N)=O)=N2)=CC=C1S(N)(=O)=O

>  <Kd (nM)>


>  <Assay (Kd)>


>  <Ki (nM)>


>  <Assay (Ki)>


>  <IC50 (nM)>
0.7

>  <Assay (IC50)>
IC50 of CDK2/cyclin A was tested by the Z'-LYTE assays

>  <EC50 (nM)>


>  <Assay (EC50)>


>  <Article DOI>
10.1002/anie.202004087

>  <Molecular Weight>
495.334

>  <Exact Mass>
494.0171997

>  <XLogP3>
3.1

>  <Heavy Atom Count>
30

>  <Ring Count>
3

>  <Hydrogen Bond Acceptor Count>
7

>  <Hydrogen Bond Donor Count>
4

>  <Rotatable Bond Count>
6

>  <Topological Polar Surface Area>
153.09

>  <Molecular Formula>
C18H16BrFN6O3S

>  <InChI>
InChI=1S/C18H16BrFN6O3S/c1-9-7-10(5-6-14(9)30(22,28)29)24-18-23-8-11(19)17(26-18)25-13-4-2-3-12(20)15(13)16(21)27/h2-8H,1H3,(H2,21,27)(H2,22,28,29)(H2,23,24,25,26)

>  <InChI Key>
IDMHFFLVANCQJA-UHFFFAOYSA-N

>  <BindingDB>


>  <PubChem>


>  <ChEMBL>


$$$$
131
Actelion Java MolfileCreator 2.0

  0  0  0  0  0  0              0 V3000
M  V30 BEGIN CTAB
M  V30 COUNTS 30 32 0 0 0
M  V30 BEGIN ATOM
M  V30 1 Br 2.598 1.0 0.0 0
M  V30 2 C 2.598 0.0 0.0 0
M  V30 3 C 1.732 -0.5 0.0 0
M  V30 4 C 3.4641 -0.4999 0.0 0
M  V30 5 N 1.732 -1.5 0.0 0
M  V30 6 N 0.866 0.0 0.0 0
M  V30 7 N 3.4641 -1.4999 0.0 0
M  V30 8 C 2.598 -1.9999 0.0 0
M  V30 9 C 0.0 -0.5 0.0 0
M  V30 10 N 2.598 -2.9999 0.0 0
M  V30 11 C -0.866 0.0 0.0 0
M  V30 12 C 0.0 -1.4999 0.0 0
M  V30 13 C 3.4641 -3.4999 0.0 0
M  V30 14 C -1.732 -0.4999 0.0 0
M  V30 15 C -0.866 1.0 0.0 0
M  V30 16 C -0.866 -1.9999 0.0 0
M  V30 17 C 3.4641 -4.4999 0.0 0
M  V30 18 C 4.3301 -2.9999 0.0 0
M  V30 19 F -2.598 0.0 0.0 0
M  V30 20 C -1.732 -1.4999 0.0 0
M  V30 21 O 0.0 1.5 0.0 0
M  V30 22 N -1.732 1.5 0.0 0
M  V30 23 C 4.3301 -4.9999 0.0 0
M  V30 24 C 5.1961 -3.4999 0.0 0
M  V30 25 C 5.1961 -4.4999 0.0 0
M  V30 26 C 4.3301 -5.9999 0.0 0
M  V30 27 S 6.0621 -4.9999 0.0 0
M  V30 28 O 5.5621 -5.866 0.0 0
M  V30 29 O 6.5621 -4.1339 0.0 0
M  V30 30 N 6.9282 -5.4999 0.0 0
M  V30 END ATOM
M  V30 BEGIN BOND
M  V30 1 1 1 2
M  V30 2 2 2 3
M  V30 3 1 2 4
M  V30 4 1 3 5
M  V30 5 1 3 6
M  V30 6 2 4 7
M  V30 7 2 5 8
M  V30 8 1 6 9
M  V30 9 1 8 10
M  V30 10 2 9 11
M  V30 11 1 9 12
M  V30 12 1 10 13
M  V30 13 1 11 14
M  V30 14 1 11 15
M  V30 15 2 12 16
M  V30 16 2 13 17
M  V30 17 1 13 18
M  V30 18 1 14 19
M  V30 19 2 14 20
M  V30 20 2 15 21
M  V30 21 1 15 22
M  V30 22 1 17 23
M  V30 23 2 18 24
M  V30 24 2 23 25
M  V30 25 1 23 26
M  V30 26 1 25 27
M  V30 27 2 27 28
M  V30 28 2 27 29
M  V30 29 1 27 30
M  V30 30 1 7 8
M  V30 31 1 16 20
M  V30 32 1 24 25
M  V30 END BOND
M  V30 END CTAB
M  END
>  <Molecule Name>
Compound 430

>  <Molecule Name 2>
Compound 430

>  <Compound ID>
131

>  <Name>
TMX-3012

>  <Uniprot>
P11802

>  <Target>
CDK4

>  <Smiles>
CC1=CC(NC2=NC=C(Br)C(NC3=CC=CC(F)=C3C(N)=O)=N2)=CC=C1S(N)(=O)=O

>  <Kd (nM)>


>  <Assay (Kd)>


>  <Ki (nM)>


>  <Assay (Ki)>


>  <IC50 (nM)>
79.6

>  <Assay (IC50)>
IC50 of CDK4/cyclin D1 was tested by the Adapta assays

>  <EC50 (nM)>


>  <Assay (EC50)>


>  <Article DOI>
10.1002/anie.202004087

>  <Molecular Weight>
495.334

>  <Exact Mass>
494.0171997

>  <XLogP3>
3.1

>  <Heavy Atom Count>
30

>  <Ring Count>
3

>  <Hydrogen Bond Acceptor Count>
7

>  <Hydrogen Bond Donor Count>
4

>  <Rotatable Bond Count>
6

>  <Topological Polar Surface Area>
153.09

>  <Molecular Formula>
C18H16BrFN6O3S

>  <InChI>
InChI=1S/C18H16BrFN6O3S/c1-9-7-10(5-6-14(9)30(22,28)29)24-18-23-8-11(19)17(26-18)25-13-4-2-3-12(20)15(13)16(21)27/h2-8H,1H3,(H2,21,27)(H2,22,28,29)(H2,23,24,25,26)

>  <InChI Key>
IDMHFFLVANCQJA-UHFFFAOYSA-N

>  <BindingDB>


>  <PubChem>


>  <ChEMBL>


$$$$
131
Actelion Java MolfileCreator 2.0

  0  0  0  0  0  0              0 V3000
M  V30 BEGIN CTAB
M  V30 COUNTS 30 32 0 0 0
M  V30 BEGIN ATOM
M  V30 1 Br 2.598 1.0 0.0 0
M  V30 2 C 2.598 0.0 0.0 0
M  V30 3 C 1.732 -0.5 0.0 0
M  V30 4 C 3.4641 -0.4999 0.0 0
M  V30 5 N 1.732 -1.5 0.0 0
M  V30 6 N 0.866 0.0 0.0 0
M  V30 7 N 3.4641 -1.4999 0.0 0
M  V30 8 C 2.598 -1.9999 0.0 0
M  V30 9 C 0.0 -0.5 0.0 0
M  V30 10 N 2.598 -2.9999 0.0 0
M  V30 11 C -0.866 0.0 0.0 0
M  V30 12 C 0.0 -1.4999 0.0 0
M  V30 13 C 3.4641 -3.4999 0.0 0
M  V30 14 C -1.732 -0.4999 0.0 0
M  V30 15 C -0.866 1.0 0.0 0
M  V30 16 C -0.866 -1.9999 0.0 0
M  V30 17 C 3.4641 -4.4999 0.0 0
M  V30 18 C 4.3301 -2.9999 0.0 0
M  V30 19 F -2.598 0.0 0.0 0
M  V30 20 C -1.732 -1.4999 0.0 0
M  V30 21 O 0.0 1.5 0.0 0
M  V30 22 N -1.732 1.5 0.0 0
M  V30 23 C 4.3301 -4.9999 0.0 0
M  V30 24 C 5.1961 -3.4999 0.0 0
M  V30 25 C 5.1961 -4.4999 0.0 0
M  V30 26 C 4.3301 -5.9999 0.0 0
M  V30 27 S 6.0621 -4.9999 0.0 0
M  V30 28 O 5.5621 -5.866 0.0 0
M  V30 29 O 6.5621 -4.1339 0.0 0
M  V30 30 N 6.9282 -5.4999 0.0 0
M  V30 END ATOM
M  V30 BEGIN BOND
M  V30 1 1 1 2
M  V30 2 2 2 3
M  V30 3 1 2 4
M  V30 4 1 3 5
M  V30 5 1 3 6
M  V30 6 2 4 7
M  V30 7 2 5 8
M  V30 8 1 6 9
M  V30 9 1 8 10
M  V30 10 2 9 11
M  V30 11 1 9 12
M  V30 12 1 10 13
M  V30 13 1 11 14
M  V30 14 1 11 15
M  V30 15 2 12 16
M  V30 16 2 13 17
M  V30 17 1 13 18
M  V30 18 1 14 19
M  V30 19 2 14 20
M  V30 20 2 15 21
M  V30 21 1 15 22
M  V30 22 1 17 23
M  V30 23 2 18 24
M  V30 24 2 23 25
M  V30 25 1 23 26
M  V30 26 1 25 27
M  V30 27 2 27 28
M  V30 28 2 27 29
M  V30 29 1 27 30
M  V30 30 1 7 8
M  V30 31 1 16 20
M  V30 32 1 24 25
M  V30 END BOND
M  V30 END CTAB
M  END
>  <Molecule Name>
Compound 431

>  <Molecule Name 2>
Compound 431

>  <Compound ID>
131

>  <Name>
TMX-3012

>  <Uniprot>
Q00535

>  <Target>
CDK5

>  <Smiles>
CC1=CC(NC2=NC=C(Br)C(NC3=CC=CC(F)=C3C(N)=O)=N2)=CC=C1S(N)(=O)=O

>  <Kd (nM)>


>  <Assay (Kd)>


>  <Ki (nM)>


>  <Assay (Ki)>


>  <IC50 (nM)>
0.6

>  <Assay (IC50)>
IC50 of CDK5/p25 was tested by the Z'-LYTE assays

>  <EC50 (nM)>


>  <Assay (EC50)>


>  <Article DOI>
10.1002/anie.202004087

>  <Molecular Weight>
495.334

>  <Exact Mass>
494.0171997

>  <XLogP3>
3.1

>  <Heavy Atom Count>
30

>  <Ring Count>
3

>  <Hydrogen Bond Acceptor Count>
7

>  <Hydrogen Bond Donor Count>
4

>  <Rotatable Bond Count>
6

>  <Topological Polar Surface Area>
153.09

>  <Molecular Formula>
C18H16BrFN6O3S

>  <InChI>
InChI=1S/C18H16BrFN6O3S/c1-9-7-10(5-6-14(9)30(22,28)29)24-18-23-8-11(19)17(26-18)25-13-4-2-3-12(20)15(13)16(21)27/h2-8H,1H3,(H2,21,27)(H2,22,28,29)(H2,23,24,25,26)

>  <InChI Key>
IDMHFFLVANCQJA-UHFFFAOYSA-N

>  <BindingDB>


>  <PubChem>


>  <ChEMBL>


$$$$
131
Actelion Java MolfileCreator 2.0

  0  0  0  0  0  0              0 V3000
M  V30 BEGIN CTAB
M  V30 COUNTS 30 32 0 0 0
M  V30 BEGIN ATOM
M  V30 1 Br 2.598 1.0 0.0 0
M  V30 2 C 2.598 0.0 0.0 0
M  V30 3 C 1.732 -0.5 0.0 0
M  V30 4 C 3.4641 -0.4999 0.0 0
M  V30 5 N 1.732 -1.5 0.0 0
M  V30 6 N 0.866 0.0 0.0 0
M  V30 7 N 3.4641 -1.4999 0.0 0
M  V30 8 C 2.598 -1.9999 0.0 0
M  V30 9 C 0.0 -0.5 0.0 0
M  V30 10 N 2.598 -2.9999 0.0 0
M  V30 11 C -0.866 0.0 0.0 0
M  V30 12 C 0.0 -1.4999 0.0 0
M  V30 13 C 3.4641 -3.4999 0.0 0
M  V30 14 C -1.732 -0.4999 0.0 0
M  V30 15 C -0.866 1.0 0.0 0
M  V30 16 C -0.866 -1.9999 0.0 0
M  V30 17 C 3.4641 -4.4999 0.0 0
M  V30 18 C 4.3301 -2.9999 0.0 0
M  V30 19 F -2.598 0.0 0.0 0
M  V30 20 C -1.732 -1.4999 0.0 0
M  V30 21 O 0.0 1.5 0.0 0
M  V30 22 N -1.732 1.5 0.0 0
M  V30 23 C 4.3301 -4.9999 0.0 0
M  V30 24 C 5.1961 -3.4999 0.0 0
M  V30 25 C 5.1961 -4.4999 0.0 0
M  V30 26 C 4.3301 -5.9999 0.0 0
M  V30 27 S 6.0621 -4.9999 0.0 0
M  V30 28 O 5.5621 -5.866 0.0 0
M  V30 29 O 6.5621 -4.1339 0.0 0
M  V30 30 N 6.9282 -5.4999 0.0 0
M  V30 END ATOM
M  V30 BEGIN BOND
M  V30 1 1 1 2
M  V30 2 2 2 3
M  V30 3 1 2 4
M  V30 4 1 3 5
M  V30 5 1 3 6
M  V30 6 2 4 7
M  V30 7 2 5 8
M  V30 8 1 6 9
M  V30 9 1 8 10
M  V30 10 2 9 11
M  V30 11 1 9 12
M  V30 12 1 10 13
M  V30 13 1 11 14
M  V30 14 1 11 15
M  V30 15 2 12 16
M  V30 16 2 13 17
M  V30 17 1 13 18
M  V30 18 1 14 19
M  V30 19 2 14 20
M  V30 20 2 15 21
M  V30 21 1 15 22
M  V30 22 1 17 23
M  V30 23 2 18 24
M  V30 24 2 23 25
M  V30 25 1 23 26
M  V30 26 1 25 27
M  V30 27 2 27 28
M  V30 28 2 27 29
M  V30 29 1 27 30
M  V30 30 1 7 8
M  V30 31 1 16 20
M  V30 32 1 24 25
M  V30 END BOND
M  V30 END CTAB
M  END
>  <Molecule Name>
Compound 432

>  <Molecule Name 2>
Compound 432

>  <Compound ID>
131

>  <Name>
TMX-3012

>  <Uniprot>
Q00534

>  <Target>
CDK6

>  <Smiles>
CC1=CC(NC2=NC=C(Br)C(NC3=CC=CC(F)=C3C(N)=O)=N2)=CC=C1S(N)(=O)=O

>  <Kd (nM)>


>  <Assay (Kd)>


>  <Ki (nM)>


>  <Assay (Ki)>


>  <IC50 (nM)>
24

>  <Assay (IC50)>
IC50 of CDK6/cyclin D1 was tested by the Adapta assays

>  <EC50 (nM)>


>  <Assay (EC50)>


>  <Article DOI>
10.1002/anie.202004087

>  <Molecular Weight>
495.334

>  <Exact Mass>
494.0171997

>  <XLogP3>
3.1

>  <Heavy Atom Count>
30

>  <Ring Count>
3

>  <Hydrogen Bond Acceptor Count>
7

>  <Hydrogen Bond Donor Count>
4

>  <Rotatable Bond Count>
6

>  <Topological Polar Surface Area>
153.09

>  <Molecular Formula>
C18H16BrFN6O3S

>  <InChI>
InChI=1S/C18H16BrFN6O3S/c1-9-7-10(5-6-14(9)30(22,28)29)24-18-23-8-11(19)17(26-18)25-13-4-2-3-12(20)15(13)16(21)27/h2-8H,1H3,(H2,21,27)(H2,22,28,29)(H2,23,24,25,26)

>  <InChI Key>
IDMHFFLVANCQJA-UHFFFAOYSA-N

>  <BindingDB>


>  <PubChem>


>  <ChEMBL>


$$$$
131
Actelion Java MolfileCreator 2.0

  0  0  0  0  0  0              0 V3000
M  V30 BEGIN CTAB
M  V30 COUNTS 30 32 0 0 0
M  V30 BEGIN ATOM
M  V30 1 Br 2.598 1.0 0.0 0
M  V30 2 C 2.598 0.0 0.0 0
M  V30 3 C 1.732 -0.5 0.0 0
M  V30 4 C 3.4641 -0.4999 0.0 0
M  V30 5 N 1.732 -1.5 0.0 0
M  V30 6 N 0.866 0.0 0.0 0
M  V30 7 N 3.4641 -1.4999 0.0 0
M  V30 8 C 2.598 -1.9999 0.0 0
M  V30 9 C 0.0 -0.5 0.0 0
M  V30 10 N 2.598 -2.9999 0.0 0
M  V30 11 C -0.866 0.0 0.0 0
M  V30 12 C 0.0 -1.4999 0.0 0
M  V30 13 C 3.4641 -3.4999 0.0 0
M  V30 14 C -1.732 -0.4999 0.0 0
M  V30 15 C -0.866 1.0 0.0 0
M  V30 16 C -0.866 -1.9999 0.0 0
M  V30 17 C 3.4641 -4.4999 0.0 0
M  V30 18 C 4.3301 -2.9999 0.0 0
M  V30 19 F -2.598 0.0 0.0 0
M  V30 20 C -1.732 -1.4999 0.0 0
M  V30 21 O 0.0 1.5 0.0 0
M  V30 22 N -1.732 1.5 0.0 0
M  V30 23 C 4.3301 -4.9999 0.0 0
M  V30 24 C 5.1961 -3.4999 0.0 0
M  V30 25 C 5.1961 -4.4999 0.0 0
M  V30 26 C 4.3301 -5.9999 0.0 0
M  V30 27 S 6.0621 -4.9999 0.0 0
M  V30 28 O 5.5621 -5.866 0.0 0
M  V30 29 O 6.5621 -4.1339 0.0 0
M  V30 30 N 6.9282 -5.4999 0.0 0
M  V30 END ATOM
M  V30 BEGIN BOND
M  V30 1 1 1 2
M  V30 2 2 2 3
M  V30 3 1 2 4
M  V30 4 1 3 5
M  V30 5 1 3 6
M  V30 6 2 4 7
M  V30 7 2 5 8
M  V30 8 1 6 9
M  V30 9 1 8 10
M  V30 10 2 9 11
M  V30 11 1 9 12
M  V30 12 1 10 13
M  V30 13 1 11 14
M  V30 14 1 11 15
M  V30 15 2 12 16
M  V30 16 2 13 17
M  V30 17 1 13 18
M  V30 18 1 14 19
M  V30 19 2 14 20
M  V30 20 2 15 21
M  V30 21 1 15 22
M  V30 22 1 17 23
M  V30 23 2 18 24
M  V30 24 2 23 25
M  V30 25 1 23 26
M  V30 26 1 25 27
M  V30 27 2 27 28
M  V30 28 2 27 29
M  V30 29 1 27 30
M  V30 30 1 7 8
M  V30 31 1 16 20
M  V30 32 1 24 25
M  V30 END BOND
M  V30 END CTAB
M  END
>  <Molecule Name>
Compound 433

>  <Molecule Name 2>
Compound 433

>  <Compound ID>
131

>  <Name>
TMX-3012

>  <Uniprot>
P50613

>  <Target>
CDK7

>  <Smiles>
CC1=CC(NC2=NC=C(Br)C(NC3=CC=CC(F)=C3C(N)=O)=N2)=CC=C1S(N)(=O)=O

>  <Kd (nM)>


>  <Assay (Kd)>


>  <Ki (nM)>


>  <Assay (Ki)>


>  <IC50 (nM)>


>  <Assay (IC50)>


>  <EC50 (nM)>


>  <Assay (EC50)>


>  <Article DOI>
10.1016/j.cell.2020.10.038

>  <Molecular Weight>
495.334

>  <Exact Mass>
494.0171997

>  <XLogP3>
3.1

>  <Heavy Atom Count>
30

>  <Ring Count>
3

>  <Hydrogen Bond Acceptor Count>
7

>  <Hydrogen Bond Donor Count>
4

>  <Rotatable Bond Count>
6

>  <Topological Polar Surface Area>
153.09

>  <Molecular Formula>
C18H16BrFN6O3S

>  <InChI>
InChI=1S/C18H16BrFN6O3S/c1-9-7-10(5-6-14(9)30(22,28)29)24-18-23-8-11(19)17(26-18)25-13-4-2-3-12(20)15(13)16(21)27/h2-8H,1H3,(H2,21,27)(H2,22,28,29)(H2,23,24,25,26)

>  <InChI Key>
IDMHFFLVANCQJA-UHFFFAOYSA-N

>  <BindingDB>


>  <PubChem>


>  <ChEMBL>


$$$$
131
Actelion Java MolfileCreator 2.0

  0  0  0  0  0  0              0 V3000
M  V30 BEGIN CTAB
M  V30 COUNTS 30 32 0 0 0
M  V30 BEGIN ATOM
M  V30 1 Br 2.598 1.0 0.0 0
M  V30 2 C 2.598 0.0 0.0 0
M  V30 3 C 1.732 -0.5 0.0 0
M  V30 4 C 3.4641 -0.4999 0.0 0
M  V30 5 N 1.732 -1.5 0.0 0
M  V30 6 N 0.866 0.0 0.0 0
M  V30 7 N 3.4641 -1.4999 0.0 0
M  V30 8 C 2.598 -1.9999 0.0 0
M  V30 9 C 0.0 -0.5 0.0 0
M  V30 10 N 2.598 -2.9999 0.0 0
M  V30 11 C -0.866 0.0 0.0 0
M  V30 12 C 0.0 -1.4999 0.0 0
M  V30 13 C 3.4641 -3.4999 0.0 0
M  V30 14 C -1.732 -0.4999 0.0 0
M  V30 15 C -0.866 1.0 0.0 0
M  V30 16 C -0.866 -1.9999 0.0 0
M  V30 17 C 3.4641 -4.4999 0.0 0
M  V30 18 C 4.3301 -2.9999 0.0 0
M  V30 19 F -2.598 0.0 0.0 0
M  V30 20 C -1.732 -1.4999 0.0 0
M  V30 21 O 0.0 1.5 0.0 0
M  V30 22 N -1.732 1.5 0.0 0
M  V30 23 C 4.3301 -4.9999 0.0 0
M  V30 24 C 5.1961 -3.4999 0.0 0
M  V30 25 C 5.1961 -4.4999 0.0 0
M  V30 26 C 4.3301 -5.9999 0.0 0
M  V30 27 S 6.0621 -4.9999 0.0 0
M  V30 28 O 5.5621 -5.866 0.0 0
M  V30 29 O 6.5621 -4.1339 0.0 0
M  V30 30 N 6.9282 -5.4999 0.0 0
M  V30 END ATOM
M  V30 BEGIN BOND
M  V30 1 1 1 2
M  V30 2 2 2 3
M  V30 3 1 2 4
M  V30 4 1 3 5
M  V30 5 1 3 6
M  V30 6 2 4 7
M  V30 7 2 5 8
M  V30 8 1 6 9
M  V30 9 1 8 10
M  V30 10 2 9 11
M  V30 11 1 9 12
M  V30 12 1 10 13
M  V30 13 1 11 14
M  V30 14 1 11 15
M  V30 15 2 12 16
M  V30 16 2 13 17
M  V30 17 1 13 18
M  V30 18 1 14 19
M  V30 19 2 14 20
M  V30 20 2 15 21
M  V30 21 1 15 22
M  V30 22 1 17 23
M  V30 23 2 18 24
M  V30 24 2 23 25
M  V30 25 1 23 26
M  V30 26 1 25 27
M  V30 27 2 27 28
M  V30 28 2 27 29
M  V30 29 1 27 30
M  V30 30 1 7 8
M  V30 31 1 16 20
M  V30 32 1 24 25
M  V30 END BOND
M  V30 END CTAB
M  END
>  <Molecule Name>
Compound 434

>  <Molecule Name 2>
Compound 434

>  <Compound ID>
131

>  <Name>
TMX-3012

>  <Uniprot>
P50750

>  <Target>
CDK9

>  <Smiles>
CC1=CC(NC2=NC=C(Br)C(NC3=CC=CC(F)=C3C(N)=O)=N2)=CC=C1S(N)(=O)=O

>  <Kd (nM)>


>  <Assay (Kd)>


>  <Ki (nM)>


>  <Assay (Ki)>


>  <IC50 (nM)>


>  <Assay (IC50)>


>  <EC50 (nM)>


>  <Assay (EC50)>


>  <Article DOI>
10.1016/j.cell.2020.10.038

>  <Molecular Weight>
495.334

>  <Exact Mass>
494.0171997

>  <XLogP3>
3.1

>  <Heavy Atom Count>
30

>  <Ring Count>
3

>  <Hydrogen Bond Acceptor Count>
7

>  <Hydrogen Bond Donor Count>
4

>  <Rotatable Bond Count>
6

>  <Topological Polar Surface Area>
153.09

>  <Molecular Formula>
C18H16BrFN6O3S

>  <InChI>
InChI=1S/C18H16BrFN6O3S/c1-9-7-10(5-6-14(9)30(22,28)29)24-18-23-8-11(19)17(26-18)25-13-4-2-3-12(20)15(13)16(21)27/h2-8H,1H3,(H2,21,27)(H2,22,28,29)(H2,23,24,25,26)

>  <InChI Key>
IDMHFFLVANCQJA-UHFFFAOYSA-N

>  <BindingDB>


>  <PubChem>


>  <ChEMBL>


$$$$
131
Actelion Java MolfileCreator 2.0

  0  0  0  0  0  0              0 V3000
M  V30 BEGIN CTAB
M  V30 COUNTS 30 32 0 0 0
M  V30 BEGIN ATOM
M  V30 1 Br 2.598 1.0 0.0 0
M  V30 2 C 2.598 0.0 0.0 0
M  V30 3 C 1.732 -0.5 0.0 0
M  V30 4 C 3.4641 -0.4999 0.0 0
M  V30 5 N 1.732 -1.5 0.0 0
M  V30 6 N 0.866 0.0 0.0 0
M  V30 7 N 3.4641 -1.4999 0.0 0
M  V30 8 C 2.598 -1.9999 0.0 0
M  V30 9 C 0.0 -0.5 0.0 0
M  V30 10 N 2.598 -2.9999 0.0 0
M  V30 11 C -0.866 0.0 0.0 0
M  V30 12 C 0.0 -1.4999 0.0 0
M  V30 13 C 3.4641 -3.4999 0.0 0
M  V30 14 C -1.732 -0.4999 0.0 0
M  V30 15 C -0.866 1.0 0.0 0
M  V30 16 C -0.866 -1.9999 0.0 0
M  V30 17 C 3.4641 -4.4999 0.0 0
M  V30 18 C 4.3301 -2.9999 0.0 0
M  V30 19 F -2.598 0.0 0.0 0
M  V30 20 C -1.732 -1.4999 0.0 0
M  V30 21 O 0.0 1.5 0.0 0
M  V30 22 N -1.732 1.5 0.0 0
M  V30 23 C 4.3301 -4.9999 0.0 0
M  V30 24 C 5.1961 -3.4999 0.0 0
M  V30 25 C 5.1961 -4.4999 0.0 0
M  V30 26 C 4.3301 -5.9999 0.0 0
M  V30 27 S 6.0621 -4.9999 0.0 0
M  V30 28 O 5.5621 -5.866 0.0 0
M  V30 29 O 6.5621 -4.1339 0.0 0
M  V30 30 N 6.9282 -5.4999 0.0 0
M  V30 END ATOM
M  V30 BEGIN BOND
M  V30 1 1 1 2
M  V30 2 2 2 3
M  V30 3 1 2 4
M  V30 4 1 3 5
M  V30 5 1 3 6
M  V30 6 2 4 7
M  V30 7 2 5 8
M  V30 8 1 6 9
M  V30 9 1 8 10
M  V30 10 2 9 11
M  V30 11 1 9 12
M  V30 12 1 10 13
M  V30 13 1 11 14
M  V30 14 1 11 15
M  V30 15 2 12 16
M  V30 16 2 13 17
M  V30 17 1 13 18
M  V30 18 1 14 19
M  V30 19 2 14 20
M  V30 20 2 15 21
M  V30 21 1 15 22
M  V30 22 1 17 23
M  V30 23 2 18 24
M  V30 24 2 23 25
M  V30 25 1 23 26
M  V30 26 1 25 27
M  V30 27 2 27 28
M  V30 28 2 27 29
M  V30 29 1 27 30
M  V30 30 1 7 8
M  V30 31 1 16 20
M  V30 32 1 24 25
M  V30 END BOND
M  V30 END CTAB
M  END
>  <Molecule Name>
Compound 435

>  <Molecule Name 2>
Compound 435

>  <Compound ID>
131

>  <Name>
TMX-3012

>  <Uniprot>
P49759

>  <Target>
CLK1

>  <Smiles>
CC1=CC(NC2=NC=C(Br)C(NC3=CC=CC(F)=C3C(N)=O)=N2)=CC=C1S(N)(=O)=O

>  <Kd (nM)>


>  <Assay (Kd)>


>  <Ki (nM)>


>  <Assay (Ki)>


>  <IC50 (nM)>


>  <Assay (IC50)>


>  <EC50 (nM)>


>  <Assay (EC50)>


>  <Article DOI>
10.1016/j.cell.2020.10.038

>  <Molecular Weight>
495.334

>  <Exact Mass>
494.0171997

>  <XLogP3>
3.1

>  <Heavy Atom Count>
30

>  <Ring Count>
3

>  <Hydrogen Bond Acceptor Count>
7

>  <Hydrogen Bond Donor Count>
4

>  <Rotatable Bond Count>
6

>  <Topological Polar Surface Area>
153.09

>  <Molecular Formula>
C18H16BrFN6O3S

>  <InChI>
InChI=1S/C18H16BrFN6O3S/c1-9-7-10(5-6-14(9)30(22,28)29)24-18-23-8-11(19)17(26-18)25-13-4-2-3-12(20)15(13)16(21)27/h2-8H,1H3,(H2,21,27)(H2,22,28,29)(H2,23,24,25,26)

>  <InChI Key>
IDMHFFLVANCQJA-UHFFFAOYSA-N

>  <BindingDB>


>  <PubChem>


>  <ChEMBL>


$$$$
131
Actelion Java MolfileCreator 2.0

  0  0  0  0  0  0              0 V3000
M  V30 BEGIN CTAB
M  V30 COUNTS 30 32 0 0 0
M  V30 BEGIN ATOM
M  V30 1 Br 2.598 1.0 0.0 0
M  V30 2 C 2.598 0.0 0.0 0
M  V30 3 C 1.732 -0.5 0.0 0
M  V30 4 C 3.4641 -0.4999 0.0 0
M  V30 5 N 1.732 -1.5 0.0 0
M  V30 6 N 0.866 0.0 0.0 0
M  V30 7 N 3.4641 -1.4999 0.0 0
M  V30 8 C 2.598 -1.9999 0.0 0
M  V30 9 C 0.0 -0.5 0.0 0
M  V30 10 N 2.598 -2.9999 0.0 0
M  V30 11 C -0.866 0.0 0.0 0
M  V30 12 C 0.0 -1.4999 0.0 0
M  V30 13 C 3.4641 -3.4999 0.0 0
M  V30 14 C -1.732 -0.4999 0.0 0
M  V30 15 C -0.866 1.0 0.0 0
M  V30 16 C -0.866 -1.9999 0.0 0
M  V30 17 C 3.4641 -4.4999 0.0 0
M  V30 18 C 4.3301 -2.9999 0.0 0
M  V30 19 F -2.598 0.0 0.0 0
M  V30 20 C -1.732 -1.4999 0.0 0
M  V30 21 O 0.0 1.5 0.0 0
M  V30 22 N -1.732 1.5 0.0 0
M  V30 23 C 4.3301 -4.9999 0.0 0
M  V30 24 C 5.1961 -3.4999 0.0 0
M  V30 25 C 5.1961 -4.4999 0.0 0
M  V30 26 C 4.3301 -5.9999 0.0 0
M  V30 27 S 6.0621 -4.9999 0.0 0
M  V30 28 O 5.5621 -5.866 0.0 0
M  V30 29 O 6.5621 -4.1339 0.0 0
M  V30 30 N 6.9282 -5.4999 0.0 0
M  V30 END ATOM
M  V30 BEGIN BOND
M  V30 1 1 1 2
M  V30 2 2 2 3
M  V30 3 1 2 4
M  V30 4 1 3 5
M  V30 5 1 3 6
M  V30 6 2 4 7
M  V30 7 2 5 8
M  V30 8 1 6 9
M  V30 9 1 8 10
M  V30 10 2 9 11
M  V30 11 1 9 12
M  V30 12 1 10 13
M  V30 13 1 11 14
M  V30 14 1 11 15
M  V30 15 2 12 16
M  V30 16 2 13 17
M  V30 17 1 13 18
M  V30 18 1 14 19
M  V30 19 2 14 20
M  V30 20 2 15 21
M  V30 21 1 15 22
M  V30 22 1 17 23
M  V30 23 2 18 24
M  V30 24 2 23 25
M  V30 25 1 23 26
M  V30 26 1 25 27
M  V30 27 2 27 28
M  V30 28 2 27 29
M  V30 29 1 27 30
M  V30 30 1 7 8
M  V30 31 1 16 20
M  V30 32 1 24 25
M  V30 END BOND
M  V30 END CTAB
M  END
>  <Molecule Name>
Compound 436

>  <Molecule Name 2>
Compound 436

>  <Compound ID>
131

>  <Name>
TMX-3012

>  <Uniprot>
Q05397

>  <Target>
FAK

>  <Smiles>
CC1=CC(NC2=NC=C(Br)C(NC3=CC=CC(F)=C3C(N)=O)=N2)=CC=C1S(N)(=O)=O

>  <Kd (nM)>


>  <Assay (Kd)>


>  <Ki (nM)>


>  <Assay (Ki)>


>  <IC50 (nM)>


>  <Assay (IC50)>


>  <EC50 (nM)>


>  <Assay (EC50)>


>  <Article DOI>
10.1016/j.cell.2020.10.038

>  <Molecular Weight>
495.334

>  <Exact Mass>
494.0171997

>  <XLogP3>
3.1

>  <Heavy Atom Count>
30

>  <Ring Count>
3

>  <Hydrogen Bond Acceptor Count>
7

>  <Hydrogen Bond Donor Count>
4

>  <Rotatable Bond Count>
6

>  <Topological Polar Surface Area>
153.09

>  <Molecular Formula>
C18H16BrFN6O3S

>  <InChI>
InChI=1S/C18H16BrFN6O3S/c1-9-7-10(5-6-14(9)30(22,28)29)24-18-23-8-11(19)17(26-18)25-13-4-2-3-12(20)15(13)16(21)27/h2-8H,1H3,(H2,21,27)(H2,22,28,29)(H2,23,24,25,26)

>  <InChI Key>
IDMHFFLVANCQJA-UHFFFAOYSA-N

>  <BindingDB>


>  <PubChem>


>  <ChEMBL>


$$$$
131
Actelion Java MolfileCreator 2.0

  0  0  0  0  0  0              0 V3000
M  V30 BEGIN CTAB
M  V30 COUNTS 30 32 0 0 0
M  V30 BEGIN ATOM
M  V30 1 Br 2.598 1.0 0.0 0
M  V30 2 C 2.598 0.0 0.0 0
M  V30 3 C 1.732 -0.5 0.0 0
M  V30 4 C 3.4641 -0.4999 0.0 0
M  V30 5 N 1.732 -1.5 0.0 0
M  V30 6 N 0.866 0.0 0.0 0
M  V30 7 N 3.4641 -1.4999 0.0 0
M  V30 8 C 2.598 -1.9999 0.0 0
M  V30 9 C 0.0 -0.5 0.0 0
M  V30 10 N 2.598 -2.9999 0.0 0
M  V30 11 C -0.866 0.0 0.0 0
M  V30 12 C 0.0 -1.4999 0.0 0
M  V30 13 C 3.4641 -3.4999 0.0 0
M  V30 14 C -1.732 -0.4999 0.0 0
M  V30 15 C -0.866 1.0 0.0 0
M  V30 16 C -0.866 -1.9999 0.0 0
M  V30 17 C 3.4641 -4.4999 0.0 0
M  V30 18 C 4.3301 -2.9999 0.0 0
M  V30 19 F -2.598 0.0 0.0 0
M  V30 20 C -1.732 -1.4999 0.0 0
M  V30 21 O 0.0 1.5 0.0 0
M  V30 22 N -1.732 1.5 0.0 0
M  V30 23 C 4.3301 -4.9999 0.0 0
M  V30 24 C 5.1961 -3.4999 0.0 0
M  V30 25 C 5.1961 -4.4999 0.0 0
M  V30 26 C 4.3301 -5.9999 0.0 0
M  V30 27 S 6.0621 -4.9999 0.0 0
M  V30 28 O 5.5621 -5.866 0.0 0
M  V30 29 O 6.5621 -4.1339 0.0 0
M  V30 30 N 6.9282 -5.4999 0.0 0
M  V30 END ATOM
M  V30 BEGIN BOND
M  V30 1 1 1 2
M  V30 2 2 2 3
M  V30 3 1 2 4
M  V30 4 1 3 5
M  V30 5 1 3 6
M  V30 6 2 4 7
M  V30 7 2 5 8
M  V30 8 1 6 9
M  V30 9 1 8 10
M  V30 10 2 9 11
M  V30 11 1 9 12
M  V30 12 1 10 13
M  V30 13 1 11 14
M  V30 14 1 11 15
M  V30 15 2 12 16
M  V30 16 2 13 17
M  V30 17 1 13 18
M  V30 18 1 14 19
M  V30 19 2 14 20
M  V30 20 2 15 21
M  V30 21 1 15 22
M  V30 22 1 17 23
M  V30 23 2 18 24
M  V30 24 2 23 25
M  V30 25 1 23 26
M  V30 26 1 25 27
M  V30 27 2 27 28
M  V30 28 2 27 29
M  V30 29 1 27 30
M  V30 30 1 7 8
M  V30 31 1 16 20
M  V30 32 1 24 25
M  V30 END BOND
M  V30 END CTAB
M  END
>  <Molecule Name>
Compound 437

>  <Molecule Name 2>
Compound 437

>  <Compound ID>
131

>  <Name>
TMX-3012

>  <Uniprot>
P16591

>  <Target>
FER

>  <Smiles>
CC1=CC(NC2=NC=C(Br)C(NC3=CC=CC(F)=C3C(N)=O)=N2)=CC=C1S(N)(=O)=O

>  <Kd (nM)>


>  <Assay (Kd)>


>  <Ki (nM)>


>  <Assay (Ki)>


>  <IC50 (nM)>


>  <Assay (IC50)>


>  <EC50 (nM)>


>  <Assay (EC50)>


>  <Article DOI>
10.1016/j.cell.2020.10.038

>  <Molecular Weight>
495.334

>  <Exact Mass>
494.0171997

>  <XLogP3>
3.1

>  <Heavy Atom Count>
30

>  <Ring Count>
3

>  <Hydrogen Bond Acceptor Count>
7

>  <Hydrogen Bond Donor Count>
4

>  <Rotatable Bond Count>
6

>  <Topological Polar Surface Area>
153.09

>  <Molecular Formula>
C18H16BrFN6O3S

>  <InChI>
InChI=1S/C18H16BrFN6O3S/c1-9-7-10(5-6-14(9)30(22,28)29)24-18-23-8-11(19)17(26-18)25-13-4-2-3-12(20)15(13)16(21)27/h2-8H,1H3,(H2,21,27)(H2,22,28,29)(H2,23,24,25,26)

>  <InChI Key>
IDMHFFLVANCQJA-UHFFFAOYSA-N

>  <BindingDB>


>  <PubChem>


>  <ChEMBL>


$$$$
131
Actelion Java MolfileCreator 2.0

  0  0  0  0  0  0              0 V3000
M  V30 BEGIN CTAB
M  V30 COUNTS 30 32 0 0 0
M  V30 BEGIN ATOM
M  V30 1 Br 2.598 1.0 0.0 0
M  V30 2 C 2.598 0.0 0.0 0
M  V30 3 C 1.732 -0.5 0.0 0
M  V30 4 C 3.4641 -0.4999 0.0 0
M  V30 5 N 1.732 -1.5 0.0 0
M  V30 6 N 0.866 0.0 0.0 0
M  V30 7 N 3.4641 -1.4999 0.0 0
M  V30 8 C 2.598 -1.9999 0.0 0
M  V30 9 C 0.0 -0.5 0.0 0
M  V30 10 N 2.598 -2.9999 0.0 0
M  V30 11 C -0.866 0.0 0.0 0
M  V30 12 C 0.0 -1.4999 0.0 0
M  V30 13 C 3.4641 -3.4999 0.0 0
M  V30 14 C -1.732 -0.4999 0.0 0
M  V30 15 C -0.866 1.0 0.0 0
M  V30 16 C -0.866 -1.9999 0.0 0
M  V30 17 C 3.4641 -4.4999 0.0 0
M  V30 18 C 4.3301 -2.9999 0.0 0
M  V30 19 F -2.598 0.0 0.0 0
M  V30 20 C -1.732 -1.4999 0.0 0
M  V30 21 O 0.0 1.5 0.0 0
M  V30 22 N -1.732 1.5 0.0 0
M  V30 23 C 4.3301 -4.9999 0.0 0
M  V30 24 C 5.1961 -3.4999 0.0 0
M  V30 25 C 5.1961 -4.4999 0.0 0
M  V30 26 C 4.3301 -5.9999 0.0 0
M  V30 27 S 6.0621 -4.9999 0.0 0
M  V30 28 O 5.5621 -5.866 0.0 0
M  V30 29 O 6.5621 -4.1339 0.0 0
M  V30 30 N 6.9282 -5.4999 0.0 0
M  V30 END ATOM
M  V30 BEGIN BOND
M  V30 1 1 1 2
M  V30 2 2 2 3
M  V30 3 1 2 4
M  V30 4 1 3 5
M  V30 5 1 3 6
M  V30 6 2 4 7
M  V30 7 2 5 8
M  V30 8 1 6 9
M  V30 9 1 8 10
M  V30 10 2 9 11
M  V30 11 1 9 12
M  V30 12 1 10 13
M  V30 13 1 11 14
M  V30 14 1 11 15
M  V30 15 2 12 16
M  V30 16 2 13 17
M  V30 17 1 13 18
M  V30 18 1 14 19
M  V30 19 2 14 20
M  V30 20 2 15 21
M  V30 21 1 15 22
M  V30 22 1 17 23
M  V30 23 2 18 24
M  V30 24 2 23 25
M  V30 25 1 23 26
M  V30 26 1 25 27
M  V30 27 2 27 28
M  V30 28 2 27 29
M  V30 29 1 27 30
M  V30 30 1 7 8
M  V30 31 1 16 20
M  V30 32 1 24 25
M  V30 END BOND
M  V30 END CTAB
M  END
>  <Molecule Name>
Compound 438

>  <Molecule Name 2>
Compound 438

>  <Compound ID>
131

>  <Name>
TMX-3012

>  <Uniprot>
P49840

>  <Target>
GSK3A

>  <Smiles>
CC1=CC(NC2=NC=C(Br)C(NC3=CC=CC(F)=C3C(N)=O)=N2)=CC=C1S(N)(=O)=O

>  <Kd (nM)>


>  <Assay (Kd)>


>  <Ki (nM)>


>  <Assay (Ki)>


>  <IC50 (nM)>


>  <Assay (IC50)>


>  <EC50 (nM)>


>  <Assay (EC50)>


>  <Article DOI>
10.1016/j.cell.2020.10.038

>  <Molecular Weight>
495.334

>  <Exact Mass>
494.0171997

>  <XLogP3>
3.1

>  <Heavy Atom Count>
30

>  <Ring Count>
3

>  <Hydrogen Bond Acceptor Count>
7

>  <Hydrogen Bond Donor Count>
4

>  <Rotatable Bond Count>
6

>  <Topological Polar Surface Area>
153.09

>  <Molecular Formula>
C18H16BrFN6O3S

>  <InChI>
InChI=1S/C18H16BrFN6O3S/c1-9-7-10(5-6-14(9)30(22,28)29)24-18-23-8-11(19)17(26-18)25-13-4-2-3-12(20)15(13)16(21)27/h2-8H,1H3,(H2,21,27)(H2,22,28,29)(H2,23,24,25,26)

>  <InChI Key>
IDMHFFLVANCQJA-UHFFFAOYSA-N

>  <BindingDB>


>  <PubChem>


>  <ChEMBL>


$$$$
131
Actelion Java MolfileCreator 2.0

  0  0  0  0  0  0              0 V3000
M  V30 BEGIN CTAB
M  V30 COUNTS 30 32 0 0 0
M  V30 BEGIN ATOM
M  V30 1 Br 2.598 1.0 0.0 0
M  V30 2 C 2.598 0.0 0.0 0
M  V30 3 C 1.732 -0.5 0.0 0
M  V30 4 C 3.4641 -0.4999 0.0 0
M  V30 5 N 1.732 -1.5 0.0 0
M  V30 6 N 0.866 0.0 0.0 0
M  V30 7 N 3.4641 -1.4999 0.0 0
M  V30 8 C 2.598 -1.9999 0.0 0
M  V30 9 C 0.0 -0.5 0.0 0
M  V30 10 N 2.598 -2.9999 0.0 0
M  V30 11 C -0.866 0.0 0.0 0
M  V30 12 C 0.0 -1.4999 0.0 0
M  V30 13 C 3.4641 -3.4999 0.0 0
M  V30 14 C -1.732 -0.4999 0.0 0
M  V30 15 C -0.866 1.0 0.0 0
M  V30 16 C -0.866 -1.9999 0.0 0
M  V30 17 C 3.4641 -4.4999 0.0 0
M  V30 18 C 4.3301 -2.9999 0.0 0
M  V30 19 F -2.598 0.0 0.0 0
M  V30 20 C -1.732 -1.4999 0.0 0
M  V30 21 O 0.0 1.5 0.0 0
M  V30 22 N -1.732 1.5 0.0 0
M  V30 23 C 4.3301 -4.9999 0.0 0
M  V30 24 C 5.1961 -3.4999 0.0 0
M  V30 25 C 5.1961 -4.4999 0.0 0
M  V30 26 C 4.3301 -5.9999 0.0 0
M  V30 27 S 6.0621 -4.9999 0.0 0
M  V30 28 O 5.5621 -5.866 0.0 0
M  V30 29 O 6.5621 -4.1339 0.0 0
M  V30 30 N 6.9282 -5.4999 0.0 0
M  V30 END ATOM
M  V30 BEGIN BOND
M  V30 1 1 1 2
M  V30 2 2 2 3
M  V30 3 1 2 4
M  V30 4 1 3 5
M  V30 5 1 3 6
M  V30 6 2 4 7
M  V30 7 2 5 8
M  V30 8 1 6 9
M  V30 9 1 8 10
M  V30 10 2 9 11
M  V30 11 1 9 12
M  V30 12 1 10 13
M  V30 13 1 11 14
M  V30 14 1 11 15
M  V30 15 2 12 16
M  V30 16 2 13 17
M  V30 17 1 13 18
M  V30 18 1 14 19
M  V30 19 2 14 20
M  V30 20 2 15 21
M  V30 21 1 15 22
M  V30 22 1 17 23
M  V30 23 2 18 24
M  V30 24 2 23 25
M  V30 25 1 23 26
M  V30 26 1 25 27
M  V30 27 2 27 28
M  V30 28 2 27 29
M  V30 29 1 27 30
M  V30 30 1 7 8
M  V30 31 1 16 20
M  V30 32 1 24 25
M  V30 END BOND
M  V30 END CTAB
M  END
>  <Molecule Name>
Compound 439

>  <Molecule Name 2>
Compound 439

>  <Compound ID>
131

>  <Name>
TMX-3012

>  <Uniprot>
P49841

>  <Target>
GSK-3beta

>  <Smiles>
CC1=CC(NC2=NC=C(Br)C(NC3=CC=CC(F)=C3C(N)=O)=N2)=CC=C1S(N)(=O)=O

>  <Kd (nM)>


>  <Assay (Kd)>


>  <Ki (nM)>


>  <Assay (Ki)>


>  <IC50 (nM)>


>  <Assay (IC50)>


>  <EC50 (nM)>


>  <Assay (EC50)>


>  <Article DOI>
10.1016/j.cell.2020.10.038

>  <Molecular Weight>
495.334

>  <Exact Mass>
494.0171997

>  <XLogP3>
3.1

>  <Heavy Atom Count>
30

>  <Ring Count>
3

>  <Hydrogen Bond Acceptor Count>
7

>  <Hydrogen Bond Donor Count>
4

>  <Rotatable Bond Count>
6

>  <Topological Polar Surface Area>
153.09

>  <Molecular Formula>
C18H16BrFN6O3S

>  <InChI>
InChI=1S/C18H16BrFN6O3S/c1-9-7-10(5-6-14(9)30(22,28)29)24-18-23-8-11(19)17(26-18)25-13-4-2-3-12(20)15(13)16(21)27/h2-8H,1H3,(H2,21,27)(H2,22,28,29)(H2,23,24,25,26)

>  <InChI Key>
IDMHFFLVANCQJA-UHFFFAOYSA-N

>  <BindingDB>


>  <PubChem>


>  <ChEMBL>


$$$$
131
Actelion Java MolfileCreator 2.0

  0  0  0  0  0  0              0 V3000
M  V30 BEGIN CTAB
M  V30 COUNTS 30 32 0 0 0
M  V30 BEGIN ATOM
M  V30 1 Br 2.598 1.0 0.0 0
M  V30 2 C 2.598 0.0 0.0 0
M  V30 3 C 1.732 -0.5 0.0 0
M  V30 4 C 3.4641 -0.4999 0.0 0
M  V30 5 N 1.732 -1.5 0.0 0
M  V30 6 N 0.866 0.0 0.0 0
M  V30 7 N 3.4641 -1.4999 0.0 0
M  V30 8 C 2.598 -1.9999 0.0 0
M  V30 9 C 0.0 -0.5 0.0 0
M  V30 10 N 2.598 -2.9999 0.0 0
M  V30 11 C -0.866 0.0 0.0 0
M  V30 12 C 0.0 -1.4999 0.0 0
M  V30 13 C 3.4641 -3.4999 0.0 0
M  V30 14 C -1.732 -0.4999 0.0 0
M  V30 15 C -0.866 1.0 0.0 0
M  V30 16 C -0.866 -1.9999 0.0 0
M  V30 17 C 3.4641 -4.4999 0.0 0
M  V30 18 C 4.3301 -2.9999 0.0 0
M  V30 19 F -2.598 0.0 0.0 0
M  V30 20 C -1.732 -1.4999 0.0 0
M  V30 21 O 0.0 1.5 0.0 0
M  V30 22 N -1.732 1.5 0.0 0
M  V30 23 C 4.3301 -4.9999 0.0 0
M  V30 24 C 5.1961 -3.4999 0.0 0
M  V30 25 C 5.1961 -4.4999 0.0 0
M  V30 26 C 4.3301 -5.9999 0.0 0
M  V30 27 S 6.0621 -4.9999 0.0 0
M  V30 28 O 5.5621 -5.866 0.0 0
M  V30 29 O 6.5621 -4.1339 0.0 0
M  V30 30 N 6.9282 -5.4999 0.0 0
M  V30 END ATOM
M  V30 BEGIN BOND
M  V30 1 1 1 2
M  V30 2 2 2 3
M  V30 3 1 2 4
M  V30 4 1 3 5
M  V30 5 1 3 6
M  V30 6 2 4 7
M  V30 7 2 5 8
M  V30 8 1 6 9
M  V30 9 1 8 10
M  V30 10 2 9 11
M  V30 11 1 9 12
M  V30 12 1 10 13
M  V30 13 1 11 14
M  V30 14 1 11 15
M  V30 15 2 12 16
M  V30 16 2 13 17
M  V30 17 1 13 18
M  V30 18 1 14 19
M  V30 19 2 14 20
M  V30 20 2 15 21
M  V30 21 1 15 22
M  V30 22 1 17 23
M  V30 23 2 18 24
M  V30 24 2 23 25
M  V30 25 1 23 26
M  V30 26 1 25 27
M  V30 27 2 27 28
M  V30 28 2 27 29
M  V30 29 1 27 30
M  V30 30 1 7 8
M  V30 31 1 16 20
M  V30 32 1 24 25
M  V30 END BOND
M  V30 END CTAB
M  END
>  <Molecule Name>
Compound 440

>  <Molecule Name 2>
Compound 440

>  <Compound ID>
131

>  <Name>
TMX-3012

>  <Uniprot>
Q9Y616

>  <Target>
IRAK3

>  <Smiles>
CC1=CC(NC2=NC=C(Br)C(NC3=CC=CC(F)=C3C(N)=O)=N2)=CC=C1S(N)(=O)=O

>  <Kd (nM)>


>  <Assay (Kd)>


>  <Ki (nM)>


>  <Assay (Ki)>


>  <IC50 (nM)>


>  <Assay (IC50)>


>  <EC50 (nM)>


>  <Assay (EC50)>


>  <Article DOI>
10.1016/j.cell.2020.10.038

>  <Molecular Weight>
495.334

>  <Exact Mass>
494.0171997

>  <XLogP3>
3.1

>  <Heavy Atom Count>
30

>  <Ring Count>
3

>  <Hydrogen Bond Acceptor Count>
7

>  <Hydrogen Bond Donor Count>
4

>  <Rotatable Bond Count>
6

>  <Topological Polar Surface Area>
153.09

>  <Molecular Formula>
C18H16BrFN6O3S

>  <InChI>
InChI=1S/C18H16BrFN6O3S/c1-9-7-10(5-6-14(9)30(22,28)29)24-18-23-8-11(19)17(26-18)25-13-4-2-3-12(20)15(13)16(21)27/h2-8H,1H3,(H2,21,27)(H2,22,28,29)(H2,23,24,25,26)

>  <InChI Key>
IDMHFFLVANCQJA-UHFFFAOYSA-N

>  <BindingDB>


>  <PubChem>


>  <ChEMBL>


$$$$
131
Actelion Java MolfileCreator 2.0

  0  0  0  0  0  0              0 V3000
M  V30 BEGIN CTAB
M  V30 COUNTS 30 32 0 0 0
M  V30 BEGIN ATOM
M  V30 1 Br 2.598 1.0 0.0 0
M  V30 2 C 2.598 0.0 0.0 0
M  V30 3 C 1.732 -0.5 0.0 0
M  V30 4 C 3.4641 -0.4999 0.0 0
M  V30 5 N 1.732 -1.5 0.0 0
M  V30 6 N 0.866 0.0 0.0 0
M  V30 7 N 3.4641 -1.4999 0.0 0
M  V30 8 C 2.598 -1.9999 0.0 0
M  V30 9 C 0.0 -0.5 0.0 0
M  V30 10 N 2.598 -2.9999 0.0 0
M  V30 11 C -0.866 0.0 0.0 0
M  V30 12 C 0.0 -1.4999 0.0 0
M  V30 13 C 3.4641 -3.4999 0.0 0
M  V30 14 C -1.732 -0.4999 0.0 0
M  V30 15 C -0.866 1.0 0.0 0
M  V30 16 C -0.866 -1.9999 0.0 0
M  V30 17 C 3.4641 -4.4999 0.0 0
M  V30 18 C 4.3301 -2.9999 0.0 0
M  V30 19 F -2.598 0.0 0.0 0
M  V30 20 C -1.732 -1.4999 0.0 0
M  V30 21 O 0.0 1.5 0.0 0
M  V30 22 N -1.732 1.5 0.0 0
M  V30 23 C 4.3301 -4.9999 0.0 0
M  V30 24 C 5.1961 -3.4999 0.0 0
M  V30 25 C 5.1961 -4.4999 0.0 0
M  V30 26 C 4.3301 -5.9999 0.0 0
M  V30 27 S 6.0621 -4.9999 0.0 0
M  V30 28 O 5.5621 -5.866 0.0 0
M  V30 29 O 6.5621 -4.1339 0.0 0
M  V30 30 N 6.9282 -5.4999 0.0 0
M  V30 END ATOM
M  V30 BEGIN BOND
M  V30 1 1 1 2
M  V30 2 2 2 3
M  V30 3 1 2 4
M  V30 4 1 3 5
M  V30 5 1 3 6
M  V30 6 2 4 7
M  V30 7 2 5 8
M  V30 8 1 6 9
M  V30 9 1 8 10
M  V30 10 2 9 11
M  V30 11 1 9 12
M  V30 12 1 10 13
M  V30 13 1 11 14
M  V30 14 1 11 15
M  V30 15 2 12 16
M  V30 16 2 13 17
M  V30 17 1 13 18
M  V30 18 1 14 19
M  V30 19 2 14 20
M  V30 20 2 15 21
M  V30 21 1 15 22
M  V30 22 1 17 23
M  V30 23 2 18 24
M  V30 24 2 23 25
M  V30 25 1 23 26
M  V30 26 1 25 27
M  V30 27 2 27 28
M  V30 28 2 27 29
M  V30 29 1 27 30
M  V30 30 1 7 8
M  V30 31 1 16 20
M  V30 32 1 24 25
M  V30 END BOND
M  V30 END CTAB
M  END
>  <Molecule Name>
Compound 441

>  <Molecule Name 2>
Compound 441

>  <Compound ID>
131

>  <Name>
TMX-3012

>  <Uniprot>
Q16584

>  <Target>
MAP3K11

>  <Smiles>
CC1=CC(NC2=NC=C(Br)C(NC3=CC=CC(F)=C3C(N)=O)=N2)=CC=C1S(N)(=O)=O

>  <Kd (nM)>


>  <Assay (Kd)>


>  <Ki (nM)>


>  <Assay (Ki)>


>  <IC50 (nM)>


>  <Assay (IC50)>


>  <EC50 (nM)>


>  <Assay (EC50)>


>  <Article DOI>
10.1016/j.cell.2020.10.038

>  <Molecular Weight>
495.334

>  <Exact Mass>
494.0171997

>  <XLogP3>
3.1

>  <Heavy Atom Count>
30

>  <Ring Count>
3

>  <Hydrogen Bond Acceptor Count>
7

>  <Hydrogen Bond Donor Count>
4

>  <Rotatable Bond Count>
6

>  <Topological Polar Surface Area>
153.09

>  <Molecular Formula>
C18H16BrFN6O3S

>  <InChI>
InChI=1S/C18H16BrFN6O3S/c1-9-7-10(5-6-14(9)30(22,28)29)24-18-23-8-11(19)17(26-18)25-13-4-2-3-12(20)15(13)16(21)27/h2-8H,1H3,(H2,21,27)(H2,22,28,29)(H2,23,24,25,26)

>  <InChI Key>
IDMHFFLVANCQJA-UHFFFAOYSA-N

>  <BindingDB>


>  <PubChem>


>  <ChEMBL>


$$$$
131
Actelion Java MolfileCreator 2.0

  0  0  0  0  0  0              0 V3000
M  V30 BEGIN CTAB
M  V30 COUNTS 30 32 0 0 0
M  V30 BEGIN ATOM
M  V30 1 Br 2.598 1.0 0.0 0
M  V30 2 C 2.598 0.0 0.0 0
M  V30 3 C 1.732 -0.5 0.0 0
M  V30 4 C 3.4641 -0.4999 0.0 0
M  V30 5 N 1.732 -1.5 0.0 0
M  V30 6 N 0.866 0.0 0.0 0
M  V30 7 N 3.4641 -1.4999 0.0 0
M  V30 8 C 2.598 -1.9999 0.0 0
M  V30 9 C 0.0 -0.5 0.0 0
M  V30 10 N 2.598 -2.9999 0.0 0
M  V30 11 C -0.866 0.0 0.0 0
M  V30 12 C 0.0 -1.4999 0.0 0
M  V30 13 C 3.4641 -3.4999 0.0 0
M  V30 14 C -1.732 -0.4999 0.0 0
M  V30 15 C -0.866 1.0 0.0 0
M  V30 16 C -0.866 -1.9999 0.0 0
M  V30 17 C 3.4641 -4.4999 0.0 0
M  V30 18 C 4.3301 -2.9999 0.0 0
M  V30 19 F -2.598 0.0 0.0 0
M  V30 20 C -1.732 -1.4999 0.0 0
M  V30 21 O 0.0 1.5 0.0 0
M  V30 22 N -1.732 1.5 0.0 0
M  V30 23 C 4.3301 -4.9999 0.0 0
M  V30 24 C 5.1961 -3.4999 0.0 0
M  V30 25 C 5.1961 -4.4999 0.0 0
M  V30 26 C 4.3301 -5.9999 0.0 0
M  V30 27 S 6.0621 -4.9999 0.0 0
M  V30 28 O 5.5621 -5.866 0.0 0
M  V30 29 O 6.5621 -4.1339 0.0 0
M  V30 30 N 6.9282 -5.4999 0.0 0
M  V30 END ATOM
M  V30 BEGIN BOND
M  V30 1 1 1 2
M  V30 2 2 2 3
M  V30 3 1 2 4
M  V30 4 1 3 5
M  V30 5 1 3 6
M  V30 6 2 4 7
M  V30 7 2 5 8
M  V30 8 1 6 9
M  V30 9 1 8 10
M  V30 10 2 9 11
M  V30 11 1 9 12
M  V30 12 1 10 13
M  V30 13 1 11 14
M  V30 14 1 11 15
M  V30 15 2 12 16
M  V30 16 2 13 17
M  V30 17 1 13 18
M  V30 18 1 14 19
M  V30 19 2 14 20
M  V30 20 2 15 21
M  V30 21 1 15 22
M  V30 22 1 17 23
M  V30 23 2 18 24
M  V30 24 2 23 25
M  V30 25 1 23 26
M  V30 26 1 25 27
M  V30 27 2 27 28
M  V30 28 2 27 29
M  V30 29 1 27 30
M  V30 30 1 7 8
M  V30 31 1 16 20
M  V30 32 1 24 25
M  V30 END BOND
M  V30 END CTAB
M  END
>  <Molecule Name>
Compound 442

>  <Molecule Name 2>
Compound 442

>  <Compound ID>
131

>  <Name>
TMX-3012

>  <Uniprot>
P45983

>  <Target>
MAPK8

>  <Smiles>
CC1=CC(NC2=NC=C(Br)C(NC3=CC=CC(F)=C3C(N)=O)=N2)=CC=C1S(N)(=O)=O

>  <Kd (nM)>


>  <Assay (Kd)>


>  <Ki (nM)>


>  <Assay (Ki)>


>  <IC50 (nM)>


>  <Assay (IC50)>


>  <EC50 (nM)>


>  <Assay (EC50)>


>  <Article DOI>
10.1016/j.cell.2020.10.038

>  <Molecular Weight>
495.334

>  <Exact Mass>
494.0171997

>  <XLogP3>
3.1

>  <Heavy Atom Count>
30

>  <Ring Count>
3

>  <Hydrogen Bond Acceptor Count>
7

>  <Hydrogen Bond Donor Count>
4

>  <Rotatable Bond Count>
6

>  <Topological Polar Surface Area>
153.09

>  <Molecular Formula>
C18H16BrFN6O3S

>  <InChI>
InChI=1S/C18H16BrFN6O3S/c1-9-7-10(5-6-14(9)30(22,28)29)24-18-23-8-11(19)17(26-18)25-13-4-2-3-12(20)15(13)16(21)27/h2-8H,1H3,(H2,21,27)(H2,22,28,29)(H2,23,24,25,26)

>  <InChI Key>
IDMHFFLVANCQJA-UHFFFAOYSA-N

>  <BindingDB>


>  <PubChem>


>  <ChEMBL>


$$$$
131
Actelion Java MolfileCreator 2.0

  0  0  0  0  0  0              0 V3000
M  V30 BEGIN CTAB
M  V30 COUNTS 30 32 0 0 0
M  V30 BEGIN ATOM
M  V30 1 Br 2.598 1.0 0.0 0
M  V30 2 C 2.598 0.0 0.0 0
M  V30 3 C 1.732 -0.5 0.0 0
M  V30 4 C 3.4641 -0.4999 0.0 0
M  V30 5 N 1.732 -1.5 0.0 0
M  V30 6 N 0.866 0.0 0.0 0
M  V30 7 N 3.4641 -1.4999 0.0 0
M  V30 8 C 2.598 -1.9999 0.0 0
M  V30 9 C 0.0 -0.5 0.0 0
M  V30 10 N 2.598 -2.9999 0.0 0
M  V30 11 C -0.866 0.0 0.0 0
M  V30 12 C 0.0 -1.4999 0.0 0
M  V30 13 C 3.4641 -3.4999 0.0 0
M  V30 14 C -1.732 -0.4999 0.0 0
M  V30 15 C -0.866 1.0 0.0 0
M  V30 16 C -0.866 -1.9999 0.0 0
M  V30 17 C 3.4641 -4.4999 0.0 0
M  V30 18 C 4.3301 -2.9999 0.0 0
M  V30 19 F -2.598 0.0 0.0 0
M  V30 20 C -1.732 -1.4999 0.0 0
M  V30 21 O 0.0 1.5 0.0 0
M  V30 22 N -1.732 1.5 0.0 0
M  V30 23 C 4.3301 -4.9999 0.0 0
M  V30 24 C 5.1961 -3.4999 0.0 0
M  V30 25 C 5.1961 -4.4999 0.0 0
M  V30 26 C 4.3301 -5.9999 0.0 0
M  V30 27 S 6.0621 -4.9999 0.0 0
M  V30 28 O 5.5621 -5.866 0.0 0
M  V30 29 O 6.5621 -4.1339 0.0 0
M  V30 30 N 6.9282 -5.4999 0.0 0
M  V30 END ATOM
M  V30 BEGIN BOND
M  V30 1 1 1 2
M  V30 2 2 2 3
M  V30 3 1 2 4
M  V30 4 1 3 5
M  V30 5 1 3 6
M  V30 6 2 4 7
M  V30 7 2 5 8
M  V30 8 1 6 9
M  V30 9 1 8 10
M  V30 10 2 9 11
M  V30 11 1 9 12
M  V30 12 1 10 13
M  V30 13 1 11 14
M  V30 14 1 11 15
M  V30 15 2 12 16
M  V30 16 2 13 17
M  V30 17 1 13 18
M  V30 18 1 14 19
M  V30 19 2 14 20
M  V30 20 2 15 21
M  V30 21 1 15 22
M  V30 22 1 17 23
M  V30 23 2 18 24
M  V30 24 2 23 25
M  V30 25 1 23 26
M  V30 26 1 25 27
M  V30 27 2 27 28
M  V30 28 2 27 29
M  V30 29 1 27 30
M  V30 30 1 7 8
M  V30 31 1 16 20
M  V30 32 1 24 25
M  V30 END BOND
M  V30 END CTAB
M  END
>  <Molecule Name>
Compound 443

>  <Molecule Name 2>
Compound 443

>  <Compound ID>
131

>  <Name>
TMX-3012

>  <Uniprot>
P45984

>  <Target>
MAPK9

>  <Smiles>
CC1=CC(NC2=NC=C(Br)C(NC3=CC=CC(F)=C3C(N)=O)=N2)=CC=C1S(N)(=O)=O

>  <Kd (nM)>


>  <Assay (Kd)>


>  <Ki (nM)>


>  <Assay (Ki)>


>  <IC50 (nM)>


>  <Assay (IC50)>


>  <EC50 (nM)>


>  <Assay (EC50)>


>  <Article DOI>
10.1016/j.cell.2020.10.038

>  <Molecular Weight>
495.334

>  <Exact Mass>
494.0171997

>  <XLogP3>
3.1

>  <Heavy Atom Count>
30

>  <Ring Count>
3

>  <Hydrogen Bond Acceptor Count>
7

>  <Hydrogen Bond Donor Count>
4

>  <Rotatable Bond Count>
6

>  <Topological Polar Surface Area>
153.09

>  <Molecular Formula>
C18H16BrFN6O3S

>  <InChI>
InChI=1S/C18H16BrFN6O3S/c1-9-7-10(5-6-14(9)30(22,28)29)24-18-23-8-11(19)17(26-18)25-13-4-2-3-12(20)15(13)16(21)27/h2-8H,1H3,(H2,21,27)(H2,22,28,29)(H2,23,24,25,26)

>  <InChI Key>
IDMHFFLVANCQJA-UHFFFAOYSA-N

>  <BindingDB>


>  <PubChem>


>  <ChEMBL>


$$$$
131
Actelion Java MolfileCreator 2.0

  0  0  0  0  0  0              0 V3000
M  V30 BEGIN CTAB
M  V30 COUNTS 30 32 0 0 0
M  V30 BEGIN ATOM
M  V30 1 Br 2.598 1.0 0.0 0
M  V30 2 C 2.598 0.0 0.0 0
M  V30 3 C 1.732 -0.5 0.0 0
M  V30 4 C 3.4641 -0.4999 0.0 0
M  V30 5 N 1.732 -1.5 0.0 0
M  V30 6 N 0.866 0.0 0.0 0
M  V30 7 N 3.4641 -1.4999 0.0 0
M  V30 8 C 2.598 -1.9999 0.0 0
M  V30 9 C 0.0 -0.5 0.0 0
M  V30 10 N 2.598 -2.9999 0.0 0
M  V30 11 C -0.866 0.0 0.0 0
M  V30 12 C 0.0 -1.4999 0.0 0
M  V30 13 C 3.4641 -3.4999 0.0 0
M  V30 14 C -1.732 -0.4999 0.0 0
M  V30 15 C -0.866 1.0 0.0 0
M  V30 16 C -0.866 -1.9999 0.0 0
M  V30 17 C 3.4641 -4.4999 0.0 0
M  V30 18 C 4.3301 -2.9999 0.0 0
M  V30 19 F -2.598 0.0 0.0 0
M  V30 20 C -1.732 -1.4999 0.0 0
M  V30 21 O 0.0 1.5 0.0 0
M  V30 22 N -1.732 1.5 0.0 0
M  V30 23 C 4.3301 -4.9999 0.0 0
M  V30 24 C 5.1961 -3.4999 0.0 0
M  V30 25 C 5.1961 -4.4999 0.0 0
M  V30 26 C 4.3301 -5.9999 0.0 0
M  V30 27 S 6.0621 -4.9999 0.0 0
M  V30 28 O 5.5621 -5.866 0.0 0
M  V30 29 O 6.5621 -4.1339 0.0 0
M  V30 30 N 6.9282 -5.4999 0.0 0
M  V30 END ATOM
M  V30 BEGIN BOND
M  V30 1 1 1 2
M  V30 2 2 2 3
M  V30 3 1 2 4
M  V30 4 1 3 5
M  V30 5 1 3 6
M  V30 6 2 4 7
M  V30 7 2 5 8
M  V30 8 1 6 9
M  V30 9 1 8 10
M  V30 10 2 9 11
M  V30 11 1 9 12
M  V30 12 1 10 13
M  V30 13 1 11 14
M  V30 14 1 11 15
M  V30 15 2 12 16
M  V30 16 2 13 17
M  V30 17 1 13 18
M  V30 18 1 14 19
M  V30 19 2 14 20
M  V30 20 2 15 21
M  V30 21 1 15 22
M  V30 22 1 17 23
M  V30 23 2 18 24
M  V30 24 2 23 25
M  V30 25 1 23 26
M  V30 26 1 25 27
M  V30 27 2 27 28
M  V30 28 2 27 29
M  V30 29 1 27 30
M  V30 30 1 7 8
M  V30 31 1 16 20
M  V30 32 1 24 25
M  V30 END BOND
M  V30 END CTAB
M  END
>  <Molecule Name>
Compound 444

>  <Molecule Name 2>
Compound 444

>  <Compound ID>
131

>  <Name>
TMX-3012

>  <Uniprot>
Q96PY6

>  <Target>
NEK1

>  <Smiles>
CC1=CC(NC2=NC=C(Br)C(NC3=CC=CC(F)=C3C(N)=O)=N2)=CC=C1S(N)(=O)=O

>  <Kd (nM)>


>  <Assay (Kd)>


>  <Ki (nM)>


>  <Assay (Ki)>


>  <IC50 (nM)>


>  <Assay (IC50)>


>  <EC50 (nM)>


>  <Assay (EC50)>


>  <Article DOI>
10.1016/j.cell.2020.10.038

>  <Molecular Weight>
495.334

>  <Exact Mass>
494.0171997

>  <XLogP3>
3.1

>  <Heavy Atom Count>
30

>  <Ring Count>
3

>  <Hydrogen Bond Acceptor Count>
7

>  <Hydrogen Bond Donor Count>
4

>  <Rotatable Bond Count>
6

>  <Topological Polar Surface Area>
153.09

>  <Molecular Formula>
C18H16BrFN6O3S

>  <InChI>
InChI=1S/C18H16BrFN6O3S/c1-9-7-10(5-6-14(9)30(22,28)29)24-18-23-8-11(19)17(26-18)25-13-4-2-3-12(20)15(13)16(21)27/h2-8H,1H3,(H2,21,27)(H2,22,28,29)(H2,23,24,25,26)

>  <InChI Key>
IDMHFFLVANCQJA-UHFFFAOYSA-N

>  <BindingDB>


>  <PubChem>


>  <ChEMBL>


$$$$
131
Actelion Java MolfileCreator 2.0

  0  0  0  0  0  0              0 V3000
M  V30 BEGIN CTAB
M  V30 COUNTS 30 32 0 0 0
M  V30 BEGIN ATOM
M  V30 1 Br 2.598 1.0 0.0 0
M  V30 2 C 2.598 0.0 0.0 0
M  V30 3 C 1.732 -0.5 0.0 0
M  V30 4 C 3.4641 -0.4999 0.0 0
M  V30 5 N 1.732 -1.5 0.0 0
M  V30 6 N 0.866 0.0 0.0 0
M  V30 7 N 3.4641 -1.4999 0.0 0
M  V30 8 C 2.598 -1.9999 0.0 0
M  V30 9 C 0.0 -0.5 0.0 0
M  V30 10 N 2.598 -2.9999 0.0 0
M  V30 11 C -0.866 0.0 0.0 0
M  V30 12 C 0.0 -1.4999 0.0 0
M  V30 13 C 3.4641 -3.4999 0.0 0
M  V30 14 C -1.732 -0.4999 0.0 0
M  V30 15 C -0.866 1.0 0.0 0
M  V30 16 C -0.866 -1.9999 0.0 0
M  V30 17 C 3.4641 -4.4999 0.0 0
M  V30 18 C 4.3301 -2.9999 0.0 0
M  V30 19 F -2.598 0.0 0.0 0
M  V30 20 C -1.732 -1.4999 0.0 0
M  V30 21 O 0.0 1.5 0.0 0
M  V30 22 N -1.732 1.5 0.0 0
M  V30 23 C 4.3301 -4.9999 0.0 0
M  V30 24 C 5.1961 -3.4999 0.0 0
M  V30 25 C 5.1961 -4.4999 0.0 0
M  V30 26 C 4.3301 -5.9999 0.0 0
M  V30 27 S 6.0621 -4.9999 0.0 0
M  V30 28 O 5.5621 -5.866 0.0 0
M  V30 29 O 6.5621 -4.1339 0.0 0
M  V30 30 N 6.9282 -5.4999 0.0 0
M  V30 END ATOM
M  V30 BEGIN BOND
M  V30 1 1 1 2
M  V30 2 2 2 3
M  V30 3 1 2 4
M  V30 4 1 3 5
M  V30 5 1 3 6
M  V30 6 2 4 7
M  V30 7 2 5 8
M  V30 8 1 6 9
M  V30 9 1 8 10
M  V30 10 2 9 11
M  V30 11 1 9 12
M  V30 12 1 10 13
M  V30 13 1 11 14
M  V30 14 1 11 15
M  V30 15 2 12 16
M  V30 16 2 13 17
M  V30 17 1 13 18
M  V30 18 1 14 19
M  V30 19 2 14 20
M  V30 20 2 15 21
M  V30 21 1 15 22
M  V30 22 1 17 23
M  V30 23 2 18 24
M  V30 24 2 23 25
M  V30 25 1 23 26
M  V30 26 1 25 27
M  V30 27 2 27 28
M  V30 28 2 27 29
M  V30 29 1 27 30
M  V30 30 1 7 8
M  V30 31 1 16 20
M  V30 32 1 24 25
M  V30 END BOND
M  V30 END CTAB
M  END
>  <Molecule Name>
Compound 445

>  <Molecule Name 2>
Compound 445

>  <Compound ID>
131

>  <Name>
TMX-3012

>  <Uniprot>
P51956

>  <Target>
NEK3

>  <Smiles>
CC1=CC(NC2=NC=C(Br)C(NC3=CC=CC(F)=C3C(N)=O)=N2)=CC=C1S(N)(=O)=O

>  <Kd (nM)>


>  <Assay (Kd)>


>  <Ki (nM)>


>  <Assay (Ki)>


>  <IC50 (nM)>


>  <Assay (IC50)>


>  <EC50 (nM)>


>  <Assay (EC50)>


>  <Article DOI>
10.1016/j.cell.2020.10.038

>  <Molecular Weight>
495.334

>  <Exact Mass>
494.0171997

>  <XLogP3>
3.1

>  <Heavy Atom Count>
30

>  <Ring Count>
3

>  <Hydrogen Bond Acceptor Count>
7

>  <Hydrogen Bond Donor Count>
4

>  <Rotatable Bond Count>
6

>  <Topological Polar Surface Area>
153.09

>  <Molecular Formula>
C18H16BrFN6O3S

>  <InChI>
InChI=1S/C18H16BrFN6O3S/c1-9-7-10(5-6-14(9)30(22,28)29)24-18-23-8-11(19)17(26-18)25-13-4-2-3-12(20)15(13)16(21)27/h2-8H,1H3,(H2,21,27)(H2,22,28,29)(H2,23,24,25,26)

>  <InChI Key>
IDMHFFLVANCQJA-UHFFFAOYSA-N

>  <BindingDB>


>  <PubChem>


>  <ChEMBL>


$$$$
131
Actelion Java MolfileCreator 2.0

  0  0  0  0  0  0              0 V3000
M  V30 BEGIN CTAB
M  V30 COUNTS 30 32 0 0 0
M  V30 BEGIN ATOM
M  V30 1 Br 2.598 1.0 0.0 0
M  V30 2 C 2.598 0.0 0.0 0
M  V30 3 C 1.732 -0.5 0.0 0
M  V30 4 C 3.4641 -0.4999 0.0 0
M  V30 5 N 1.732 -1.5 0.0 0
M  V30 6 N 0.866 0.0 0.0 0
M  V30 7 N 3.4641 -1.4999 0.0 0
M  V30 8 C 2.598 -1.9999 0.0 0
M  V30 9 C 0.0 -0.5 0.0 0
M  V30 10 N 2.598 -2.9999 0.0 0
M  V30 11 C -0.866 0.0 0.0 0
M  V30 12 C 0.0 -1.4999 0.0 0
M  V30 13 C 3.4641 -3.4999 0.0 0
M  V30 14 C -1.732 -0.4999 0.0 0
M  V30 15 C -0.866 1.0 0.0 0
M  V30 16 C -0.866 -1.9999 0.0 0
M  V30 17 C 3.4641 -4.4999 0.0 0
M  V30 18 C 4.3301 -2.9999 0.0 0
M  V30 19 F -2.598 0.0 0.0 0
M  V30 20 C -1.732 -1.4999 0.0 0
M  V30 21 O 0.0 1.5 0.0 0
M  V30 22 N -1.732 1.5 0.0 0
M  V30 23 C 4.3301 -4.9999 0.0 0
M  V30 24 C 5.1961 -3.4999 0.0 0
M  V30 25 C 5.1961 -4.4999 0.0 0
M  V30 26 C 4.3301 -5.9999 0.0 0
M  V30 27 S 6.0621 -4.9999 0.0 0
M  V30 28 O 5.5621 -5.866 0.0 0
M  V30 29 O 6.5621 -4.1339 0.0 0
M  V30 30 N 6.9282 -5.4999 0.0 0
M  V30 END ATOM
M  V30 BEGIN BOND
M  V30 1 1 1 2
M  V30 2 2 2 3
M  V30 3 1 2 4
M  V30 4 1 3 5
M  V30 5 1 3 6
M  V30 6 2 4 7
M  V30 7 2 5 8
M  V30 8 1 6 9
M  V30 9 1 8 10
M  V30 10 2 9 11
M  V30 11 1 9 12
M  V30 12 1 10 13
M  V30 13 1 11 14
M  V30 14 1 11 15
M  V30 15 2 12 16
M  V30 16 2 13 17
M  V30 17 1 13 18
M  V30 18 1 14 19
M  V30 19 2 14 20
M  V30 20 2 15 21
M  V30 21 1 15 22
M  V30 22 1 17 23
M  V30 23 2 18 24
M  V30 24 2 23 25
M  V30 25 1 23 26
M  V30 26 1 25 27
M  V30 27 2 27 28
M  V30 28 2 27 29
M  V30 29 1 27 30
M  V30 30 1 7 8
M  V30 31 1 16 20
M  V30 32 1 24 25
M  V30 END BOND
M  V30 END CTAB
M  END
>  <Molecule Name>
Compound 446

>  <Molecule Name 2>
Compound 446

>  <Compound ID>
131

>  <Name>
TMX-3012

>  <Uniprot>
P51957

>  <Target>
NEK4

>  <Smiles>
CC1=CC(NC2=NC=C(Br)C(NC3=CC=CC(F)=C3C(N)=O)=N2)=CC=C1S(N)(=O)=O

>  <Kd (nM)>


>  <Assay (Kd)>


>  <Ki (nM)>


>  <Assay (Ki)>


>  <IC50 (nM)>


>  <Assay (IC50)>


>  <EC50 (nM)>


>  <Assay (EC50)>


>  <Article DOI>
10.1016/j.cell.2020.10.038

>  <Molecular Weight>
495.334

>  <Exact Mass>
494.0171997

>  <XLogP3>
3.1

>  <Heavy Atom Count>
30

>  <Ring Count>
3

>  <Hydrogen Bond Acceptor Count>
7

>  <Hydrogen Bond Donor Count>
4

>  <Rotatable Bond Count>
6

>  <Topological Polar Surface Area>
153.09

>  <Molecular Formula>
C18H16BrFN6O3S

>  <InChI>
InChI=1S/C18H16BrFN6O3S/c1-9-7-10(5-6-14(9)30(22,28)29)24-18-23-8-11(19)17(26-18)25-13-4-2-3-12(20)15(13)16(21)27/h2-8H,1H3,(H2,21,27)(H2,22,28,29)(H2,23,24,25,26)

>  <InChI Key>
IDMHFFLVANCQJA-UHFFFAOYSA-N

>  <BindingDB>


>  <PubChem>


>  <ChEMBL>


$$$$
131
Actelion Java MolfileCreator 2.0

  0  0  0  0  0  0              0 V3000
M  V30 BEGIN CTAB
M  V30 COUNTS 30 32 0 0 0
M  V30 BEGIN ATOM
M  V30 1 Br 2.598 1.0 0.0 0
M  V30 2 C 2.598 0.0 0.0 0
M  V30 3 C 1.732 -0.5 0.0 0
M  V30 4 C 3.4641 -0.4999 0.0 0
M  V30 5 N 1.732 -1.5 0.0 0
M  V30 6 N 0.866 0.0 0.0 0
M  V30 7 N 3.4641 -1.4999 0.0 0
M  V30 8 C 2.598 -1.9999 0.0 0
M  V30 9 C 0.0 -0.5 0.0 0
M  V30 10 N 2.598 -2.9999 0.0 0
M  V30 11 C -0.866 0.0 0.0 0
M  V30 12 C 0.0 -1.4999 0.0 0
M  V30 13 C 3.4641 -3.4999 0.0 0
M  V30 14 C -1.732 -0.4999 0.0 0
M  V30 15 C -0.866 1.0 0.0 0
M  V30 16 C -0.866 -1.9999 0.0 0
M  V30 17 C 3.4641 -4.4999 0.0 0
M  V30 18 C 4.3301 -2.9999 0.0 0
M  V30 19 F -2.598 0.0 0.0 0
M  V30 20 C -1.732 -1.4999 0.0 0
M  V30 21 O 0.0 1.5 0.0 0
M  V30 22 N -1.732 1.5 0.0 0
M  V30 23 C 4.3301 -4.9999 0.0 0
M  V30 24 C 5.1961 -3.4999 0.0 0
M  V30 25 C 5.1961 -4.4999 0.0 0
M  V30 26 C 4.3301 -5.9999 0.0 0
M  V30 27 S 6.0621 -4.9999 0.0 0
M  V30 28 O 5.5621 -5.866 0.0 0
M  V30 29 O 6.5621 -4.1339 0.0 0
M  V30 30 N 6.9282 -5.4999 0.0 0
M  V30 END ATOM
M  V30 BEGIN BOND
M  V30 1 1 1 2
M  V30 2 2 2 3
M  V30 3 1 2 4
M  V30 4 1 3 5
M  V30 5 1 3 6
M  V30 6 2 4 7
M  V30 7 2 5 8
M  V30 8 1 6 9
M  V30 9 1 8 10
M  V30 10 2 9 11
M  V30 11 1 9 12
M  V30 12 1 10 13
M  V30 13 1 11 14
M  V30 14 1 11 15
M  V30 15 2 12 16
M  V30 16 2 13 17
M  V30 17 1 13 18
M  V30 18 1 14 19
M  V30 19 2 14 20
M  V30 20 2 15 21
M  V30 21 1 15 22
M  V30 22 1 17 23
M  V30 23 2 18 24
M  V30 24 2 23 25
M  V30 25 1 23 26
M  V30 26 1 25 27
M  V30 27 2 27 28
M  V30 28 2 27 29
M  V30 29 1 27 30
M  V30 30 1 7 8
M  V30 31 1 16 20
M  V30 32 1 24 25
M  V30 END BOND
M  V30 END CTAB
M  END
>  <Molecule Name>
Compound 447

>  <Molecule Name 2>
Compound 447

>  <Compound ID>
131

>  <Name>
TMX-3012

>  <Uniprot>
Q8TD19

>  <Target>
NEK9

>  <Smiles>
CC1=CC(NC2=NC=C(Br)C(NC3=CC=CC(F)=C3C(N)=O)=N2)=CC=C1S(N)(=O)=O

>  <Kd (nM)>


>  <Assay (Kd)>


>  <Ki (nM)>


>  <Assay (Ki)>


>  <IC50 (nM)>


>  <Assay (IC50)>


>  <EC50 (nM)>


>  <Assay (EC50)>


>  <Article DOI>
10.1016/j.cell.2020.10.038

>  <Molecular Weight>
495.334

>  <Exact Mass>
494.0171997

>  <XLogP3>
3.1

>  <Heavy Atom Count>
30

>  <Ring Count>
3

>  <Hydrogen Bond Acceptor Count>
7

>  <Hydrogen Bond Donor Count>
4

>  <Rotatable Bond Count>
6

>  <Topological Polar Surface Area>
153.09

>  <Molecular Formula>
C18H16BrFN6O3S

>  <InChI>
InChI=1S/C18H16BrFN6O3S/c1-9-7-10(5-6-14(9)30(22,28)29)24-18-23-8-11(19)17(26-18)25-13-4-2-3-12(20)15(13)16(21)27/h2-8H,1H3,(H2,21,27)(H2,22,28,29)(H2,23,24,25,26)

>  <InChI Key>
IDMHFFLVANCQJA-UHFFFAOYSA-N

>  <BindingDB>


>  <PubChem>


>  <ChEMBL>


$$$$
131
Actelion Java MolfileCreator 2.0

  0  0  0  0  0  0              0 V3000
M  V30 BEGIN CTAB
M  V30 COUNTS 30 32 0 0 0
M  V30 BEGIN ATOM
M  V30 1 Br 2.598 1.0 0.0 0
M  V30 2 C 2.598 0.0 0.0 0
M  V30 3 C 1.732 -0.5 0.0 0
M  V30 4 C 3.4641 -0.4999 0.0 0
M  V30 5 N 1.732 -1.5 0.0 0
M  V30 6 N 0.866 0.0 0.0 0
M  V30 7 N 3.4641 -1.4999 0.0 0
M  V30 8 C 2.598 -1.9999 0.0 0
M  V30 9 C 0.0 -0.5 0.0 0
M  V30 10 N 2.598 -2.9999 0.0 0
M  V30 11 C -0.866 0.0 0.0 0
M  V30 12 C 0.0 -1.4999 0.0 0
M  V30 13 C 3.4641 -3.4999 0.0 0
M  V30 14 C -1.732 -0.4999 0.0 0
M  V30 15 C -0.866 1.0 0.0 0
M  V30 16 C -0.866 -1.9999 0.0 0
M  V30 17 C 3.4641 -4.4999 0.0 0
M  V30 18 C 4.3301 -2.9999 0.0 0
M  V30 19 F -2.598 0.0 0.0 0
M  V30 20 C -1.732 -1.4999 0.0 0
M  V30 21 O 0.0 1.5 0.0 0
M  V30 22 N -1.732 1.5 0.0 0
M  V30 23 C 4.3301 -4.9999 0.0 0
M  V30 24 C 5.1961 -3.4999 0.0 0
M  V30 25 C 5.1961 -4.4999 0.0 0
M  V30 26 C 4.3301 -5.9999 0.0 0
M  V30 27 S 6.0621 -4.9999 0.0 0
M  V30 28 O 5.5621 -5.866 0.0 0
M  V30 29 O 6.5621 -4.1339 0.0 0
M  V30 30 N 6.9282 -5.4999 0.0 0
M  V30 END ATOM
M  V30 BEGIN BOND
M  V30 1 1 1 2
M  V30 2 2 2 3
M  V30 3 1 2 4
M  V30 4 1 3 5
M  V30 5 1 3 6
M  V30 6 2 4 7
M  V30 7 2 5 8
M  V30 8 1 6 9
M  V30 9 1 8 10
M  V30 10 2 9 11
M  V30 11 1 9 12
M  V30 12 1 10 13
M  V30 13 1 11 14
M  V30 14 1 11 15
M  V30 15 2 12 16
M  V30 16 2 13 17
M  V30 17 1 13 18
M  V30 18 1 14 19
M  V30 19 2 14 20
M  V30 20 2 15 21
M  V30 21 1 15 22
M  V30 22 1 17 23
M  V30 23 2 18 24
M  V30 24 2 23 25
M  V30 25 1 23 26
M  V30 26 1 25 27
M  V30 27 2 27 28
M  V30 28 2 27 29
M  V30 29 1 27 30
M  V30 30 1 7 8
M  V30 31 1 16 20
M  V30 32 1 24 25
M  V30 END BOND
M  V30 END CTAB
M  END
>  <Molecule Name>
Compound 448

>  <Molecule Name 2>
Compound 448

>  <Compound ID>
131

>  <Name>
TMX-3012

>  <Uniprot>
O60285

>  <Target>
NUAK1

>  <Smiles>
CC1=CC(NC2=NC=C(Br)C(NC3=CC=CC(F)=C3C(N)=O)=N2)=CC=C1S(N)(=O)=O

>  <Kd (nM)>


>  <Assay (Kd)>


>  <Ki (nM)>


>  <Assay (Ki)>


>  <IC50 (nM)>


>  <Assay (IC50)>


>  <EC50 (nM)>


>  <Assay (EC50)>


>  <Article DOI>
10.1016/j.cell.2020.10.038

>  <Molecular Weight>
495.334

>  <Exact Mass>
494.0171997

>  <XLogP3>
3.1

>  <Heavy Atom Count>
30

>  <Ring Count>
3

>  <Hydrogen Bond Acceptor Count>
7

>  <Hydrogen Bond Donor Count>
4

>  <Rotatable Bond Count>
6

>  <Topological Polar Surface Area>
153.09

>  <Molecular Formula>
C18H16BrFN6O3S

>  <InChI>
InChI=1S/C18H16BrFN6O3S/c1-9-7-10(5-6-14(9)30(22,28)29)24-18-23-8-11(19)17(26-18)25-13-4-2-3-12(20)15(13)16(21)27/h2-8H,1H3,(H2,21,27)(H2,22,28,29)(H2,23,24,25,26)

>  <InChI Key>
IDMHFFLVANCQJA-UHFFFAOYSA-N

>  <BindingDB>


>  <PubChem>


>  <ChEMBL>


$$$$
131
Actelion Java MolfileCreator 2.0

  0  0  0  0  0  0              0 V3000
M  V30 BEGIN CTAB
M  V30 COUNTS 30 32 0 0 0
M  V30 BEGIN ATOM
M  V30 1 Br 2.598 1.0 0.0 0
M  V30 2 C 2.598 0.0 0.0 0
M  V30 3 C 1.732 -0.5 0.0 0
M  V30 4 C 3.4641 -0.4999 0.0 0
M  V30 5 N 1.732 -1.5 0.0 0
M  V30 6 N 0.866 0.0 0.0 0
M  V30 7 N 3.4641 -1.4999 0.0 0
M  V30 8 C 2.598 -1.9999 0.0 0
M  V30 9 C 0.0 -0.5 0.0 0
M  V30 10 N 2.598 -2.9999 0.0 0
M  V30 11 C -0.866 0.0 0.0 0
M  V30 12 C 0.0 -1.4999 0.0 0
M  V30 13 C 3.4641 -3.4999 0.0 0
M  V30 14 C -1.732 -0.4999 0.0 0
M  V30 15 C -0.866 1.0 0.0 0
M  V30 16 C -0.866 -1.9999 0.0 0
M  V30 17 C 3.4641 -4.4999 0.0 0
M  V30 18 C 4.3301 -2.9999 0.0 0
M  V30 19 F -2.598 0.0 0.0 0
M  V30 20 C -1.732 -1.4999 0.0 0
M  V30 21 O 0.0 1.5 0.0 0
M  V30 22 N -1.732 1.5 0.0 0
M  V30 23 C 4.3301 -4.9999 0.0 0
M  V30 24 C 5.1961 -3.4999 0.0 0
M  V30 25 C 5.1961 -4.4999 0.0 0
M  V30 26 C 4.3301 -5.9999 0.0 0
M  V30 27 S 6.0621 -4.9999 0.0 0
M  V30 28 O 5.5621 -5.866 0.0 0
M  V30 29 O 6.5621 -4.1339 0.0 0
M  V30 30 N 6.9282 -5.4999 0.0 0
M  V30 END ATOM
M  V30 BEGIN BOND
M  V30 1 1 1 2
M  V30 2 2 2 3
M  V30 3 1 2 4
M  V30 4 1 3 5
M  V30 5 1 3 6
M  V30 6 2 4 7
M  V30 7 2 5 8
M  V30 8 1 6 9
M  V30 9 1 8 10
M  V30 10 2 9 11
M  V30 11 1 9 12
M  V30 12 1 10 13
M  V30 13 1 11 14
M  V30 14 1 11 15
M  V30 15 2 12 16
M  V30 16 2 13 17
M  V30 17 1 13 18
M  V30 18 1 14 19
M  V30 19 2 14 20
M  V30 20 2 15 21
M  V30 21 1 15 22
M  V30 22 1 17 23
M  V30 23 2 18 24
M  V30 24 2 23 25
M  V30 25 1 23 26
M  V30 26 1 25 27
M  V30 27 2 27 28
M  V30 28 2 27 29
M  V30 29 1 27 30
M  V30 30 1 7 8
M  V30 31 1 16 20
M  V30 32 1 24 25
M  V30 END BOND
M  V30 END CTAB
M  END
>  <Molecule Name>
Compound 449

>  <Molecule Name 2>
Compound 449

>  <Compound ID>
131

>  <Name>
TMX-3012

>  <Uniprot>
Q13131

>  <Target>
PRKAA1

>  <Smiles>
CC1=CC(NC2=NC=C(Br)C(NC3=CC=CC(F)=C3C(N)=O)=N2)=CC=C1S(N)(=O)=O

>  <Kd (nM)>


>  <Assay (Kd)>


>  <Ki (nM)>


>  <Assay (Ki)>


>  <IC50 (nM)>


>  <Assay (IC50)>


>  <EC50 (nM)>


>  <Assay (EC50)>


>  <Article DOI>
10.1016/j.cell.2020.10.038

>  <Molecular Weight>
495.334

>  <Exact Mass>
494.0171997

>  <XLogP3>
3.1

>  <Heavy Atom Count>
30

>  <Ring Count>
3

>  <Hydrogen Bond Acceptor Count>
7

>  <Hydrogen Bond Donor Count>
4

>  <Rotatable Bond Count>
6

>  <Topological Polar Surface Area>
153.09

>  <Molecular Formula>
C18H16BrFN6O3S

>  <InChI>
InChI=1S/C18H16BrFN6O3S/c1-9-7-10(5-6-14(9)30(22,28)29)24-18-23-8-11(19)17(26-18)25-13-4-2-3-12(20)15(13)16(21)27/h2-8H,1H3,(H2,21,27)(H2,22,28,29)(H2,23,24,25,26)

>  <InChI Key>
IDMHFFLVANCQJA-UHFFFAOYSA-N

>  <BindingDB>


>  <PubChem>


>  <ChEMBL>


$$$$
131
Actelion Java MolfileCreator 2.0

  0  0  0  0  0  0              0 V3000
M  V30 BEGIN CTAB
M  V30 COUNTS 30 32 0 0 0
M  V30 BEGIN ATOM
M  V30 1 Br 2.598 1.0 0.0 0
M  V30 2 C 2.598 0.0 0.0 0
M  V30 3 C 1.732 -0.5 0.0 0
M  V30 4 C 3.4641 -0.4999 0.0 0
M  V30 5 N 1.732 -1.5 0.0 0
M  V30 6 N 0.866 0.0 0.0 0
M  V30 7 N 3.4641 -1.4999 0.0 0
M  V30 8 C 2.598 -1.9999 0.0 0
M  V30 9 C 0.0 -0.5 0.0 0
M  V30 10 N 2.598 -2.9999 0.0 0
M  V30 11 C -0.866 0.0 0.0 0
M  V30 12 C 0.0 -1.4999 0.0 0
M  V30 13 C 3.4641 -3.4999 0.0 0
M  V30 14 C -1.732 -0.4999 0.0 0
M  V30 15 C -0.866 1.0 0.0 0
M  V30 16 C -0.866 -1.9999 0.0 0
M  V30 17 C 3.4641 -4.4999 0.0 0
M  V30 18 C 4.3301 -2.9999 0.0 0
M  V30 19 F -2.598 0.0 0.0 0
M  V30 20 C -1.732 -1.4999 0.0 0
M  V30 21 O 0.0 1.5 0.0 0
M  V30 22 N -1.732 1.5 0.0 0
M  V30 23 C 4.3301 -4.9999 0.0 0
M  V30 24 C 5.1961 -3.4999 0.0 0
M  V30 25 C 5.1961 -4.4999 0.0 0
M  V30 26 C 4.3301 -5.9999 0.0 0
M  V30 27 S 6.0621 -4.9999 0.0 0
M  V30 28 O 5.5621 -5.866 0.0 0
M  V30 29 O 6.5621 -4.1339 0.0 0
M  V30 30 N 6.9282 -5.4999 0.0 0
M  V30 END ATOM
M  V30 BEGIN BOND
M  V30 1 1 1 2
M  V30 2 2 2 3
M  V30 3 1 2 4
M  V30 4 1 3 5
M  V30 5 1 3 6
M  V30 6 2 4 7
M  V30 7 2 5 8
M  V30 8 1 6 9
M  V30 9 1 8 10
M  V30 10 2 9 11
M  V30 11 1 9 12
M  V30 12 1 10 13
M  V30 13 1 11 14
M  V30 14 1 11 15
M  V30 15 2 12 16
M  V30 16 2 13 17
M  V30 17 1 13 18
M  V30 18 1 14 19
M  V30 19 2 14 20
M  V30 20 2 15 21
M  V30 21 1 15 22
M  V30 22 1 17 23
M  V30 23 2 18 24
M  V30 24 2 23 25
M  V30 25 1 23 26
M  V30 26 1 25 27
M  V30 27 2 27 28
M  V30 28 2 27 29
M  V30 29 1 27 30
M  V30 30 1 7 8
M  V30 31 1 16 20
M  V30 32 1 24 25
M  V30 END BOND
M  V30 END CTAB
M  END
>  <Molecule Name>
Compound 450

>  <Molecule Name 2>
Compound 450

>  <Compound ID>
131

>  <Name>
TMX-3012

>  <Uniprot>
P54646

>  <Target>
PRKAA2

>  <Smiles>
CC1=CC(NC2=NC=C(Br)C(NC3=CC=CC(F)=C3C(N)=O)=N2)=CC=C1S(N)(=O)=O

>  <Kd (nM)>


>  <Assay (Kd)>


>  <Ki (nM)>


>  <Assay (Ki)>


>  <IC50 (nM)>


>  <Assay (IC50)>


>  <EC50 (nM)>


>  <Assay (EC50)>


>  <Article DOI>
10.1016/j.cell.2020.10.038

>  <Molecular Weight>
495.334

>  <Exact Mass>
494.0171997

>  <XLogP3>
3.1

>  <Heavy Atom Count>
30

>  <Ring Count>
3

>  <Hydrogen Bond Acceptor Count>
7

>  <Hydrogen Bond Donor Count>
4

>  <Rotatable Bond Count>
6

>  <Topological Polar Surface Area>
153.09

>  <Molecular Formula>
C18H16BrFN6O3S

>  <InChI>
InChI=1S/C18H16BrFN6O3S/c1-9-7-10(5-6-14(9)30(22,28)29)24-18-23-8-11(19)17(26-18)25-13-4-2-3-12(20)15(13)16(21)27/h2-8H,1H3,(H2,21,27)(H2,22,28,29)(H2,23,24,25,26)

>  <InChI Key>
IDMHFFLVANCQJA-UHFFFAOYSA-N

>  <BindingDB>


>  <PubChem>


>  <ChEMBL>


$$$$
131
Actelion Java MolfileCreator 2.0

  0  0  0  0  0  0              0 V3000
M  V30 BEGIN CTAB
M  V30 COUNTS 30 32 0 0 0
M  V30 BEGIN ATOM
M  V30 1 Br 2.598 1.0 0.0 0
M  V30 2 C 2.598 0.0 0.0 0
M  V30 3 C 1.732 -0.5 0.0 0
M  V30 4 C 3.4641 -0.4999 0.0 0
M  V30 5 N 1.732 -1.5 0.0 0
M  V30 6 N 0.866 0.0 0.0 0
M  V30 7 N 3.4641 -1.4999 0.0 0
M  V30 8 C 2.598 -1.9999 0.0 0
M  V30 9 C 0.0 -0.5 0.0 0
M  V30 10 N 2.598 -2.9999 0.0 0
M  V30 11 C -0.866 0.0 0.0 0
M  V30 12 C 0.0 -1.4999 0.0 0
M  V30 13 C 3.4641 -3.4999 0.0 0
M  V30 14 C -1.732 -0.4999 0.0 0
M  V30 15 C -0.866 1.0 0.0 0
M  V30 16 C -0.866 -1.9999 0.0 0
M  V30 17 C 3.4641 -4.4999 0.0 0
M  V30 18 C 4.3301 -2.9999 0.0 0
M  V30 19 F -2.598 0.0 0.0 0
M  V30 20 C -1.732 -1.4999 0.0 0
M  V30 21 O 0.0 1.5 0.0 0
M  V30 22 N -1.732 1.5 0.0 0
M  V30 23 C 4.3301 -4.9999 0.0 0
M  V30 24 C 5.1961 -3.4999 0.0 0
M  V30 25 C 5.1961 -4.4999 0.0 0
M  V30 26 C 4.3301 -5.9999 0.0 0
M  V30 27 S 6.0621 -4.9999 0.0 0
M  V30 28 O 5.5621 -5.866 0.0 0
M  V30 29 O 6.5621 -4.1339 0.0 0
M  V30 30 N 6.9282 -5.4999 0.0 0
M  V30 END ATOM
M  V30 BEGIN BOND
M  V30 1 1 1 2
M  V30 2 2 2 3
M  V30 3 1 2 4
M  V30 4 1 3 5
M  V30 5 1 3 6
M  V30 6 2 4 7
M  V30 7 2 5 8
M  V30 8 1 6 9
M  V30 9 1 8 10
M  V30 10 2 9 11
M  V30 11 1 9 12
M  V30 12 1 10 13
M  V30 13 1 11 14
M  V30 14 1 11 15
M  V30 15 2 12 16
M  V30 16 2 13 17
M  V30 17 1 13 18
M  V30 18 1 14 19
M  V30 19 2 14 20
M  V30 20 2 15 21
M  V30 21 1 15 22
M  V30 22 1 17 23
M  V30 23 2 18 24
M  V30 24 2 23 25
M  V30 25 1 23 26
M  V30 26 1 25 27
M  V30 27 2 27 28
M  V30 28 2 27 29
M  V30 29 1 27 30
M  V30 30 1 7 8
M  V30 31 1 16 20
M  V30 32 1 24 25
M  V30 END BOND
M  V30 END CTAB
M  END
>  <Molecule Name>
Compound 451

>  <Molecule Name 2>
Compound 451

>  <Compound ID>
131

>  <Name>
TMX-3012

>  <Uniprot>
Q14289

>  <Target>
PTK2B

>  <Smiles>
CC1=CC(NC2=NC=C(Br)C(NC3=CC=CC(F)=C3C(N)=O)=N2)=CC=C1S(N)(=O)=O

>  <Kd (nM)>


>  <Assay (Kd)>


>  <Ki (nM)>


>  <Assay (Ki)>


>  <IC50 (nM)>


>  <Assay (IC50)>


>  <EC50 (nM)>


>  <Assay (EC50)>


>  <Article DOI>
10.1016/j.cell.2020.10.038

>  <Molecular Weight>
495.334

>  <Exact Mass>
494.0171997

>  <XLogP3>
3.1

>  <Heavy Atom Count>
30

>  <Ring Count>
3

>  <Hydrogen Bond Acceptor Count>
7

>  <Hydrogen Bond Donor Count>
4

>  <Rotatable Bond Count>
6

>  <Topological Polar Surface Area>
153.09

>  <Molecular Formula>
C18H16BrFN6O3S

>  <InChI>
InChI=1S/C18H16BrFN6O3S/c1-9-7-10(5-6-14(9)30(22,28)29)24-18-23-8-11(19)17(26-18)25-13-4-2-3-12(20)15(13)16(21)27/h2-8H,1H3,(H2,21,27)(H2,22,28,29)(H2,23,24,25,26)

>  <InChI Key>
IDMHFFLVANCQJA-UHFFFAOYSA-N

>  <BindingDB>


>  <PubChem>


>  <ChEMBL>


$$$$
131
Actelion Java MolfileCreator 2.0

  0  0  0  0  0  0              0 V3000
M  V30 BEGIN CTAB
M  V30 COUNTS 30 32 0 0 0
M  V30 BEGIN ATOM
M  V30 1 Br 2.598 1.0 0.0 0
M  V30 2 C 2.598 0.0 0.0 0
M  V30 3 C 1.732 -0.5 0.0 0
M  V30 4 C 3.4641 -0.4999 0.0 0
M  V30 5 N 1.732 -1.5 0.0 0
M  V30 6 N 0.866 0.0 0.0 0
M  V30 7 N 3.4641 -1.4999 0.0 0
M  V30 8 C 2.598 -1.9999 0.0 0
M  V30 9 C 0.0 -0.5 0.0 0
M  V30 10 N 2.598 -2.9999 0.0 0
M  V30 11 C -0.866 0.0 0.0 0
M  V30 12 C 0.0 -1.4999 0.0 0
M  V30 13 C 3.4641 -3.4999 0.0 0
M  V30 14 C -1.732 -0.4999 0.0 0
M  V30 15 C -0.866 1.0 0.0 0
M  V30 16 C -0.866 -1.9999 0.0 0
M  V30 17 C 3.4641 -4.4999 0.0 0
M  V30 18 C 4.3301 -2.9999 0.0 0
M  V30 19 F -2.598 0.0 0.0 0
M  V30 20 C -1.732 -1.4999 0.0 0
M  V30 21 O 0.0 1.5 0.0 0
M  V30 22 N -1.732 1.5 0.0 0
M  V30 23 C 4.3301 -4.9999 0.0 0
M  V30 24 C 5.1961 -3.4999 0.0 0
M  V30 25 C 5.1961 -4.4999 0.0 0
M  V30 26 C 4.3301 -5.9999 0.0 0
M  V30 27 S 6.0621 -4.9999 0.0 0
M  V30 28 O 5.5621 -5.866 0.0 0
M  V30 29 O 6.5621 -4.1339 0.0 0
M  V30 30 N 6.9282 -5.4999 0.0 0
M  V30 END ATOM
M  V30 BEGIN BOND
M  V30 1 1 1 2
M  V30 2 2 2 3
M  V30 3 1 2 4
M  V30 4 1 3 5
M  V30 5 1 3 6
M  V30 6 2 4 7
M  V30 7 2 5 8
M  V30 8 1 6 9
M  V30 9 1 8 10
M  V30 10 2 9 11
M  V30 11 1 9 12
M  V30 12 1 10 13
M  V30 13 1 11 14
M  V30 14 1 11 15
M  V30 15 2 12 16
M  V30 16 2 13 17
M  V30 17 1 13 18
M  V30 18 1 14 19
M  V30 19 2 14 20
M  V30 20 2 15 21
M  V30 21 1 15 22
M  V30 22 1 17 23
M  V30 23 2 18 24
M  V30 24 2 23 25
M  V30 25 1 23 26
M  V30 26 1 25 27
M  V30 27 2 27 28
M  V30 28 2 27 29
M  V30 29 1 27 30
M  V30 30 1 7 8
M  V30 31 1 16 20
M  V30 32 1 24 25
M  V30 END BOND
M  V30 END CTAB
M  END
>  <Molecule Name>
Compound 452

>  <Molecule Name 2>
Compound 452

>  <Compound ID>
131

>  <Name>
TMX-3012

>  <Uniprot>
Q15418

>  <Target>
RPS6KA1

>  <Smiles>
CC1=CC(NC2=NC=C(Br)C(NC3=CC=CC(F)=C3C(N)=O)=N2)=CC=C1S(N)(=O)=O

>  <Kd (nM)>


>  <Assay (Kd)>


>  <Ki (nM)>


>  <Assay (Ki)>


>  <IC50 (nM)>


>  <Assay (IC50)>


>  <EC50 (nM)>


>  <Assay (EC50)>


>  <Article DOI>
10.1016/j.cell.2020.10.038

>  <Molecular Weight>
495.334

>  <Exact Mass>
494.0171997

>  <XLogP3>
3.1

>  <Heavy Atom Count>
30

>  <Ring Count>
3

>  <Hydrogen Bond Acceptor Count>
7

>  <Hydrogen Bond Donor Count>
4

>  <Rotatable Bond Count>
6

>  <Topological Polar Surface Area>
153.09

>  <Molecular Formula>
C18H16BrFN6O3S

>  <InChI>
InChI=1S/C18H16BrFN6O3S/c1-9-7-10(5-6-14(9)30(22,28)29)24-18-23-8-11(19)17(26-18)25-13-4-2-3-12(20)15(13)16(21)27/h2-8H,1H3,(H2,21,27)(H2,22,28,29)(H2,23,24,25,26)

>  <InChI Key>
IDMHFFLVANCQJA-UHFFFAOYSA-N

>  <BindingDB>


>  <PubChem>


>  <ChEMBL>


$$$$
131
Actelion Java MolfileCreator 2.0

  0  0  0  0  0  0              0 V3000
M  V30 BEGIN CTAB
M  V30 COUNTS 30 32 0 0 0
M  V30 BEGIN ATOM
M  V30 1 Br 2.598 1.0 0.0 0
M  V30 2 C 2.598 0.0 0.0 0
M  V30 3 C 1.732 -0.5 0.0 0
M  V30 4 C 3.4641 -0.4999 0.0 0
M  V30 5 N 1.732 -1.5 0.0 0
M  V30 6 N 0.866 0.0 0.0 0
M  V30 7 N 3.4641 -1.4999 0.0 0
M  V30 8 C 2.598 -1.9999 0.0 0
M  V30 9 C 0.0 -0.5 0.0 0
M  V30 10 N 2.598 -2.9999 0.0 0
M  V30 11 C -0.866 0.0 0.0 0
M  V30 12 C 0.0 -1.4999 0.0 0
M  V30 13 C 3.4641 -3.4999 0.0 0
M  V30 14 C -1.732 -0.4999 0.0 0
M  V30 15 C -0.866 1.0 0.0 0
M  V30 16 C -0.866 -1.9999 0.0 0
M  V30 17 C 3.4641 -4.4999 0.0 0
M  V30 18 C 4.3301 -2.9999 0.0 0
M  V30 19 F -2.598 0.0 0.0 0
M  V30 20 C -1.732 -1.4999 0.0 0
M  V30 21 O 0.0 1.5 0.0 0
M  V30 22 N -1.732 1.5 0.0 0
M  V30 23 C 4.3301 -4.9999 0.0 0
M  V30 24 C 5.1961 -3.4999 0.0 0
M  V30 25 C 5.1961 -4.4999 0.0 0
M  V30 26 C 4.3301 -5.9999 0.0 0
M  V30 27 S 6.0621 -4.9999 0.0 0
M  V30 28 O 5.5621 -5.866 0.0 0
M  V30 29 O 6.5621 -4.1339 0.0 0
M  V30 30 N 6.9282 -5.4999 0.0 0
M  V30 END ATOM
M  V30 BEGIN BOND
M  V30 1 1 1 2
M  V30 2 2 2 3
M  V30 3 1 2 4
M  V30 4 1 3 5
M  V30 5 1 3 6
M  V30 6 2 4 7
M  V30 7 2 5 8
M  V30 8 1 6 9
M  V30 9 1 8 10
M  V30 10 2 9 11
M  V30 11 1 9 12
M  V30 12 1 10 13
M  V30 13 1 11 14
M  V30 14 1 11 15
M  V30 15 2 12 16
M  V30 16 2 13 17
M  V30 17 1 13 18
M  V30 18 1 14 19
M  V30 19 2 14 20
M  V30 20 2 15 21
M  V30 21 1 15 22
M  V30 22 1 17 23
M  V30 23 2 18 24
M  V30 24 2 23 25
M  V30 25 1 23 26
M  V30 26 1 25 27
M  V30 27 2 27 28
M  V30 28 2 27 29
M  V30 29 1 27 30
M  V30 30 1 7 8
M  V30 31 1 16 20
M  V30 32 1 24 25
M  V30 END BOND
M  V30 END CTAB
M  END
>  <Molecule Name>
Compound 453

>  <Molecule Name 2>
Compound 453

>  <Compound ID>
131

>  <Name>
TMX-3012

>  <Uniprot>
P51812

>  <Target>
RPS6KA3

>  <Smiles>
CC1=CC(NC2=NC=C(Br)C(NC3=CC=CC(F)=C3C(N)=O)=N2)=CC=C1S(N)(=O)=O

>  <Kd (nM)>


>  <Assay (Kd)>


>  <Ki (nM)>


>  <Assay (Ki)>


>  <IC50 (nM)>


>  <Assay (IC50)>


>  <EC50 (nM)>


>  <Assay (EC50)>


>  <Article DOI>
10.1016/j.cell.2020.10.038

>  <Molecular Weight>
495.334

>  <Exact Mass>
494.0171997

>  <XLogP3>
3.1

>  <Heavy Atom Count>
30

>  <Ring Count>
3

>  <Hydrogen Bond Acceptor Count>
7

>  <Hydrogen Bond Donor Count>
4

>  <Rotatable Bond Count>
6

>  <Topological Polar Surface Area>
153.09

>  <Molecular Formula>
C18H16BrFN6O3S

>  <InChI>
InChI=1S/C18H16BrFN6O3S/c1-9-7-10(5-6-14(9)30(22,28)29)24-18-23-8-11(19)17(26-18)25-13-4-2-3-12(20)15(13)16(21)27/h2-8H,1H3,(H2,21,27)(H2,22,28,29)(H2,23,24,25,26)

>  <InChI Key>
IDMHFFLVANCQJA-UHFFFAOYSA-N

>  <BindingDB>


>  <PubChem>


>  <ChEMBL>


$$$$
131
Actelion Java MolfileCreator 2.0

  0  0  0  0  0  0              0 V3000
M  V30 BEGIN CTAB
M  V30 COUNTS 30 32 0 0 0
M  V30 BEGIN ATOM
M  V30 1 Br 2.598 1.0 0.0 0
M  V30 2 C 2.598 0.0 0.0 0
M  V30 3 C 1.732 -0.5 0.0 0
M  V30 4 C 3.4641 -0.4999 0.0 0
M  V30 5 N 1.732 -1.5 0.0 0
M  V30 6 N 0.866 0.0 0.0 0
M  V30 7 N 3.4641 -1.4999 0.0 0
M  V30 8 C 2.598 -1.9999 0.0 0
M  V30 9 C 0.0 -0.5 0.0 0
M  V30 10 N 2.598 -2.9999 0.0 0
M  V30 11 C -0.866 0.0 0.0 0
M  V30 12 C 0.0 -1.4999 0.0 0
M  V30 13 C 3.4641 -3.4999 0.0 0
M  V30 14 C -1.732 -0.4999 0.0 0
M  V30 15 C -0.866 1.0 0.0 0
M  V30 16 C -0.866 -1.9999 0.0 0
M  V30 17 C 3.4641 -4.4999 0.0 0
M  V30 18 C 4.3301 -2.9999 0.0 0
M  V30 19 F -2.598 0.0 0.0 0
M  V30 20 C -1.732 -1.4999 0.0 0
M  V30 21 O 0.0 1.5 0.0 0
M  V30 22 N -1.732 1.5 0.0 0
M  V30 23 C 4.3301 -4.9999 0.0 0
M  V30 24 C 5.1961 -3.4999 0.0 0
M  V30 25 C 5.1961 -4.4999 0.0 0
M  V30 26 C 4.3301 -5.9999 0.0 0
M  V30 27 S 6.0621 -4.9999 0.0 0
M  V30 28 O 5.5621 -5.866 0.0 0
M  V30 29 O 6.5621 -4.1339 0.0 0
M  V30 30 N 6.9282 -5.4999 0.0 0
M  V30 END ATOM
M  V30 BEGIN BOND
M  V30 1 1 1 2
M  V30 2 2 2 3
M  V30 3 1 2 4
M  V30 4 1 3 5
M  V30 5 1 3 6
M  V30 6 2 4 7
M  V30 7 2 5 8
M  V30 8 1 6 9
M  V30 9 1 8 10
M  V30 10 2 9 11
M  V30 11 1 9 12
M  V30 12 1 10 13
M  V30 13 1 11 14
M  V30 14 1 11 15
M  V30 15 2 12 16
M  V30 16 2 13 17
M  V30 17 1 13 18
M  V30 18 1 14 19
M  V30 19 2 14 20
M  V30 20 2 15 21
M  V30 21 1 15 22
M  V30 22 1 17 23
M  V30 23 2 18 24
M  V30 24 2 23 25
M  V30 25 1 23 26
M  V30 26 1 25 27
M  V30 27 2 27 28
M  V30 28 2 27 29
M  V30 29 1 27 30
M  V30 30 1 7 8
M  V30 31 1 16 20
M  V30 32 1 24 25
M  V30 END BOND
M  V30 END CTAB
M  END
>  <Molecule Name>
Compound 454

>  <Molecule Name 2>
Compound 454

>  <Compound ID>
131

>  <Name>
TMX-3012

>  <Uniprot>
O75676

>  <Target>
RPS6KA4

>  <Smiles>
CC1=CC(NC2=NC=C(Br)C(NC3=CC=CC(F)=C3C(N)=O)=N2)=CC=C1S(N)(=O)=O

>  <Kd (nM)>


>  <Assay (Kd)>


>  <Ki (nM)>


>  <Assay (Ki)>


>  <IC50 (nM)>


>  <Assay (IC50)>


>  <EC50 (nM)>


>  <Assay (EC50)>


>  <Article DOI>
10.1016/j.cell.2020.10.038

>  <Molecular Weight>
495.334

>  <Exact Mass>
494.0171997

>  <XLogP3>
3.1

>  <Heavy Atom Count>
30

>  <Ring Count>
3

>  <Hydrogen Bond Acceptor Count>
7

>  <Hydrogen Bond Donor Count>
4

>  <Rotatable Bond Count>
6

>  <Topological Polar Surface Area>
153.09

>  <Molecular Formula>
C18H16BrFN6O3S

>  <InChI>
InChI=1S/C18H16BrFN6O3S/c1-9-7-10(5-6-14(9)30(22,28)29)24-18-23-8-11(19)17(26-18)25-13-4-2-3-12(20)15(13)16(21)27/h2-8H,1H3,(H2,21,27)(H2,22,28,29)(H2,23,24,25,26)

>  <InChI Key>
IDMHFFLVANCQJA-UHFFFAOYSA-N

>  <BindingDB>


>  <PubChem>


>  <ChEMBL>


$$$$
131
Actelion Java MolfileCreator 2.0

  0  0  0  0  0  0              0 V3000
M  V30 BEGIN CTAB
M  V30 COUNTS 30 32 0 0 0
M  V30 BEGIN ATOM
M  V30 1 Br 2.598 1.0 0.0 0
M  V30 2 C 2.598 0.0 0.0 0
M  V30 3 C 1.732 -0.5 0.0 0
M  V30 4 C 3.4641 -0.4999 0.0 0
M  V30 5 N 1.732 -1.5 0.0 0
M  V30 6 N 0.866 0.0 0.0 0
M  V30 7 N 3.4641 -1.4999 0.0 0
M  V30 8 C 2.598 -1.9999 0.0 0
M  V30 9 C 0.0 -0.5 0.0 0
M  V30 10 N 2.598 -2.9999 0.0 0
M  V30 11 C -0.866 0.0 0.0 0
M  V30 12 C 0.0 -1.4999 0.0 0
M  V30 13 C 3.4641 -3.4999 0.0 0
M  V30 14 C -1.732 -0.4999 0.0 0
M  V30 15 C -0.866 1.0 0.0 0
M  V30 16 C -0.866 -1.9999 0.0 0
M  V30 17 C 3.4641 -4.4999 0.0 0
M  V30 18 C 4.3301 -2.9999 0.0 0
M  V30 19 F -2.598 0.0 0.0 0
M  V30 20 C -1.732 -1.4999 0.0 0
M  V30 21 O 0.0 1.5 0.0 0
M  V30 22 N -1.732 1.5 0.0 0
M  V30 23 C 4.3301 -4.9999 0.0 0
M  V30 24 C 5.1961 -3.4999 0.0 0
M  V30 25 C 5.1961 -4.4999 0.0 0
M  V30 26 C 4.3301 -5.9999 0.0 0
M  V30 27 S 6.0621 -4.9999 0.0 0
M  V30 28 O 5.5621 -5.866 0.0 0
M  V30 29 O 6.5621 -4.1339 0.0 0
M  V30 30 N 6.9282 -5.4999 0.0 0
M  V30 END ATOM
M  V30 BEGIN BOND
M  V30 1 1 1 2
M  V30 2 2 2 3
M  V30 3 1 2 4
M  V30 4 1 3 5
M  V30 5 1 3 6
M  V30 6 2 4 7
M  V30 7 2 5 8
M  V30 8 1 6 9
M  V30 9 1 8 10
M  V30 10 2 9 11
M  V30 11 1 9 12
M  V30 12 1 10 13
M  V30 13 1 11 14
M  V30 14 1 11 15
M  V30 15 2 12 16
M  V30 16 2 13 17
M  V30 17 1 13 18
M  V30 18 1 14 19
M  V30 19 2 14 20
M  V30 20 2 15 21
M  V30 21 1 15 22
M  V30 22 1 17 23
M  V30 23 2 18 24
M  V30 24 2 23 25
M  V30 25 1 23 26
M  V30 26 1 25 27
M  V30 27 2 27 28
M  V30 28 2 27 29
M  V30 29 1 27 30
M  V30 30 1 7 8
M  V30 31 1 16 20
M  V30 32 1 24 25
M  V30 END BOND
M  V30 END CTAB
M  END
>  <Molecule Name>
Compound 455

>  <Molecule Name 2>
Compound 455

>  <Compound ID>
131

>  <Name>
TMX-3012

>  <Uniprot>
Q9BYT3

>  <Target>
STK33

>  <Smiles>
CC1=CC(NC2=NC=C(Br)C(NC3=CC=CC(F)=C3C(N)=O)=N2)=CC=C1S(N)(=O)=O

>  <Kd (nM)>


>  <Assay (Kd)>


>  <Ki (nM)>


>  <Assay (Ki)>


>  <IC50 (nM)>


>  <Assay (IC50)>


>  <EC50 (nM)>


>  <Assay (EC50)>


>  <Article DOI>
10.1016/j.cell.2020.10.038

>  <Molecular Weight>
495.334

>  <Exact Mass>
494.0171997

>  <XLogP3>
3.1

>  <Heavy Atom Count>
30

>  <Ring Count>
3

>  <Hydrogen Bond Acceptor Count>
7

>  <Hydrogen Bond Donor Count>
4

>  <Rotatable Bond Count>
6

>  <Topological Polar Surface Area>
153.09

>  <Molecular Formula>
C18H16BrFN6O3S

>  <InChI>
InChI=1S/C18H16BrFN6O3S/c1-9-7-10(5-6-14(9)30(22,28)29)24-18-23-8-11(19)17(26-18)25-13-4-2-3-12(20)15(13)16(21)27/h2-8H,1H3,(H2,21,27)(H2,22,28,29)(H2,23,24,25,26)

>  <InChI Key>
IDMHFFLVANCQJA-UHFFFAOYSA-N

>  <BindingDB>


>  <PubChem>


>  <ChEMBL>


$$$$
131
Actelion Java MolfileCreator 2.0

  0  0  0  0  0  0              0 V3000
M  V30 BEGIN CTAB
M  V30 COUNTS 30 32 0 0 0
M  V30 BEGIN ATOM
M  V30 1 Br 2.598 1.0 0.0 0
M  V30 2 C 2.598 0.0 0.0 0
M  V30 3 C 1.732 -0.5 0.0 0
M  V30 4 C 3.4641 -0.4999 0.0 0
M  V30 5 N 1.732 -1.5 0.0 0
M  V30 6 N 0.866 0.0 0.0 0
M  V30 7 N 3.4641 -1.4999 0.0 0
M  V30 8 C 2.598 -1.9999 0.0 0
M  V30 9 C 0.0 -0.5 0.0 0
M  V30 10 N 2.598 -2.9999 0.0 0
M  V30 11 C -0.866 0.0 0.0 0
M  V30 12 C 0.0 -1.4999 0.0 0
M  V30 13 C 3.4641 -3.4999 0.0 0
M  V30 14 C -1.732 -0.4999 0.0 0
M  V30 15 C -0.866 1.0 0.0 0
M  V30 16 C -0.866 -1.9999 0.0 0
M  V30 17 C 3.4641 -4.4999 0.0 0
M  V30 18 C 4.3301 -2.9999 0.0 0
M  V30 19 F -2.598 0.0 0.0 0
M  V30 20 C -1.732 -1.4999 0.0 0
M  V30 21 O 0.0 1.5 0.0 0
M  V30 22 N -1.732 1.5 0.0 0
M  V30 23 C 4.3301 -4.9999 0.0 0
M  V30 24 C 5.1961 -3.4999 0.0 0
M  V30 25 C 5.1961 -4.4999 0.0 0
M  V30 26 C 4.3301 -5.9999 0.0 0
M  V30 27 S 6.0621 -4.9999 0.0 0
M  V30 28 O 5.5621 -5.866 0.0 0
M  V30 29 O 6.5621 -4.1339 0.0 0
M  V30 30 N 6.9282 -5.4999 0.0 0
M  V30 END ATOM
M  V30 BEGIN BOND
M  V30 1 1 1 2
M  V30 2 2 2 3
M  V30 3 1 2 4
M  V30 4 1 3 5
M  V30 5 1 3 6
M  V30 6 2 4 7
M  V30 7 2 5 8
M  V30 8 1 6 9
M  V30 9 1 8 10
M  V30 10 2 9 11
M  V30 11 1 9 12
M  V30 12 1 10 13
M  V30 13 1 11 14
M  V30 14 1 11 15
M  V30 15 2 12 16
M  V30 16 2 13 17
M  V30 17 1 13 18
M  V30 18 1 14 19
M  V30 19 2 14 20
M  V30 20 2 15 21
M  V30 21 1 15 22
M  V30 22 1 17 23
M  V30 23 2 18 24
M  V30 24 2 23 25
M  V30 25 1 23 26
M  V30 26 1 25 27
M  V30 27 2 27 28
M  V30 28 2 27 29
M  V30 29 1 27 30
M  V30 30 1 7 8
M  V30 31 1 16 20
M  V30 32 1 24 25
M  V30 END BOND
M  V30 END CTAB
M  END
>  <Molecule Name>
Compound 456

>  <Molecule Name 2>
Compound 456

>  <Compound ID>
131

>  <Name>
TMX-3012

>  <Uniprot>
Q8TDR2

>  <Target>
STK35

>  <Smiles>
CC1=CC(NC2=NC=C(Br)C(NC3=CC=CC(F)=C3C(N)=O)=N2)=CC=C1S(N)(=O)=O

>  <Kd (nM)>


>  <Assay (Kd)>


>  <Ki (nM)>


>  <Assay (Ki)>


>  <IC50 (nM)>


>  <Assay (IC50)>


>  <EC50 (nM)>


>  <Assay (EC50)>


>  <Article DOI>
10.1016/j.cell.2020.10.038

>  <Molecular Weight>
495.334

>  <Exact Mass>
494.0171997

>  <XLogP3>
3.1

>  <Heavy Atom Count>
30

>  <Ring Count>
3

>  <Hydrogen Bond Acceptor Count>
7

>  <Hydrogen Bond Donor Count>
4

>  <Rotatable Bond Count>
6

>  <Topological Polar Surface Area>
153.09

>  <Molecular Formula>
C18H16BrFN6O3S

>  <InChI>
InChI=1S/C18H16BrFN6O3S/c1-9-7-10(5-6-14(9)30(22,28)29)24-18-23-8-11(19)17(26-18)25-13-4-2-3-12(20)15(13)16(21)27/h2-8H,1H3,(H2,21,27)(H2,22,28,29)(H2,23,24,25,26)

>  <InChI Key>
IDMHFFLVANCQJA-UHFFFAOYSA-N

>  <BindingDB>


>  <PubChem>


>  <ChEMBL>


$$$$
131
Actelion Java MolfileCreator 2.0

  0  0  0  0  0  0              0 V3000
M  V30 BEGIN CTAB
M  V30 COUNTS 30 32 0 0 0
M  V30 BEGIN ATOM
M  V30 1 Br 2.598 1.0 0.0 0
M  V30 2 C 2.598 0.0 0.0 0
M  V30 3 C 1.732 -0.5 0.0 0
M  V30 4 C 3.4641 -0.4999 0.0 0
M  V30 5 N 1.732 -1.5 0.0 0
M  V30 6 N 0.866 0.0 0.0 0
M  V30 7 N 3.4641 -1.4999 0.0 0
M  V30 8 C 2.598 -1.9999 0.0 0
M  V30 9 C 0.0 -0.5 0.0 0
M  V30 10 N 2.598 -2.9999 0.0 0
M  V30 11 C -0.866 0.0 0.0 0
M  V30 12 C 0.0 -1.4999 0.0 0
M  V30 13 C 3.4641 -3.4999 0.0 0
M  V30 14 C -1.732 -0.4999 0.0 0
M  V30 15 C -0.866 1.0 0.0 0
M  V30 16 C -0.866 -1.9999 0.0 0
M  V30 17 C 3.4641 -4.4999 0.0 0
M  V30 18 C 4.3301 -2.9999 0.0 0
M  V30 19 F -2.598 0.0 0.0 0
M  V30 20 C -1.732 -1.4999 0.0 0
M  V30 21 O 0.0 1.5 0.0 0
M  V30 22 N -1.732 1.5 0.0 0
M  V30 23 C 4.3301 -4.9999 0.0 0
M  V30 24 C 5.1961 -3.4999 0.0 0
M  V30 25 C 5.1961 -4.4999 0.0 0
M  V30 26 C 4.3301 -5.9999 0.0 0
M  V30 27 S 6.0621 -4.9999 0.0 0
M  V30 28 O 5.5621 -5.866 0.0 0
M  V30 29 O 6.5621 -4.1339 0.0 0
M  V30 30 N 6.9282 -5.4999 0.0 0
M  V30 END ATOM
M  V30 BEGIN BOND
M  V30 1 1 1 2
M  V30 2 2 2 3
M  V30 3 1 2 4
M  V30 4 1 3 5
M  V30 5 1 3 6
M  V30 6 2 4 7
M  V30 7 2 5 8
M  V30 8 1 6 9
M  V30 9 1 8 10
M  V30 10 2 9 11
M  V30 11 1 9 12
M  V30 12 1 10 13
M  V30 13 1 11 14
M  V30 14 1 11 15
M  V30 15 2 12 16
M  V30 16 2 13 17
M  V30 17 1 13 18
M  V30 18 1 14 19
M  V30 19 2 14 20
M  V30 20 2 15 21
M  V30 21 1 15 22
M  V30 22 1 17 23
M  V30 23 2 18 24
M  V30 24 2 23 25
M  V30 25 1 23 26
M  V30 26 1 25 27
M  V30 27 2 27 28
M  V30 28 2 27 29
M  V30 29 1 27 30
M  V30 30 1 7 8
M  V30 31 1 16 20
M  V30 32 1 24 25
M  V30 END BOND
M  V30 END CTAB
M  END
>  <Molecule Name>
Compound 457

>  <Molecule Name 2>
Compound 457

>  <Compound ID>
131

>  <Name>
TMX-3012

>  <Uniprot>
Q15208

>  <Target>
STK38

>  <Smiles>
CC1=CC(NC2=NC=C(Br)C(NC3=CC=CC(F)=C3C(N)=O)=N2)=CC=C1S(N)(=O)=O

>  <Kd (nM)>


>  <Assay (Kd)>


>  <Ki (nM)>


>  <Assay (Ki)>


>  <IC50 (nM)>


>  <Assay (IC50)>


>  <EC50 (nM)>


>  <Assay (EC50)>


>  <Article DOI>
10.1016/j.cell.2020.10.038

>  <Molecular Weight>
495.334

>  <Exact Mass>
494.0171997

>  <XLogP3>
3.1

>  <Heavy Atom Count>
30

>  <Ring Count>
3

>  <Hydrogen Bond Acceptor Count>
7

>  <Hydrogen Bond Donor Count>
4

>  <Rotatable Bond Count>
6

>  <Topological Polar Surface Area>
153.09

>  <Molecular Formula>
C18H16BrFN6O3S

>  <InChI>
InChI=1S/C18H16BrFN6O3S/c1-9-7-10(5-6-14(9)30(22,28)29)24-18-23-8-11(19)17(26-18)25-13-4-2-3-12(20)15(13)16(21)27/h2-8H,1H3,(H2,21,27)(H2,22,28,29)(H2,23,24,25,26)

>  <InChI Key>
IDMHFFLVANCQJA-UHFFFAOYSA-N

>  <BindingDB>


>  <PubChem>


>  <ChEMBL>


$$$$
131
Actelion Java MolfileCreator 2.0

  0  0  0  0  0  0              0 V3000
M  V30 BEGIN CTAB
M  V30 COUNTS 30 32 0 0 0
M  V30 BEGIN ATOM
M  V30 1 Br 2.598 1.0 0.0 0
M  V30 2 C 2.598 0.0 0.0 0
M  V30 3 C 1.732 -0.5 0.0 0
M  V30 4 C 3.4641 -0.4999 0.0 0
M  V30 5 N 1.732 -1.5 0.0 0
M  V30 6 N 0.866 0.0 0.0 0
M  V30 7 N 3.4641 -1.4999 0.0 0
M  V30 8 C 2.598 -1.9999 0.0 0
M  V30 9 C 0.0 -0.5 0.0 0
M  V30 10 N 2.598 -2.9999 0.0 0
M  V30 11 C -0.866 0.0 0.0 0
M  V30 12 C 0.0 -1.4999 0.0 0
M  V30 13 C 3.4641 -3.4999 0.0 0
M  V30 14 C -1.732 -0.4999 0.0 0
M  V30 15 C -0.866 1.0 0.0 0
M  V30 16 C -0.866 -1.9999 0.0 0
M  V30 17 C 3.4641 -4.4999 0.0 0
M  V30 18 C 4.3301 -2.9999 0.0 0
M  V30 19 F -2.598 0.0 0.0 0
M  V30 20 C -1.732 -1.4999 0.0 0
M  V30 21 O 0.0 1.5 0.0 0
M  V30 22 N -1.732 1.5 0.0 0
M  V30 23 C 4.3301 -4.9999 0.0 0
M  V30 24 C 5.1961 -3.4999 0.0 0
M  V30 25 C 5.1961 -4.4999 0.0 0
M  V30 26 C 4.3301 -5.9999 0.0 0
M  V30 27 S 6.0621 -4.9999 0.0 0
M  V30 28 O 5.5621 -5.866 0.0 0
M  V30 29 O 6.5621 -4.1339 0.0 0
M  V30 30 N 6.9282 -5.4999 0.0 0
M  V30 END ATOM
M  V30 BEGIN BOND
M  V30 1 1 1 2
M  V30 2 2 2 3
M  V30 3 1 2 4
M  V30 4 1 3 5
M  V30 5 1 3 6
M  V30 6 2 4 7
M  V30 7 2 5 8
M  V30 8 1 6 9
M  V30 9 1 8 10
M  V30 10 2 9 11
M  V30 11 1 9 12
M  V30 12 1 10 13
M  V30 13 1 11 14
M  V30 14 1 11 15
M  V30 15 2 12 16
M  V30 16 2 13 17
M  V30 17 1 13 18
M  V30 18 1 14 19
M  V30 19 2 14 20
M  V30 20 2 15 21
M  V30 21 1 15 22
M  V30 22 1 17 23
M  V30 23 2 18 24
M  V30 24 2 23 25
M  V30 25 1 23 26
M  V30 26 1 25 27
M  V30 27 2 27 28
M  V30 28 2 27 29
M  V30 29 1 27 30
M  V30 30 1 7 8
M  V30 31 1 16 20
M  V30 32 1 24 25
M  V30 END BOND
M  V30 END CTAB
M  END
>  <Molecule Name>
Compound 458

>  <Molecule Name 2>
Compound 458

>  <Compound ID>
131

>  <Name>
TMX-3012

>  <Uniprot>
Q9UHD2

>  <Target>
TBK1

>  <Smiles>
CC1=CC(NC2=NC=C(Br)C(NC3=CC=CC(F)=C3C(N)=O)=N2)=CC=C1S(N)(=O)=O

>  <Kd (nM)>


>  <Assay (Kd)>


>  <Ki (nM)>


>  <Assay (Ki)>


>  <IC50 (nM)>


>  <Assay (IC50)>


>  <EC50 (nM)>


>  <Assay (EC50)>


>  <Article DOI>
10.1016/j.cell.2020.10.038

>  <Molecular Weight>
495.334

>  <Exact Mass>
494.0171997

>  <XLogP3>
3.1

>  <Heavy Atom Count>
30

>  <Ring Count>
3

>  <Hydrogen Bond Acceptor Count>
7

>  <Hydrogen Bond Donor Count>
4

>  <Rotatable Bond Count>
6

>  <Topological Polar Surface Area>
153.09

>  <Molecular Formula>
C18H16BrFN6O3S

>  <InChI>
InChI=1S/C18H16BrFN6O3S/c1-9-7-10(5-6-14(9)30(22,28)29)24-18-23-8-11(19)17(26-18)25-13-4-2-3-12(20)15(13)16(21)27/h2-8H,1H3,(H2,21,27)(H2,22,28,29)(H2,23,24,25,26)

>  <InChI Key>
IDMHFFLVANCQJA-UHFFFAOYSA-N

>  <BindingDB>


>  <PubChem>


>  <ChEMBL>


$$$$
131
Actelion Java MolfileCreator 2.0

  0  0  0  0  0  0              0 V3000
M  V30 BEGIN CTAB
M  V30 COUNTS 30 32 0 0 0
M  V30 BEGIN ATOM
M  V30 1 Br 2.598 1.0 0.0 0
M  V30 2 C 2.598 0.0 0.0 0
M  V30 3 C 1.732 -0.5 0.0 0
M  V30 4 C 3.4641 -0.4999 0.0 0
M  V30 5 N 1.732 -1.5 0.0 0
M  V30 6 N 0.866 0.0 0.0 0
M  V30 7 N 3.4641 -1.4999 0.0 0
M  V30 8 C 2.598 -1.9999 0.0 0
M  V30 9 C 0.0 -0.5 0.0 0
M  V30 10 N 2.598 -2.9999 0.0 0
M  V30 11 C -0.866 0.0 0.0 0
M  V30 12 C 0.0 -1.4999 0.0 0
M  V30 13 C 3.4641 -3.4999 0.0 0
M  V30 14 C -1.732 -0.4999 0.0 0
M  V30 15 C -0.866 1.0 0.0 0
M  V30 16 C -0.866 -1.9999 0.0 0
M  V30 17 C 3.4641 -4.4999 0.0 0
M  V30 18 C 4.3301 -2.9999 0.0 0
M  V30 19 F -2.598 0.0 0.0 0
M  V30 20 C -1.732 -1.4999 0.0 0
M  V30 21 O 0.0 1.5 0.0 0
M  V30 22 N -1.732 1.5 0.0 0
M  V30 23 C 4.3301 -4.9999 0.0 0
M  V30 24 C 5.1961 -3.4999 0.0 0
M  V30 25 C 5.1961 -4.4999 0.0 0
M  V30 26 C 4.3301 -5.9999 0.0 0
M  V30 27 S 6.0621 -4.9999 0.0 0
M  V30 28 O 5.5621 -5.866 0.0 0
M  V30 29 O 6.5621 -4.1339 0.0 0
M  V30 30 N 6.9282 -5.4999 0.0 0
M  V30 END ATOM
M  V30 BEGIN BOND
M  V30 1 1 1 2
M  V30 2 2 2 3
M  V30 3 1 2 4
M  V30 4 1 3 5
M  V30 5 1 3 6
M  V30 6 2 4 7
M  V30 7 2 5 8
M  V30 8 1 6 9
M  V30 9 1 8 10
M  V30 10 2 9 11
M  V30 11 1 9 12
M  V30 12 1 10 13
M  V30 13 1 11 14
M  V30 14 1 11 15
M  V30 15 2 12 16
M  V30 16 2 13 17
M  V30 17 1 13 18
M  V30 18 1 14 19
M  V30 19 2 14 20
M  V30 20 2 15 21
M  V30 21 1 15 22
M  V30 22 1 17 23
M  V30 23 2 18 24
M  V30 24 2 23 25
M  V30 25 1 23 26
M  V30 26 1 25 27
M  V30 27 2 27 28
M  V30 28 2 27 29
M  V30 29 1 27 30
M  V30 30 1 7 8
M  V30 31 1 16 20
M  V30 32 1 24 25
M  V30 END BOND
M  V30 END CTAB
M  END
>  <Molecule Name>
Compound 459

>  <Molecule Name 2>
Compound 459

>  <Compound ID>
131

>  <Name>
TMX-3012

>  <Uniprot>
P42680

>  <Target>
TEC

>  <Smiles>
CC1=CC(NC2=NC=C(Br)C(NC3=CC=CC(F)=C3C(N)=O)=N2)=CC=C1S(N)(=O)=O

>  <Kd (nM)>


>  <Assay (Kd)>


>  <Ki (nM)>


>  <Assay (Ki)>


>  <IC50 (nM)>


>  <Assay (IC50)>


>  <EC50 (nM)>


>  <Assay (EC50)>


>  <Article DOI>
10.1016/j.cell.2020.10.038

>  <Molecular Weight>
495.334

>  <Exact Mass>
494.0171997

>  <XLogP3>
3.1

>  <Heavy Atom Count>
30

>  <Ring Count>
3

>  <Hydrogen Bond Acceptor Count>
7

>  <Hydrogen Bond Donor Count>
4

>  <Rotatable Bond Count>
6

>  <Topological Polar Surface Area>
153.09

>  <Molecular Formula>
C18H16BrFN6O3S

>  <InChI>
InChI=1S/C18H16BrFN6O3S/c1-9-7-10(5-6-14(9)30(22,28)29)24-18-23-8-11(19)17(26-18)25-13-4-2-3-12(20)15(13)16(21)27/h2-8H,1H3,(H2,21,27)(H2,22,28,29)(H2,23,24,25,26)

>  <InChI Key>
IDMHFFLVANCQJA-UHFFFAOYSA-N

>  <BindingDB>


>  <PubChem>


>  <ChEMBL>


$$$$
131
Actelion Java MolfileCreator 2.0

  0  0  0  0  0  0              0 V3000
M  V30 BEGIN CTAB
M  V30 COUNTS 30 32 0 0 0
M  V30 BEGIN ATOM
M  V30 1 Br 2.598 1.0 0.0 0
M  V30 2 C 2.598 0.0 0.0 0
M  V30 3 C 1.732 -0.5 0.0 0
M  V30 4 C 3.4641 -0.4999 0.0 0
M  V30 5 N 1.732 -1.5 0.0 0
M  V30 6 N 0.866 0.0 0.0 0
M  V30 7 N 3.4641 -1.4999 0.0 0
M  V30 8 C 2.598 -1.9999 0.0 0
M  V30 9 C 0.0 -0.5 0.0 0
M  V30 10 N 2.598 -2.9999 0.0 0
M  V30 11 C -0.866 0.0 0.0 0
M  V30 12 C 0.0 -1.4999 0.0 0
M  V30 13 C 3.4641 -3.4999 0.0 0
M  V30 14 C -1.732 -0.4999 0.0 0
M  V30 15 C -0.866 1.0 0.0 0
M  V30 16 C -0.866 -1.9999 0.0 0
M  V30 17 C 3.4641 -4.4999 0.0 0
M  V30 18 C 4.3301 -2.9999 0.0 0
M  V30 19 F -2.598 0.0 0.0 0
M  V30 20 C -1.732 -1.4999 0.0 0
M  V30 21 O 0.0 1.5 0.0 0
M  V30 22 N -1.732 1.5 0.0 0
M  V30 23 C 4.3301 -4.9999 0.0 0
M  V30 24 C 5.1961 -3.4999 0.0 0
M  V30 25 C 5.1961 -4.4999 0.0 0
M  V30 26 C 4.3301 -5.9999 0.0 0
M  V30 27 S 6.0621 -4.9999 0.0 0
M  V30 28 O 5.5621 -5.866 0.0 0
M  V30 29 O 6.5621 -4.1339 0.0 0
M  V30 30 N 6.9282 -5.4999 0.0 0
M  V30 END ATOM
M  V30 BEGIN BOND
M  V30 1 1 1 2
M  V30 2 2 2 3
M  V30 3 1 2 4
M  V30 4 1 3 5
M  V30 5 1 3 6
M  V30 6 2 4 7
M  V30 7 2 5 8
M  V30 8 1 6 9
M  V30 9 1 8 10
M  V30 10 2 9 11
M  V30 11 1 9 12
M  V30 12 1 10 13
M  V30 13 1 11 14
M  V30 14 1 11 15
M  V30 15 2 12 16
M  V30 16 2 13 17
M  V30 17 1 13 18
M  V30 18 1 14 19
M  V30 19 2 14 20
M  V30 20 2 15 21
M  V30 21 1 15 22
M  V30 22 1 17 23
M  V30 23 2 18 24
M  V30 24 2 23 25
M  V30 25 1 23 26
M  V30 26 1 25 27
M  V30 27 2 27 28
M  V30 28 2 27 29
M  V30 29 1 27 30
M  V30 30 1 7 8
M  V30 31 1 16 20
M  V30 32 1 24 25
M  V30 END BOND
M  V30 END CTAB
M  END
>  <Molecule Name>
Compound 460

>  <Molecule Name 2>
Compound 460

>  <Compound ID>
131

>  <Name>
TMX-3012

>  <Uniprot>
P33981

>  <Target>
TTK

>  <Smiles>
CC1=CC(NC2=NC=C(Br)C(NC3=CC=CC(F)=C3C(N)=O)=N2)=CC=C1S(N)(=O)=O

>  <Kd (nM)>


>  <Assay (Kd)>


>  <Ki (nM)>


>  <Assay (Ki)>


>  <IC50 (nM)>


>  <Assay (IC50)>


>  <EC50 (nM)>


>  <Assay (EC50)>


>  <Article DOI>
10.1016/j.cell.2020.10.038

>  <Molecular Weight>
495.334

>  <Exact Mass>
494.0171997

>  <XLogP3>
3.1

>  <Heavy Atom Count>
30

>  <Ring Count>
3

>  <Hydrogen Bond Acceptor Count>
7

>  <Hydrogen Bond Donor Count>
4

>  <Rotatable Bond Count>
6

>  <Topological Polar Surface Area>
153.09

>  <Molecular Formula>
C18H16BrFN6O3S

>  <InChI>
InChI=1S/C18H16BrFN6O3S/c1-9-7-10(5-6-14(9)30(22,28)29)24-18-23-8-11(19)17(26-18)25-13-4-2-3-12(20)15(13)16(21)27/h2-8H,1H3,(H2,21,27)(H2,22,28,29)(H2,23,24,25,26)

>  <InChI Key>
IDMHFFLVANCQJA-UHFFFAOYSA-N

>  <BindingDB>


>  <PubChem>


>  <ChEMBL>


$$$$
131
Actelion Java MolfileCreator 2.0

  0  0  0  0  0  0              0 V3000
M  V30 BEGIN CTAB
M  V30 COUNTS 30 32 0 0 0
M  V30 BEGIN ATOM
M  V30 1 Br 2.598 1.0 0.0 0
M  V30 2 C 2.598 0.0 0.0 0
M  V30 3 C 1.732 -0.5 0.0 0
M  V30 4 C 3.4641 -0.4999 0.0 0
M  V30 5 N 1.732 -1.5 0.0 0
M  V30 6 N 0.866 0.0 0.0 0
M  V30 7 N 3.4641 -1.4999 0.0 0
M  V30 8 C 2.598 -1.9999 0.0 0
M  V30 9 C 0.0 -0.5 0.0 0
M  V30 10 N 2.598 -2.9999 0.0 0
M  V30 11 C -0.866 0.0 0.0 0
M  V30 12 C 0.0 -1.4999 0.0 0
M  V30 13 C 3.4641 -3.4999 0.0 0
M  V30 14 C -1.732 -0.4999 0.0 0
M  V30 15 C -0.866 1.0 0.0 0
M  V30 16 C -0.866 -1.9999 0.0 0
M  V30 17 C 3.4641 -4.4999 0.0 0
M  V30 18 C 4.3301 -2.9999 0.0 0
M  V30 19 F -2.598 0.0 0.0 0
M  V30 20 C -1.732 -1.4999 0.0 0
M  V30 21 O 0.0 1.5 0.0 0
M  V30 22 N -1.732 1.5 0.0 0
M  V30 23 C 4.3301 -4.9999 0.0 0
M  V30 24 C 5.1961 -3.4999 0.0 0
M  V30 25 C 5.1961 -4.4999 0.0 0
M  V30 26 C 4.3301 -5.9999 0.0 0
M  V30 27 S 6.0621 -4.9999 0.0 0
M  V30 28 O 5.5621 -5.866 0.0 0
M  V30 29 O 6.5621 -4.1339 0.0 0
M  V30 30 N 6.9282 -5.4999 0.0 0
M  V30 END ATOM
M  V30 BEGIN BOND
M  V30 1 1 1 2
M  V30 2 2 2 3
M  V30 3 1 2 4
M  V30 4 1 3 5
M  V30 5 1 3 6
M  V30 6 2 4 7
M  V30 7 2 5 8
M  V30 8 1 6 9
M  V30 9 1 8 10
M  V30 10 2 9 11
M  V30 11 1 9 12
M  V30 12 1 10 13
M  V30 13 1 11 14
M  V30 14 1 11 15
M  V30 15 2 12 16
M  V30 16 2 13 17
M  V30 17 1 13 18
M  V30 18 1 14 19
M  V30 19 2 14 20
M  V30 20 2 15 21
M  V30 21 1 15 22
M  V30 22 1 17 23
M  V30 23 2 18 24
M  V30 24 2 23 25
M  V30 25 1 23 26
M  V30 26 1 25 27
M  V30 27 2 27 28
M  V30 28 2 27 29
M  V30 29 1 27 30
M  V30 30 1 7 8
M  V30 31 1 16 20
M  V30 32 1 24 25
M  V30 END BOND
M  V30 END CTAB
M  END
>  <Molecule Name>
Compound 461

>  <Molecule Name 2>
Compound 461

>  <Compound ID>
131

>  <Name>
TMX-3012

>  <Uniprot>
P30291

>  <Target>
Wee1

>  <Smiles>
CC1=CC(NC2=NC=C(Br)C(NC3=CC=CC(F)=C3C(N)=O)=N2)=CC=C1S(N)(=O)=O

>  <Kd (nM)>


>  <Assay (Kd)>


>  <Ki (nM)>


>  <Assay (Ki)>


>  <IC50 (nM)>


>  <Assay (IC50)>


>  <EC50 (nM)>


>  <Assay (EC50)>


>  <Article DOI>
10.1016/j.cell.2020.10.038

>  <Molecular Weight>
495.334

>  <Exact Mass>
494.0171997

>  <XLogP3>
3.1

>  <Heavy Atom Count>
30

>  <Ring Count>
3

>  <Hydrogen Bond Acceptor Count>
7

>  <Hydrogen Bond Donor Count>
4

>  <Rotatable Bond Count>
6

>  <Topological Polar Surface Area>
153.09

>  <Molecular Formula>
C18H16BrFN6O3S

>  <InChI>
InChI=1S/C18H16BrFN6O3S/c1-9-7-10(5-6-14(9)30(22,28)29)24-18-23-8-11(19)17(26-18)25-13-4-2-3-12(20)15(13)16(21)27/h2-8H,1H3,(H2,21,27)(H2,22,28,29)(H2,23,24,25,26)

>  <InChI Key>
IDMHFFLVANCQJA-UHFFFAOYSA-N

>  <BindingDB>


>  <PubChem>


>  <ChEMBL>


$$$$
132
Actelion Java MolfileCreator 2.0

  0  0  0  0  0  0              0 V3000
M  V30 BEGIN CTAB
M  V30 COUNTS 32 35 0 0 0
M  V30 BEGIN ATOM
M  V30 1 S 2.598 -0.75 0.0 0
M  V30 2 O 1.848 -2.049 0.0 0
M  V30 3 O 3.348 -2.049 0.0 0
M  V30 4 N 3.8971 0.0 0.0 0
M  V30 5 C 1.299 0.0 0.0 0
M  V30 6 C 5.1961 -0.75 0.0 0
M  V30 7 C 0.0 -0.75 0.0 0
M  V30 8 C 5.1961 -2.25 0.0 0
M  V30 9 C 6.4951 0.0 0.0 0
M  V30 10 C 6.4951 -3.0 0.0 0
M  V30 11 C 7.7942 -0.75 0.0 0
M  V30 12 C 6.4951 -4.5 0.0 0
M  V30 13 C 7.7942 -2.25 0.0 0
M  V30 14 C 7.7942 -5.25 0.0 0
M  V30 15 C 5.1961 -5.25 0.0 0
M  V30 16 O 9.0932 -3.0 0.0 0
M  V30 17 C 7.7942 -6.75 0.0 0
M  V30 18 C 9.2208 -4.7864 0.0 0
M  V30 19 N 5.1961 -6.75 0.0 0
M  V30 20 C 10.3923 -2.25 0.0 0
M  V30 21 N 9.2208 -7.2135 0.0 0
M  V30 22 C 6.4951 -7.5 0.0 0
M  V30 23 C 10.1025 -6.0 0.0 0
M  V30 24 C 3.8971 -7.5 0.0 0
M  V30 25 C 11.6913 -3.0 0.0 0
M  V30 26 C 10.3923 -0.75 0.0 0
M  V30 27 O 6.4951 -9.0 0.0 0
M  V30 28 F 11.6913 -4.5 0.0 0
M  V30 29 C 12.9903 -2.25 0.0 0
M  V30 30 C 11.6913 0.0 0.0 0
M  V30 31 C 12.9903 -0.75 0.0 0
M  V30 32 F 14.2894 0.0 0.0 0
M  V30 END ATOM
M  V30 BEGIN BOND
M  V30 1 2 1 2
M  V30 2 2 1 3
M  V30 3 1 1 4
M  V30 4 1 1 5
M  V30 5 1 4 6
M  V30 6 1 5 7
M  V30 7 2 6 8
M  V30 8 1 6 9
M  V30 9 1 8 10
M  V30 10 2 9 11
M  V30 11 1 10 12
M  V30 12 2 10 13
M  V30 13 1 12 14
M  V30 14 2 12 15
M  V30 15 1 13 16
M  V30 16 2 14 17
M  V30 17 1 14 18
M  V30 18 1 15 19
M  V30 19 1 16 20
M  V30 20 1 17 21
M  V30 21 1 17 22
M  V30 22 2 18 23
M  V30 23 1 19 24
M  V30 24 2 20 25
M  V30 25 1 20 26
M  V30 26 2 22 27
M  V30 27 1 25 28
M  V30 28 1 25 29
M  V30 29 2 26 30
M  V30 30 2 29 31
M  V30 31 1 31 32
M  V30 32 1 11 13
M  V30 33 1 19 22
M  V30 34 1 21 23
M  V30 35 1 30 31
M  V30 END BOND
M  V30 END CTAB
M  END
>  <Molecule Name>
Compound 462

>  <Molecule Name 2>
Compound 462

>  <Compound ID>
132

>  <Name>
ABBV-075

>  <Uniprot>
O60885

>  <Target>
BRD4

>  <Smiles>
CCS(=O)(=O)NC1=CC=C(OC2=CC=C(F)C=C2F)C(C2=CN(C)C(=O)C3=C2C=C[NH]3)=C1

>  <Kd (nM)>


>  <Assay (Kd)>


>  <Ki (nM)>
1.5

>  <Assay (Ki)>
Ki of BRD4 was tested by TR-FRET

>  <IC50 (nM)>


>  <Assay (IC50)>


>  <EC50 (nM)>


>  <Assay (EC50)>


>  <Article DOI>
10.1021/acs.jmedchem.7b00746

>  <Molecular Weight>
459.474

>  <Exact Mass>
459.1064335

>  <XLogP3>
2.88

>  <Heavy Atom Count>
32

>  <Ring Count>
4

>  <Hydrogen Bond Acceptor Count>
5

>  <Hydrogen Bond Donor Count>
2

>  <Rotatable Bond Count>
6

>  <Topological Polar Surface Area>
93.19

>  <Molecular Formula>
C22H19F2N3O4S

>  <InChI>
InChI=1S/C22H19F2N3O4S/c1-3-32(29,30)26-14-5-7-19(31-20-6-4-13(23)10-18(20)24)16(11-14)17-12-27(2)22(28)21-15(17)8-9-25-21/h4-12,25-26H,3H2,1-2H3

>  <InChI Key>
RDONXGFGWSSFMY-UHFFFAOYSA-N

>  <BindingDB>
220447

>  <PubChem>
71600087

>  <ChEMBL>
CHEMBL3987016

$$$$
133
Actelion Java MolfileCreator 2.0

  0  0  0  0  0  0              0 V3000
M  V30 BEGIN CTAB
M  V30 COUNTS 37 40 0 0 0
M  V30 BEGIN ATOM
M  V30 1 O 4.3301 3.0 0.0 0
M  V30 2 C 3.4641 2.4999 0.0 0
M  V30 3 N 3.4641 1.4999 0.0 0
M  V30 4 C 2.598 2.9999 0.0 0
M  V30 5 C 4.3301 1.0 0.0 0
M  V30 6 C 2.598 3.9999 0.0 0
M  V30 7 C 4.3301 0.0 0.0 0
M  V30 8 C 5.1961 1.5 0.0 0
M  V30 9 N 3.4641 -0.5 0.0 0
M  V30 10 C 5.1961 -0.4999 0.0 0
M  V30 11 C 6.0621 1.0 0.0 0
M  V30 12 C 3.4641 -1.5 0.0 0
M  V30 13 C 2.598 0.0 0.0 0
M  V30 14 C 6.0621 0.0 0.0 0
M  V30 15 N 6.9282 1.5 0.0 0
M  V30 16 C 2.598 -1.9999 0.0 0
M  V30 17 O 6.9282 -0.4999 0.0 0
M  V30 18 C 6.9282 2.5 0.0 0
M  V30 19 N 2.598 -2.9999 0.0 0
M  V30 20 C 7.7942 0.0 0.0 0
M  V30 21 N 7.7942 3.0 0.0 0
M  V30 22 N 6.0621 3.0 0.0 0
M  V30 23 C 3.4641 -3.5 0.0 0
M  V30 24 C 1.732 -3.5 0.0 0
M  V30 25 C 7.7942 4.0 0.0 0
M  V30 26 C 6.0621 4.0 0.0 0
M  V30 27 C 8.6602 4.5 0.0 0
M  V30 28 C 6.9282 4.5 0.0 0
M  V30 29 C 9.5737 4.0932 0.0 0
M  V30 30 C 8.7647 5.4945 0.0 0
M  V30 31 C 10.2429 4.8364 0.0 0
M  V30 32 C 9.8828 3.1422 0.0 0
M  V30 33 N 9.7429 5.7024 0.0 0
M  V30 34 C 11.221 4.6284 0.0 0
M  V30 35 C 10.8609 2.9342 0.0 0
M  V30 36 C 10.1496 6.6159 0.0 0
M  V30 37 C 11.53 3.6774 0.0 0
M  V30 END ATOM
M  V30 BEGIN BOND
M  V30 1 2 1 2
M  V30 2 1 2 3
M  V30 3 1 2 4
M  V30 4 1 3 5
M  V30 5 2 4 6
M  V30 6 2 5 7
M  V30 7 1 5 8
M  V30 8 1 7 9
M  V30 9 1 7 10
M  V30 10 2 8 11
M  V30 11 1 9 12
M  V30 12 1 9 13
M  V30 13 2 10 14
M  V30 14 1 11 15
M  V30 15 1 12 16
M  V30 16 1 14 17
M  V30 17 1 15 18
M  V30 18 1 16 19
M  V30 19 1 17 20
M  V30 20 2 18 21
M  V30 21 1 18 22
M  V30 22 1 19 23
M  V30 23 1 19 24
M  V30 24 1 21 25
M  V30 25 2 22 26
M  V30 26 1 25 27
M  V30 27 2 25 28
M  V30 28 1 27 29
M  V30 29 2 27 30
M  V30 30 2 29 31
M  V30 31 1 29 32
M  V30 32 1 30 33
M  V30 33 1 31 34
M  V30 34 2 32 35
M  V30 35 1 33 36
M  V30 36 2 34 37
M  V30 37 1 11 14
M  V30 38 1 26 28
M  V30 39 1 31 33
M  V30 40 1 35 37
M  V30 END BOND
M  V30 END CTAB
M  END
>  <Molecule Name>
Compound 463

>  <Molecule Name 2>
Compound 463

>  <Compound ID>
133

>  <Name>
Osimertinib

>  <Uniprot>
P00533

>  <Target>
EGFR e19d

>  <Smiles>
C=CC(=O)NC1=CC(NC2=NC=CC(C3=CN(C)C4=CC=CC=C34)=N2)=C(OC)C=C1N(C)CCN(C)C

>  <Kd (nM)>


>  <Assay (Kd)>


>  <Ki (nM)>


>  <Assay (Ki)>


>  <IC50 (nM)>
1.47

>  <Assay (IC50)>
Inhibit proliferation of HCC827 (EGFR del19) cells

>  <EC50 (nM)>


>  <Assay (EC50)>


>  <Article DOI>
10.1021/acs.jmedchem.6b01626

>  <Molecular Weight>
499.619

>  <Exact Mass>
499.2695733

>  <XLogP3>
3.72

>  <Heavy Atom Count>
37

>  <Ring Count>
4

>  <Hydrogen Bond Acceptor Count>
8

>  <Hydrogen Bond Donor Count>
2

>  <Rotatable Bond Count>
10

>  <Topological Polar Surface Area>
87.55

>  <Molecular Formula>
C28H33N7O2

>  <InChI>
InChI=1S/C28H33N7O2/c1-7-27(36)30-22-16-23(26(37-6)17-25(22)34(4)15-14-33(2)3)32-28-29-13-12-21(31-28)20-18-35(5)24-11-9-8-10-19(20)24/h7-13,16-18H,1,14-15H2,2-6H3,(H,30,36)(H,29,31,32)

>  <InChI Key>
DUYJMQONPNNFPI-UHFFFAOYSA-N

>  <BindingDB>
50029668

>  <PubChem>
71496458

>  <ChEMBL>
CHEMBL3353410

$$$$
133
Actelion Java MolfileCreator 2.0

  0  0  0  0  0  0              0 V3000
M  V30 BEGIN CTAB
M  V30 COUNTS 37 40 0 0 0
M  V30 BEGIN ATOM
M  V30 1 O 4.3301 3.0 0.0 0
M  V30 2 C 3.4641 2.4999 0.0 0
M  V30 3 N 3.4641 1.4999 0.0 0
M  V30 4 C 2.598 2.9999 0.0 0
M  V30 5 C 4.3301 1.0 0.0 0
M  V30 6 C 2.598 3.9999 0.0 0
M  V30 7 C 4.3301 0.0 0.0 0
M  V30 8 C 5.1961 1.5 0.0 0
M  V30 9 N 3.4641 -0.5 0.0 0
M  V30 10 C 5.1961 -0.4999 0.0 0
M  V30 11 C 6.0621 1.0 0.0 0
M  V30 12 C 3.4641 -1.5 0.0 0
M  V30 13 C 2.598 0.0 0.0 0
M  V30 14 C 6.0621 0.0 0.0 0
M  V30 15 N 6.9282 1.5 0.0 0
M  V30 16 C 2.598 -1.9999 0.0 0
M  V30 17 O 6.9282 -0.4999 0.0 0
M  V30 18 C 6.9282 2.5 0.0 0
M  V30 19 N 2.598 -2.9999 0.0 0
M  V30 20 C 7.7942 0.0 0.0 0
M  V30 21 N 7.7942 3.0 0.0 0
M  V30 22 N 6.0621 3.0 0.0 0
M  V30 23 C 3.4641 -3.5 0.0 0
M  V30 24 C 1.732 -3.5 0.0 0
M  V30 25 C 7.7942 4.0 0.0 0
M  V30 26 C 6.0621 4.0 0.0 0
M  V30 27 C 8.6602 4.5 0.0 0
M  V30 28 C 6.9282 4.5 0.0 0
M  V30 29 C 9.5737 4.0932 0.0 0
M  V30 30 C 8.7647 5.4945 0.0 0
M  V30 31 C 10.2429 4.8364 0.0 0
M  V30 32 C 9.8828 3.1422 0.0 0
M  V30 33 N 9.7429 5.7024 0.0 0
M  V30 34 C 11.221 4.6284 0.0 0
M  V30 35 C 10.8609 2.9342 0.0 0
M  V30 36 C 10.1496 6.6159 0.0 0
M  V30 37 C 11.53 3.6774 0.0 0
M  V30 END ATOM
M  V30 BEGIN BOND
M  V30 1 2 1 2
M  V30 2 1 2 3
M  V30 3 1 2 4
M  V30 4 1 3 5
M  V30 5 2 4 6
M  V30 6 2 5 7
M  V30 7 1 5 8
M  V30 8 1 7 9
M  V30 9 1 7 10
M  V30 10 2 8 11
M  V30 11 1 9 12
M  V30 12 1 9 13
M  V30 13 2 10 14
M  V30 14 1 11 15
M  V30 15 1 12 16
M  V30 16 1 14 17
M  V30 17 1 15 18
M  V30 18 1 16 19
M  V30 19 1 17 20
M  V30 20 2 18 21
M  V30 21 1 18 22
M  V30 22 1 19 23
M  V30 23 1 19 24
M  V30 24 1 21 25
M  V30 25 2 22 26
M  V30 26 1 25 27
M  V30 27 2 25 28
M  V30 28 1 27 29
M  V30 29 2 27 30
M  V30 30 2 29 31
M  V30 31 1 29 32
M  V30 32 1 30 33
M  V30 33 1 31 34
M  V30 34 2 32 35
M  V30 35 1 33 36
M  V30 36 2 34 37
M  V30 37 1 11 14
M  V30 38 1 26 28
M  V30 39 1 31 33
M  V30 40 1 35 37
M  V30 END BOND
M  V30 END CTAB
M  END
>  <Molecule Name>
Compound 464

>  <Molecule Name 2>
Compound 464

>  <Compound ID>
133

>  <Name>
Osimertinib

>  <Uniprot>
P00533

>  <Target>
EGFR L858R

>  <Smiles>
C=CC(=O)NC1=CC(NC2=NC=CC(C3=CN(C)C4=CC=CC=C34)=N2)=C(OC)C=C1N(C)CCN(C)C

>  <Kd (nM)>


>  <Assay (Kd)>


>  <Ki (nM)>
1.6

>  <Assay (Ki)>
Ki of L858R

>  <IC50 (nM)>
1.3

>  <Assay (IC50)>
IC50 of L858R was tested by the HTRF assay

>  <EC50 (nM)>


>  <Assay (EC50)>


>  <Article DOI>
10.1021/acs.jmedchem.6b01626

>  <Molecular Weight>
499.619

>  <Exact Mass>
499.2695733

>  <XLogP3>
3.72

>  <Heavy Atom Count>
37

>  <Ring Count>
4

>  <Hydrogen Bond Acceptor Count>
8

>  <Hydrogen Bond Donor Count>
2

>  <Rotatable Bond Count>
10

>  <Topological Polar Surface Area>
87.55

>  <Molecular Formula>
C28H33N7O2

>  <InChI>
InChI=1S/C28H33N7O2/c1-7-27(36)30-22-16-23(26(37-6)17-25(22)34(4)15-14-33(2)3)32-28-29-13-12-21(31-28)20-18-35(5)24-11-9-8-10-19(20)24/h7-13,16-18H,1,14-15H2,2-6H3,(H,30,36)(H,29,31,32)

>  <InChI Key>
DUYJMQONPNNFPI-UHFFFAOYSA-N

>  <BindingDB>
50029668

>  <PubChem>
71496458

>  <ChEMBL>
CHEMBL3353410

$$$$
133
Actelion Java MolfileCreator 2.0

  0  0  0  0  0  0              0 V3000
M  V30 BEGIN CTAB
M  V30 COUNTS 37 40 0 0 0
M  V30 BEGIN ATOM
M  V30 1 O 4.3301 3.0 0.0 0
M  V30 2 C 3.4641 2.4999 0.0 0
M  V30 3 N 3.4641 1.4999 0.0 0
M  V30 4 C 2.598 2.9999 0.0 0
M  V30 5 C 4.3301 1.0 0.0 0
M  V30 6 C 2.598 3.9999 0.0 0
M  V30 7 C 4.3301 0.0 0.0 0
M  V30 8 C 5.1961 1.5 0.0 0
M  V30 9 N 3.4641 -0.5 0.0 0
M  V30 10 C 5.1961 -0.4999 0.0 0
M  V30 11 C 6.0621 1.0 0.0 0
M  V30 12 C 3.4641 -1.5 0.0 0
M  V30 13 C 2.598 0.0 0.0 0
M  V30 14 C 6.0621 0.0 0.0 0
M  V30 15 N 6.9282 1.5 0.0 0
M  V30 16 C 2.598 -1.9999 0.0 0
M  V30 17 O 6.9282 -0.4999 0.0 0
M  V30 18 C 6.9282 2.5 0.0 0
M  V30 19 N 2.598 -2.9999 0.0 0
M  V30 20 C 7.7942 0.0 0.0 0
M  V30 21 N 7.7942 3.0 0.0 0
M  V30 22 N 6.0621 3.0 0.0 0
M  V30 23 C 3.4641 -3.5 0.0 0
M  V30 24 C 1.732 -3.5 0.0 0
M  V30 25 C 7.7942 4.0 0.0 0
M  V30 26 C 6.0621 4.0 0.0 0
M  V30 27 C 8.6602 4.5 0.0 0
M  V30 28 C 6.9282 4.5 0.0 0
M  V30 29 C 9.5737 4.0932 0.0 0
M  V30 30 C 8.7647 5.4945 0.0 0
M  V30 31 C 10.2429 4.8364 0.0 0
M  V30 32 C 9.8828 3.1422 0.0 0
M  V30 33 N 9.7429 5.7024 0.0 0
M  V30 34 C 11.221 4.6284 0.0 0
M  V30 35 C 10.8609 2.9342 0.0 0
M  V30 36 C 10.1496 6.6159 0.0 0
M  V30 37 C 11.53 3.6774 0.0 0
M  V30 END ATOM
M  V30 BEGIN BOND
M  V30 1 2 1 2
M  V30 2 1 2 3
M  V30 3 1 2 4
M  V30 4 1 3 5
M  V30 5 2 4 6
M  V30 6 2 5 7
M  V30 7 1 5 8
M  V30 8 1 7 9
M  V30 9 1 7 10
M  V30 10 2 8 11
M  V30 11 1 9 12
M  V30 12 1 9 13
M  V30 13 2 10 14
M  V30 14 1 11 15
M  V30 15 1 12 16
M  V30 16 1 14 17
M  V30 17 1 15 18
M  V30 18 1 16 19
M  V30 19 1 17 20
M  V30 20 2 18 21
M  V30 21 1 18 22
M  V30 22 1 19 23
M  V30 23 1 19 24
M  V30 24 1 21 25
M  V30 25 2 22 26
M  V30 26 1 25 27
M  V30 27 2 25 28
M  V30 28 1 27 29
M  V30 29 2 27 30
M  V30 30 2 29 31
M  V30 31 1 29 32
M  V30 32 1 30 33
M  V30 33 1 31 34
M  V30 34 2 32 35
M  V30 35 1 33 36
M  V30 36 2 34 37
M  V30 37 1 11 14
M  V30 38 1 26 28
M  V30 39 1 31 33
M  V30 40 1 35 37
M  V30 END BOND
M  V30 END CTAB
M  END
>  <Molecule Name>
Compound 465

>  <Molecule Name 2>
Compound 465

>  <Compound ID>
133

>  <Name>
Osimertinib

>  <Uniprot>
P00533

>  <Target>
EGFR L858R/T790M

>  <Smiles>
C=CC(=O)NC1=CC(NC2=NC=CC(C3=CN(C)C4=CC=CC=C34)=N2)=C(OC)C=C1N(C)CCN(C)C

>  <Kd (nM)>


>  <Assay (Kd)>


>  <Ki (nM)>
1.5

>  <Assay (Ki)>
Ki of EGFR L858R/T790M

>  <IC50 (nM)>
<1

>  <Assay (IC50)>
IC50 of EGFR L858R/T790M was tested by the HTRF assay

>  <EC50 (nM)>


>  <Assay (EC50)>


>  <Article DOI>
10.1021/acs.jmedchem.6b01626

>  <Molecular Weight>
499.619

>  <Exact Mass>
499.2695733

>  <XLogP3>
3.72

>  <Heavy Atom Count>
37

>  <Ring Count>
4

>  <Hydrogen Bond Acceptor Count>
8

>  <Hydrogen Bond Donor Count>
2

>  <Rotatable Bond Count>
10

>  <Topological Polar Surface Area>
87.55

>  <Molecular Formula>
C28H33N7O2

>  <InChI>
InChI=1S/C28H33N7O2/c1-7-27(36)30-22-16-23(26(37-6)17-25(22)34(4)15-14-33(2)3)32-28-29-13-12-21(31-28)20-18-35(5)24-11-9-8-10-19(20)24/h7-13,16-18H,1,14-15H2,2-6H3,(H,30,36)(H,29,31,32)

>  <InChI Key>
DUYJMQONPNNFPI-UHFFFAOYSA-N

>  <BindingDB>
50029668

>  <PubChem>
71496458

>  <ChEMBL>
CHEMBL3353410

$$$$
133
Actelion Java MolfileCreator 2.0

  0  0  0  0  0  0              0 V3000
M  V30 BEGIN CTAB
M  V30 COUNTS 37 40 0 0 0
M  V30 BEGIN ATOM
M  V30 1 O 4.3301 3.0 0.0 0
M  V30 2 C 3.4641 2.4999 0.0 0
M  V30 3 N 3.4641 1.4999 0.0 0
M  V30 4 C 2.598 2.9999 0.0 0
M  V30 5 C 4.3301 1.0 0.0 0
M  V30 6 C 2.598 3.9999 0.0 0
M  V30 7 C 4.3301 0.0 0.0 0
M  V30 8 C 5.1961 1.5 0.0 0
M  V30 9 N 3.4641 -0.5 0.0 0
M  V30 10 C 5.1961 -0.4999 0.0 0
M  V30 11 C 6.0621 1.0 0.0 0
M  V30 12 C 3.4641 -1.5 0.0 0
M  V30 13 C 2.598 0.0 0.0 0
M  V30 14 C 6.0621 0.0 0.0 0
M  V30 15 N 6.9282 1.5 0.0 0
M  V30 16 C 2.598 -1.9999 0.0 0
M  V30 17 O 6.9282 -0.4999 0.0 0
M  V30 18 C 6.9282 2.5 0.0 0
M  V30 19 N 2.598 -2.9999 0.0 0
M  V30 20 C 7.7942 0.0 0.0 0
M  V30 21 N 7.7942 3.0 0.0 0
M  V30 22 N 6.0621 3.0 0.0 0
M  V30 23 C 3.4641 -3.5 0.0 0
M  V30 24 C 1.732 -3.5 0.0 0
M  V30 25 C 7.7942 4.0 0.0 0
M  V30 26 C 6.0621 4.0 0.0 0
M  V30 27 C 8.6602 4.5 0.0 0
M  V30 28 C 6.9282 4.5 0.0 0
M  V30 29 C 9.5737 4.0932 0.0 0
M  V30 30 C 8.7647 5.4945 0.0 0
M  V30 31 C 10.2429 4.8364 0.0 0
M  V30 32 C 9.8828 3.1422 0.0 0
M  V30 33 N 9.7429 5.7024 0.0 0
M  V30 34 C 11.221 4.6284 0.0 0
M  V30 35 C 10.8609 2.9342 0.0 0
M  V30 36 C 10.1496 6.6159 0.0 0
M  V30 37 C 11.53 3.6774 0.0 0
M  V30 END ATOM
M  V30 BEGIN BOND
M  V30 1 2 1 2
M  V30 2 1 2 3
M  V30 3 1 2 4
M  V30 4 1 3 5
M  V30 5 2 4 6
M  V30 6 2 5 7
M  V30 7 1 5 8
M  V30 8 1 7 9
M  V30 9 1 7 10
M  V30 10 2 8 11
M  V30 11 1 9 12
M  V30 12 1 9 13
M  V30 13 2 10 14
M  V30 14 1 11 15
M  V30 15 1 12 16
M  V30 16 1 14 17
M  V30 17 1 15 18
M  V30 18 1 16 19
M  V30 19 1 17 20
M  V30 20 2 18 21
M  V30 21 1 18 22
M  V30 22 1 19 23
M  V30 23 1 19 24
M  V30 24 1 21 25
M  V30 25 2 22 26
M  V30 26 1 25 27
M  V30 27 2 25 28
M  V30 28 1 27 29
M  V30 29 2 27 30
M  V30 30 2 29 31
M  V30 31 1 29 32
M  V30 32 1 30 33
M  V30 33 1 31 34
M  V30 34 2 32 35
M  V30 35 1 33 36
M  V30 36 2 34 37
M  V30 37 1 11 14
M  V30 38 1 26 28
M  V30 39 1 31 33
M  V30 40 1 35 37
M  V30 END BOND
M  V30 END CTAB
M  END
>  <Molecule Name>
Compound 466

>  <Molecule Name 2>
Compound 466

>  <Compound ID>
133

>  <Name>
Osimertinib

>  <Uniprot>
P00533

>  <Target>
EGFR

>  <Smiles>
C=CC(=O)NC1=CC(NC2=NC=CC(C3=CN(C)C4=CC=CC=C34)=N2)=C(OC)C=C1N(C)CCN(C)C

>  <Kd (nM)>


>  <Assay (Kd)>


>  <Ki (nM)>
14

>  <Assay (Ki)>
Ki of EGFR WT

>  <IC50 (nM)>
1.6

>  <Assay (IC50)>
IC50 of EGFR WT was tested by the HTRF assay

>  <EC50 (nM)>


>  <Assay (EC50)>


>  <Article DOI>
10.1021/acs.jmedchem.6b01626

>  <Molecular Weight>
499.619

>  <Exact Mass>
499.2695733

>  <XLogP3>
3.72

>  <Heavy Atom Count>
37

>  <Ring Count>
4

>  <Hydrogen Bond Acceptor Count>
8

>  <Hydrogen Bond Donor Count>
2

>  <Rotatable Bond Count>
10

>  <Topological Polar Surface Area>
87.55

>  <Molecular Formula>
C28H33N7O2

>  <InChI>
InChI=1S/C28H33N7O2/c1-7-27(36)30-22-16-23(26(37-6)17-25(22)34(4)15-14-33(2)3)32-28-29-13-12-21(31-28)20-18-35(5)24-11-9-8-10-19(20)24/h7-13,16-18H,1,14-15H2,2-6H3,(H,30,36)(H,29,31,32)

>  <InChI Key>
DUYJMQONPNNFPI-UHFFFAOYSA-N

>  <BindingDB>
50029668

>  <PubChem>
71496458

>  <ChEMBL>
CHEMBL3353410

$$$$
134
Actelion Java MolfileCreator 2.0

  0  0  0  0  0  0              0 V3000
M  V30 BEGIN CTAB
M  V30 COUNTS 36 41 0 0 0
M  V30 BEGIN ATOM
M  V30 1 O 9.8474 1.2861 0.0 0
M  V30 2 N 9.7428 2.2807 0.0 0
M  V30 3 C 8.9338 0.8794 0.0 0
M  V30 4 C 8.7647 2.4886 0.0 0
M  V30 5 C 8.2647 1.6226 0.0 0
M  V30 6 C 8.7259 -0.0986 0.0 0
M  V30 7 C 8.358 3.4021 0.0 0
M  V30 8 C 7.2702 1.518 0.0 0
M  V30 9 C 6.6824 2.327 0.0 0
M  V30 10 C 6.8634 0.6045 0.0 0
M  V30 11 O 7.0891 3.2406 0.0 0
M  V30 12 C 5.6879 2.2225 0.0 0
M  V30 13 C 5.8689 0.5 0.0 0
M  V30 14 C 6.5013 4.0496 0.0 0
M  V30 15 C 5.2811 1.309 0.0 0
M  V30 16 N 5.2811 -0.309 0.0 0
M  V30 17 C 4.3301 1.0 0.0 0
M  V30 18 C 4.3301 0.0 0.0 0
M  V30 19 C 3.4641 1.4999 0.0 0
M  V30 20 N 3.4641 -0.5 0.0 0
M  V30 21 N 2.598 0.9999 0.0 0
M  V30 22 N 3.4641 2.5 0.0 0
M  V30 23 C 2.598 0.0 0.0 0
M  V30 24 C 2.598 3.0 0.0 0
M  V30 25 C 1.732 -0.5 0.0 0
M  V30 26 N 2.4935 3.9945 0.0 0
M  V30 27 C 1.6845 2.5932 0.0 0
M  V30 28 O 0.866 0.0 0.0 0
M  V30 29 N 1.5154 4.2024 0.0 0
M  V30 30 C 3.2366 4.6636 0.0 0
M  V30 31 C 1.0154 3.3364 0.0 0
M  V30 32 C 0.0 -0.5 0.0 0
M  V30 33 C 3.0287 5.6418 0.0 0
M  V30 34 C 0.0208 3.2318 0.0 0
M  V30 35 C -0.8926 3.6386 0.0 0
M  V30 36 C -0.7881 2.644 0.0 0
M  V30 END ATOM
M  V30 BEGIN BOND
M  V30 1 1 1 2
M  V30 2 1 1 3
M  V30 3 2 2 4
M  V30 4 2 3 5
M  V30 5 1 3 6
M  V30 6 1 4 7
M  V30 7 1 5 8
M  V30 8 2 8 9
M  V30 9 1 8 10
M  V30 10 1 9 11
M  V30 11 1 9 12
M  V30 12 2 10 13
M  V30 13 1 11 14
M  V30 14 2 12 15
M  V30 15 1 13 16
M  V30 16 1 15 17
M  V30 17 1 16 18
M  V30 18 1 17 19
M  V30 19 1 18 20
M  V30 20 2 19 21
M  V30 21 1 19 22
M  V30 22 2 20 23
M  V30 23 1 22 24
M  V30 24 1 23 25
M  V30 25 1 24 26
M  V30 26 2 24 27
M  V30 27 1 25 28
M  V30 28 1 26 29
M  V30 29 1 26 30
M  V30 30 1 27 31
M  V30 31 1 28 32
M  V30 32 1 30 33
M  V30 33 1 31 34
M  V30 34 1 34 35
M  V30 35 1 34 36
M  V30 36 1 4 5
M  V30 37 1 13 15
M  V30 38 2 17 18
M  V30 39 1 21 23
M  V30 40 2 29 31
M  V30 41 1 35 36
M  V30 END BOND
M  V30 END CTAB
M  END
>  <Molecule Name>
Compound 467

>  <Molecule Name 2>
Compound 467

>  <Compound ID>
134

>  <Name>
BETi-211

>  <Uniprot>
P25440

>  <Target>
BRD2

>  <Smiles>
CCN1N=C(C2CC2)C=C1NC1=NC(COC)=NC2=C1C1=CC(OC)=C(C3=C(C)ON=C3C)C=C1[NH]2

>  <Kd (nM)>


>  <Assay (Kd)>


>  <Ki (nM)>
<1/<1

>  <Assay (Ki)>
Ki of BRD2 BD1/BD2 was tested by FP

>  <IC50 (nM)>


>  <Assay (IC50)>


>  <EC50 (nM)>


>  <Assay (EC50)>


>  <Article DOI>
10.1158/0008-5472.CAN-16-2622

>  <Molecular Weight>
487.564

>  <Exact Mass>
487.2331878

>  <XLogP3>
3.93

>  <Heavy Atom Count>
36

>  <Ring Count>
6

>  <Hydrogen Bond Acceptor Count>
9

>  <Hydrogen Bond Donor Count>
2

>  <Rotatable Bond Count>
8

>  <Topological Polar Surface Area>
115.91

>  <Molecular Formula>
C26H29N7O3

>  <InChI>
InChI=1S/C26H29N7O3/c1-6-33-22(11-18(31-33)15-7-8-15)30-26-24-16-10-20(35-5)17(23-13(2)32-36-14(23)3)9-19(16)27-25(24)28-21(29-26)12-34-4/h9-11,15H,6-8,12H2,1-5H3,(H2,27,28,29,30)

>  <InChI Key>
IOUPQJFKVLVXRQ-UHFFFAOYSA-N

>  <BindingDB>


>  <PubChem>
122508095

>  <ChEMBL>


$$$$
134
Actelion Java MolfileCreator 2.0

  0  0  0  0  0  0              0 V3000
M  V30 BEGIN CTAB
M  V30 COUNTS 36 41 0 0 0
M  V30 BEGIN ATOM
M  V30 1 O 9.8474 1.2861 0.0 0
M  V30 2 N 9.7428 2.2807 0.0 0
M  V30 3 C 8.9338 0.8794 0.0 0
M  V30 4 C 8.7647 2.4886 0.0 0
M  V30 5 C 8.2647 1.6226 0.0 0
M  V30 6 C 8.7259 -0.0986 0.0 0
M  V30 7 C 8.358 3.4021 0.0 0
M  V30 8 C 7.2702 1.518 0.0 0
M  V30 9 C 6.6824 2.327 0.0 0
M  V30 10 C 6.8634 0.6045 0.0 0
M  V30 11 O 7.0891 3.2406 0.0 0
M  V30 12 C 5.6879 2.2225 0.0 0
M  V30 13 C 5.8689 0.5 0.0 0
M  V30 14 C 6.5013 4.0496 0.0 0
M  V30 15 C 5.2811 1.309 0.0 0
M  V30 16 N 5.2811 -0.309 0.0 0
M  V30 17 C 4.3301 1.0 0.0 0
M  V30 18 C 4.3301 0.0 0.0 0
M  V30 19 C 3.4641 1.4999 0.0 0
M  V30 20 N 3.4641 -0.5 0.0 0
M  V30 21 N 2.598 0.9999 0.0 0
M  V30 22 N 3.4641 2.5 0.0 0
M  V30 23 C 2.598 0.0 0.0 0
M  V30 24 C 2.598 3.0 0.0 0
M  V30 25 C 1.732 -0.5 0.0 0
M  V30 26 N 2.4935 3.9945 0.0 0
M  V30 27 C 1.6845 2.5932 0.0 0
M  V30 28 O 0.866 0.0 0.0 0
M  V30 29 N 1.5154 4.2024 0.0 0
M  V30 30 C 3.2366 4.6636 0.0 0
M  V30 31 C 1.0154 3.3364 0.0 0
M  V30 32 C 0.0 -0.5 0.0 0
M  V30 33 C 3.0287 5.6418 0.0 0
M  V30 34 C 0.0208 3.2318 0.0 0
M  V30 35 C -0.8926 3.6386 0.0 0
M  V30 36 C -0.7881 2.644 0.0 0
M  V30 END ATOM
M  V30 BEGIN BOND
M  V30 1 1 1 2
M  V30 2 1 1 3
M  V30 3 2 2 4
M  V30 4 2 3 5
M  V30 5 1 3 6
M  V30 6 1 4 7
M  V30 7 1 5 8
M  V30 8 2 8 9
M  V30 9 1 8 10
M  V30 10 1 9 11
M  V30 11 1 9 12
M  V30 12 2 10 13
M  V30 13 1 11 14
M  V30 14 2 12 15
M  V30 15 1 13 16
M  V30 16 1 15 17
M  V30 17 1 16 18
M  V30 18 1 17 19
M  V30 19 1 18 20
M  V30 20 2 19 21
M  V30 21 1 19 22
M  V30 22 2 20 23
M  V30 23 1 22 24
M  V30 24 1 23 25
M  V30 25 1 24 26
M  V30 26 2 24 27
M  V30 27 1 25 28
M  V30 28 1 26 29
M  V30 29 1 26 30
M  V30 30 1 27 31
M  V30 31 1 28 32
M  V30 32 1 30 33
M  V30 33 1 31 34
M  V30 34 1 34 35
M  V30 35 1 34 36
M  V30 36 1 4 5
M  V30 37 1 13 15
M  V30 38 2 17 18
M  V30 39 1 21 23
M  V30 40 2 29 31
M  V30 41 1 35 36
M  V30 END BOND
M  V30 END CTAB
M  END
>  <Molecule Name>
Compound 468

>  <Molecule Name 2>
Compound 468

>  <Compound ID>
134

>  <Name>
BETi-211

>  <Uniprot>
Q15059

>  <Target>
BRD3

>  <Smiles>
CCN1N=C(C2CC2)C=C1NC1=NC(COC)=NC2=C1C1=CC(OC)=C(C3=C(C)ON=C3C)C=C1[NH]2

>  <Kd (nM)>


>  <Assay (Kd)>


>  <Ki (nM)>
<1/<1

>  <Assay (Ki)>
Ki of BRD3 BD1/BD2 was tested by FP

>  <IC50 (nM)>


>  <Assay (IC50)>


>  <EC50 (nM)>


>  <Assay (EC50)>


>  <Article DOI>
10.1158/0008-5472.CAN-16-2622

>  <Molecular Weight>
487.564

>  <Exact Mass>
487.2331878

>  <XLogP3>
3.93

>  <Heavy Atom Count>
36

>  <Ring Count>
6

>  <Hydrogen Bond Acceptor Count>
9

>  <Hydrogen Bond Donor Count>
2

>  <Rotatable Bond Count>
8

>  <Topological Polar Surface Area>
115.91

>  <Molecular Formula>
C26H29N7O3

>  <InChI>
InChI=1S/C26H29N7O3/c1-6-33-22(11-18(31-33)15-7-8-15)30-26-24-16-10-20(35-5)17(23-13(2)32-36-14(23)3)9-19(16)27-25(24)28-21(29-26)12-34-4/h9-11,15H,6-8,12H2,1-5H3,(H2,27,28,29,30)

>  <InChI Key>
IOUPQJFKVLVXRQ-UHFFFAOYSA-N

>  <BindingDB>


>  <PubChem>
122508095

>  <ChEMBL>


$$$$
134
Actelion Java MolfileCreator 2.0

  0  0  0  0  0  0              0 V3000
M  V30 BEGIN CTAB
M  V30 COUNTS 36 41 0 0 0
M  V30 BEGIN ATOM
M  V30 1 O 9.8474 1.2861 0.0 0
M  V30 2 N 9.7428 2.2807 0.0 0
M  V30 3 C 8.9338 0.8794 0.0 0
M  V30 4 C 8.7647 2.4886 0.0 0
M  V30 5 C 8.2647 1.6226 0.0 0
M  V30 6 C 8.7259 -0.0986 0.0 0
M  V30 7 C 8.358 3.4021 0.0 0
M  V30 8 C 7.2702 1.518 0.0 0
M  V30 9 C 6.6824 2.327 0.0 0
M  V30 10 C 6.8634 0.6045 0.0 0
M  V30 11 O 7.0891 3.2406 0.0 0
M  V30 12 C 5.6879 2.2225 0.0 0
M  V30 13 C 5.8689 0.5 0.0 0
M  V30 14 C 6.5013 4.0496 0.0 0
M  V30 15 C 5.2811 1.309 0.0 0
M  V30 16 N 5.2811 -0.309 0.0 0
M  V30 17 C 4.3301 1.0 0.0 0
M  V30 18 C 4.3301 0.0 0.0 0
M  V30 19 C 3.4641 1.4999 0.0 0
M  V30 20 N 3.4641 -0.5 0.0 0
M  V30 21 N 2.598 0.9999 0.0 0
M  V30 22 N 3.4641 2.5 0.0 0
M  V30 23 C 2.598 0.0 0.0 0
M  V30 24 C 2.598 3.0 0.0 0
M  V30 25 C 1.732 -0.5 0.0 0
M  V30 26 N 2.4935 3.9945 0.0 0
M  V30 27 C 1.6845 2.5932 0.0 0
M  V30 28 O 0.866 0.0 0.0 0
M  V30 29 N 1.5154 4.2024 0.0 0
M  V30 30 C 3.2366 4.6636 0.0 0
M  V30 31 C 1.0154 3.3364 0.0 0
M  V30 32 C 0.0 -0.5 0.0 0
M  V30 33 C 3.0287 5.6418 0.0 0
M  V30 34 C 0.0208 3.2318 0.0 0
M  V30 35 C -0.8926 3.6386 0.0 0
M  V30 36 C -0.7881 2.644 0.0 0
M  V30 END ATOM
M  V30 BEGIN BOND
M  V30 1 1 1 2
M  V30 2 1 1 3
M  V30 3 2 2 4
M  V30 4 2 3 5
M  V30 5 1 3 6
M  V30 6 1 4 7
M  V30 7 1 5 8
M  V30 8 2 8 9
M  V30 9 1 8 10
M  V30 10 1 9 11
M  V30 11 1 9 12
M  V30 12 2 10 13
M  V30 13 1 11 14
M  V30 14 2 12 15
M  V30 15 1 13 16
M  V30 16 1 15 17
M  V30 17 1 16 18
M  V30 18 1 17 19
M  V30 19 1 18 20
M  V30 20 2 19 21
M  V30 21 1 19 22
M  V30 22 2 20 23
M  V30 23 1 22 24
M  V30 24 1 23 25
M  V30 25 1 24 26
M  V30 26 2 24 27
M  V30 27 1 25 28
M  V30 28 1 26 29
M  V30 29 1 26 30
M  V30 30 1 27 31
M  V30 31 1 28 32
M  V30 32 1 30 33
M  V30 33 1 31 34
M  V30 34 1 34 35
M  V30 35 1 34 36
M  V30 36 1 4 5
M  V30 37 1 13 15
M  V30 38 2 17 18
M  V30 39 1 21 23
M  V30 40 2 29 31
M  V30 41 1 35 36
M  V30 END BOND
M  V30 END CTAB
M  END
>  <Molecule Name>
Compound 469

>  <Molecule Name 2>
Compound 469

>  <Compound ID>
134

>  <Name>
BETi-211

>  <Uniprot>
O60885

>  <Target>
BRD4

>  <Smiles>
CCN1N=C(C2CC2)C=C1NC1=NC(COC)=NC2=C1C1=CC(OC)=C(C3=C(C)ON=C3C)C=C1[NH]2

>  <Kd (nM)>


>  <Assay (Kd)>


>  <Ki (nM)>
<1/<1

>  <Assay (Ki)>
Ki of BRD4 BD1/BD2 was tested by FP

>  <IC50 (nM)>


>  <Assay (IC50)>


>  <EC50 (nM)>


>  <Assay (EC50)>


>  <Article DOI>
10.1158/0008-5472.CAN-16-2622

>  <Molecular Weight>
487.564

>  <Exact Mass>
487.2331878

>  <XLogP3>
3.93

>  <Heavy Atom Count>
36

>  <Ring Count>
6

>  <Hydrogen Bond Acceptor Count>
9

>  <Hydrogen Bond Donor Count>
2

>  <Rotatable Bond Count>
8

>  <Topological Polar Surface Area>
115.91

>  <Molecular Formula>
C26H29N7O3

>  <InChI>
InChI=1S/C26H29N7O3/c1-6-33-22(11-18(31-33)15-7-8-15)30-26-24-16-10-20(35-5)17(23-13(2)32-36-14(23)3)9-19(16)27-25(24)28-21(29-26)12-34-4/h9-11,15H,6-8,12H2,1-5H3,(H2,27,28,29,30)

>  <InChI Key>
IOUPQJFKVLVXRQ-UHFFFAOYSA-N

>  <BindingDB>


>  <PubChem>
122508095

>  <ChEMBL>


$$$$
135
Actelion Java MolfileCreator 2.0

  0  0  0  0  0  0              0 V3000
M  V30 BEGIN CTAB
M  V30 COUNTS 43 47 0 0 0
M  V30 BEGIN ATOM
M  V30 1 O 5.1961 8.25 0.0 0
M  V30 2 C 5.1961 6.75 0.0 0
M  V30 3 N 3.8971 6.0 0.0 0
M  V30 4 C 6.4951 6.0 0.0 0
M  V30 5 C 3.8971 4.5 0.0 0
M  V30 6 C 2.598 6.75 0.0 0
M  V30 7 N 6.4951 4.5 0.0 0
M  V30 8 N 7.7942 6.75 0.0 0
M  V30 9 C 5.1961 3.75 0.0 0
M  V30 10 C 7.7942 8.25 0.0 0
M  V30 11 C 5.1961 2.25 0.0 0
M  V30 12 C 9.0932 9.0 0.0 0
M  V30 13 C 6.4951 9.0 0.0 0
M  V30 14 C 3.8971 1.5 0.0 0
M  V30 15 C 6.4951 1.5 0.0 0
M  V30 16 C 9.0932 10.5 0.0 0
M  V30 17 C 6.4951 10.5 0.0 0
M  V30 18 C 3.8971 0.0 0.0 0
M  V30 19 C 2.598 2.25 0.0 0
M  V30 20 C 6.4951 0.0 0.0 0
M  V30 21 C 7.7942 11.25 0.0 0
M  V30 22 N 2.598 -0.75 0.0 0
M  V30 23 C 5.1961 -0.7499 0.0 0
M  V30 24 C 7.7942 12.75 0.0 0
M  V30 25 C 1.299 0.0 0.0 0
M  V30 26 O 9.0932 13.5 0.0 0
M  V30 27 N 6.4951 13.5 0.0 0
M  V30 28 O 1.299 1.5 0.0 0
M  V30 29 C 0.0 -0.75 0.0 0
M  V30 30 C 6.4951 15.0 0.0 0
M  V30 31 C 5.1961 12.75 0.0 0
M  V30 32 C -1.299 0.0 0.0 0
M  V30 33 C 0.0 -2.2499 0.0 0
M  V30 34 C 5.1961 15.75 0.0 0
M  V30 35 C 3.8971 13.5 0.0 0
M  V30 36 C -2.598 -0.7499 0.0 0
M  V30 37 C -1.299 -2.9999 0.0 0
M  V30 38 O 3.8971 15.0 0.0 0
M  V30 39 C -2.598 -2.2499 0.0 0
M  V30 40 C -3.8971 -2.9999 0.0 0
M  V30 41 C -3.1471 -4.299 0.0 0
M  V30 42 C -5.1961 -3.7499 0.0 0
M  V30 43 C -4.6471 -1.7009 0.0 0
M  V30 END ATOM
M  V30 BEGIN BOND
M  V30 1 2 1 2
M  V30 2 1 2 3
M  V30 3 1 2 4
M  V30 4 1 3 5
M  V30 5 1 3 6
M  V30 6 2 4 7
M  V30 7 1 4 8
M  V30 8 2 5 9
M  V30 9 1 8 10
M  V30 10 1 9 11
M  V30 11 2 10 12
M  V30 12 1 10 13
M  V30 13 2 11 14
M  V30 14 1 11 15
M  V30 15 1 12 16
M  V30 16 2 13 17
M  V30 17 1 14 18
M  V30 18 1 14 19
M  V30 19 2 15 20
M  V30 20 2 16 21
M  V30 21 1 18 22
M  V30 22 2 18 23
M  V30 23 1 21 24
M  V30 24 1 22 25
M  V30 25 2 24 26
M  V30 26 1 24 27
M  V30 27 2 25 28
M  V30 28 1 25 29
M  V30 29 1 27 30
M  V30 30 1 27 31
M  V30 31 2 29 32
M  V30 32 1 29 33
M  V30 33 1 30 34
M  V30 34 1 31 35
M  V30 35 1 32 36
M  V30 36 2 33 37
M  V30 37 1 34 38
M  V30 38 2 36 39
M  V30 39 1 39 40
M  V30 40 1 40 41
M  V30 41 1 40 42
M  V30 42 1 40 43
M  V30 43 1 7 9
M  V30 44 1 17 21
M  V30 45 1 20 23
M  V30 46 1 35 38
M  V30 47 1 37 39
M  V30 END BOND
M  V30 END CTAB
M  END
>  <Molecule Name>
Compound 470

>  <Molecule Name 2>
Compound 470

>  <Compound ID>
135

>  <Name>
CGI1746

>  <Uniprot>
Q06187

>  <Target>
BTK C481S

>  <Smiles>
CC1=C(NC(=O)C2=CC=C(C(C)(C)C)C=C2)C=CC=C1C1=CN(C)C(=O)C(NC2=CC=C(C(=O)N3CCOCC3)C=C2)=N1

>  <Kd (nM)>


>  <Assay (Kd)>


>  <Ki (nM)>


>  <Assay (Ki)>


>  <IC50 (nM)>


>  <Assay (IC50)>


>  <EC50 (nM)>


>  <Assay (EC50)>


>  <Article DOI>
10.1182/blood-2018-07-862953

>  <Molecular Weight>
579.701

>  <Exact Mass>
579.2845547

>  <XLogP3>
4.44

>  <Heavy Atom Count>
43

>  <Ring Count>
5

>  <Hydrogen Bond Acceptor Count>
7

>  <Hydrogen Bond Donor Count>
2

>  <Rotatable Bond Count>
6

>  <Topological Polar Surface Area>
105.56

>  <Molecular Formula>
C34H37N5O4

>  <InChI>
InChI=1S/C34H37N5O4/c1-22-27(7-6-8-28(22)37-31(40)23-9-13-25(14-10-23)34(2,3)4)29-21-38(5)33(42)30(36-29)35-26-15-11-24(12-16-26)32(41)39-17-19-43-20-18-39/h6-16,21H,17-20H2,1-5H3,(H,35,36)(H,37,40)

>  <InChI Key>
JIFCFQDXHMUPGP-UHFFFAOYSA-N

>  <BindingDB>
36516

>  <PubChem>
24857323

>  <ChEMBL>
CHEMBL1230541

$$$$
135
Actelion Java MolfileCreator 2.0

  0  0  0  0  0  0              0 V3000
M  V30 BEGIN CTAB
M  V30 COUNTS 43 47 0 0 0
M  V30 BEGIN ATOM
M  V30 1 O 5.1961 8.25 0.0 0
M  V30 2 C 5.1961 6.75 0.0 0
M  V30 3 N 3.8971 6.0 0.0 0
M  V30 4 C 6.4951 6.0 0.0 0
M  V30 5 C 3.8971 4.5 0.0 0
M  V30 6 C 2.598 6.75 0.0 0
M  V30 7 N 6.4951 4.5 0.0 0
M  V30 8 N 7.7942 6.75 0.0 0
M  V30 9 C 5.1961 3.75 0.0 0
M  V30 10 C 7.7942 8.25 0.0 0
M  V30 11 C 5.1961 2.25 0.0 0
M  V30 12 C 9.0932 9.0 0.0 0
M  V30 13 C 6.4951 9.0 0.0 0
M  V30 14 C 3.8971 1.5 0.0 0
M  V30 15 C 6.4951 1.5 0.0 0
M  V30 16 C 9.0932 10.5 0.0 0
M  V30 17 C 6.4951 10.5 0.0 0
M  V30 18 C 3.8971 0.0 0.0 0
M  V30 19 C 2.598 2.25 0.0 0
M  V30 20 C 6.4951 0.0 0.0 0
M  V30 21 C 7.7942 11.25 0.0 0
M  V30 22 N 2.598 -0.75 0.0 0
M  V30 23 C 5.1961 -0.7499 0.0 0
M  V30 24 C 7.7942 12.75 0.0 0
M  V30 25 C 1.299 0.0 0.0 0
M  V30 26 O 9.0932 13.5 0.0 0
M  V30 27 N 6.4951 13.5 0.0 0
M  V30 28 O 1.299 1.5 0.0 0
M  V30 29 C 0.0 -0.75 0.0 0
M  V30 30 C 6.4951 15.0 0.0 0
M  V30 31 C 5.1961 12.75 0.0 0
M  V30 32 C -1.299 0.0 0.0 0
M  V30 33 C 0.0 -2.2499 0.0 0
M  V30 34 C 5.1961 15.75 0.0 0
M  V30 35 C 3.8971 13.5 0.0 0
M  V30 36 C -2.598 -0.7499 0.0 0
M  V30 37 C -1.299 -2.9999 0.0 0
M  V30 38 O 3.8971 15.0 0.0 0
M  V30 39 C -2.598 -2.2499 0.0 0
M  V30 40 C -3.8971 -2.9999 0.0 0
M  V30 41 C -3.1471 -4.299 0.0 0
M  V30 42 C -5.1961 -3.7499 0.0 0
M  V30 43 C -4.6471 -1.7009 0.0 0
M  V30 END ATOM
M  V30 BEGIN BOND
M  V30 1 2 1 2
M  V30 2 1 2 3
M  V30 3 1 2 4
M  V30 4 1 3 5
M  V30 5 1 3 6
M  V30 6 2 4 7
M  V30 7 1 4 8
M  V30 8 2 5 9
M  V30 9 1 8 10
M  V30 10 1 9 11
M  V30 11 2 10 12
M  V30 12 1 10 13
M  V30 13 2 11 14
M  V30 14 1 11 15
M  V30 15 1 12 16
M  V30 16 2 13 17
M  V30 17 1 14 18
M  V30 18 1 14 19
M  V30 19 2 15 20
M  V30 20 2 16 21
M  V30 21 1 18 22
M  V30 22 2 18 23
M  V30 23 1 21 24
M  V30 24 1 22 25
M  V30 25 2 24 26
M  V30 26 1 24 27
M  V30 27 2 25 28
M  V30 28 1 25 29
M  V30 29 1 27 30
M  V30 30 1 27 31
M  V30 31 2 29 32
M  V30 32 1 29 33
M  V30 33 1 30 34
M  V30 34 1 31 35
M  V30 35 1 32 36
M  V30 36 2 33 37
M  V30 37 1 34 38
M  V30 38 2 36 39
M  V30 39 1 39 40
M  V30 40 1 40 41
M  V30 41 1 40 42
M  V30 42 1 40 43
M  V30 43 1 7 9
M  V30 44 1 17 21
M  V30 45 1 20 23
M  V30 46 1 35 38
M  V30 47 1 37 39
M  V30 END BOND
M  V30 END CTAB
M  END
>  <Molecule Name>
Compound 471

>  <Molecule Name 2>
Compound 471

>  <Compound ID>
135

>  <Name>
CGI1746

>  <Uniprot>
Q06187

>  <Target>
BTK

>  <Smiles>
CC1=C(NC(=O)C2=CC=C(C(C)(C)C)C=C2)C=CC=C1C1=CN(C)C(=O)C(NC2=CC=C(C(=O)N3CCOCC3)C=C2)=N1

>  <Kd (nM)>


>  <Assay (Kd)>


>  <Ki (nM)>


>  <Assay (Ki)>


>  <IC50 (nM)>
1.9

>  <Assay (IC50)>
IC50 of BTK was tested by the TR-FRET assay

>  <EC50 (nM)>


>  <Assay (EC50)>


>  <Article DOI>
10.1038/nchembio.481

>  <Molecular Weight>
579.701

>  <Exact Mass>
579.2845547

>  <XLogP3>
4.44

>  <Heavy Atom Count>
43

>  <Ring Count>
5

>  <Hydrogen Bond Acceptor Count>
7

>  <Hydrogen Bond Donor Count>
2

>  <Rotatable Bond Count>
6

>  <Topological Polar Surface Area>
105.56

>  <Molecular Formula>
C34H37N5O4

>  <InChI>
InChI=1S/C34H37N5O4/c1-22-27(7-6-8-28(22)37-31(40)23-9-13-25(14-10-23)34(2,3)4)29-21-38(5)33(42)30(36-29)35-26-15-11-24(12-16-26)32(41)39-17-19-43-20-18-39/h6-16,21H,17-20H2,1-5H3,(H,35,36)(H,37,40)

>  <InChI Key>
JIFCFQDXHMUPGP-UHFFFAOYSA-N

>  <BindingDB>
36516

>  <PubChem>
24857323

>  <ChEMBL>
CHEMBL1230541

$$$$
136
Actelion Java MolfileCreator 2.0

  0  0  0  0  0  0              0 V3000
M  V30 BEGIN CTAB
M  V30 COUNTS 26 29 0 0 0
M  V30 BEGIN ATOM
M  V30 1 F 0.866 0.0 0.0 0
M  V30 2 C 0.0 -0.5 0.0 0
M  V30 3 C -0.866 0.0 0.0 0
M  V30 4 C 0.0 -1.4999 0.0 0
M  V30 5 C -1.732 -0.4999 0.0 0
M  V30 6 C -0.866 1.0 0.0 0
M  V30 7 C -0.866 -1.9999 0.0 0
M  V30 8 C -1.732 -1.4999 0.0 0
M  V30 9 C -2.598 -1.9999 0.0 0
M  V30 10 C -3.4641 -1.4999 0.0 0
M  V30 11 C -2.598 -2.9999 0.0 0
M  V30 12 N -4.3301 -1.9999 0.0 0
M  V30 13 N -3.4641 -0.4999 0.0 0
M  V30 14 N -3.4641 -3.4999 0.0 0
M  V30 15 C -4.3301 -2.9999 0.0 0
M  V30 16 C -2.598 0.0 0.0 0
M  V30 17 C -4.3301 0.0 0.0 0
M  V30 18 C -2.598 1.0 0.0 0
M  V30 19 C -4.3301 1.0 0.0 0
M  V30 20 C -3.4641 1.5 0.0 0
M  V30 21 C -3.4641 2.5 0.0 0
M  V30 22 N -2.655 3.0877 0.0 0
M  V30 23 C -4.2731 3.0877 0.0 0
M  V30 24 C -2.9641 4.0388 0.0 0
M  V30 25 N -3.9641 4.0388 0.0 0
M  V30 26 C -5.2241 2.7787 0.0 0
M  V30 END ATOM
M  V30 BEGIN BOND
M  V30 1 1 1 2
M  V30 2 2 2 3
M  V30 3 1 2 4
M  V30 4 1 3 5
M  V30 5 1 3 6
M  V30 6 2 4 7
M  V30 7 2 5 8
M  V30 8 1 8 9
M  V30 9 2 9 10
M  V30 10 1 9 11
M  V30 11 1 10 12
M  V30 12 1 10 13
M  V30 13 2 11 14
M  V30 14 2 12 15
M  V30 15 1 13 16
M  V30 16 1 13 17
M  V30 17 1 16 18
M  V30 18 1 17 19
M  V30 19 1 18 20
M  V30 20 1 20 21
M  V30 21 1 21 22
M  V30 22 2 21 23
M  V30 23 1 22 24
M  V30 24 1 23 25
M  V30 25 1 23 26
M  V30 26 1 7 8
M  V30 27 1 14 15
M  V30 28 1 19 20
M  V30 29 2 24 25
M  V30 END BOND
M  V30 END CTAB
M  END
>  <Molecule Name>
Compound 472

>  <Molecule Name 2>
Compound 472

>  <Compound ID>
136

>  <Name>


>  <Uniprot>
P19634

>  <Target>
SLC9A1

>  <Smiles>
CC1=CC(C2=CN=CN=C2N2CCC(C3=C(C)N=C[NH]3)CC2)=CC=C1F

>  <Kd (nM)>


>  <Assay (Kd)>


>  <Ki (nM)>


>  <Assay (Ki)>


>  <IC50 (nM)>
21

>  <Assay (IC50)>
IC50 of SCL9A1

>  <EC50 (nM)>


>  <Assay (EC50)>


>  <Article DOI>
10.1016/j.bmcl.2006.06.077

>  <Molecular Weight>
351.429

>  <Exact Mass>
351.1859239

>  <XLogP3>
3.56

>  <Heavy Atom Count>
26

>  <Ring Count>
4

>  <Hydrogen Bond Acceptor Count>
4

>  <Hydrogen Bond Donor Count>
1

>  <Rotatable Bond Count>
3

>  <Topological Polar Surface Area>
57.7

>  <Molecular Formula>
C20H22FN5

>  <InChI>
InChI=1S/C20H22FN5/c1-13-9-16(3-4-18(13)21)17-10-22-11-25-20(17)26-7-5-15(6-8-26)19-14(2)23-12-24-19/h3-4,9-12,15H,5-8H2,1-2H3,(H,23,24)

>  <InChI Key>
NCYXZCBTHWJATE-UHFFFAOYSA-N

>  <BindingDB>
50191833

>  <PubChem>
20779104

>  <ChEMBL>
CHEMBL376979

$$$$
137
Actelion Java MolfileCreator 2.0

  0  0  0  0  0  0              0 V3000
M  V30 BEGIN CTAB
M  V30 COUNTS 45 51 0 0 0
M  V30 BEGIN ATOM
M  V30 1 F 0.0 2.4999 0.0 0
M  V30 2 C 0.866 2.9999 0.0 0
M  V30 3 C 1.732 2.5 0.0 0
M  V30 4 C 0.866 3.9999 0.0 0
M  V30 5 C 1.732 1.5 0.0 0
M  V30 6 C 2.598 3.0 0.0 0
M  V30 7 C 1.732 4.5 0.0 0
M  V30 8 O 0.866 0.9999 0.0 0
M  V30 9 N 2.598 1.0 0.0 0
M  V30 10 C 2.598 4.0 0.0 0
M  V30 11 C 3.4641 2.5 0.0 0
M  V30 12 C 1.732 5.4999 0.0 0
M  V30 13 C 2.598 0.0 0.0 0
M  V30 14 C 3.4641 1.5 0.0 0
M  V30 15 C 2.232 6.366 0.0 0
M  V30 16 C 1.232 6.366 0.0 0
M  V30 17 C 1.732 -0.5 0.0 0
M  V30 18 C 3.4641 -0.4999 0.0 0
M  V30 19 C 1.732 -1.5 0.0 0
M  V30 20 C 0.866 0.0 0.0 0
M  V30 21 C 3.4641 -1.4999 0.0 0
M  V30 22 C 0.866 -2.0 0.0 0
M  V30 23 C 2.598 -1.9999 0.0 0
M  V30 24 O 0.0 -0.5 0.0 0
M  V30 25 C 0.0 -1.5 0.0 0
M  V30 26 C 0.866 -3.0 0.0 0
M  V30 27 N -0.866 -2.0 0.0 0
M  V30 28 C 0.0 -3.5 0.0 0
M  V30 29 C -0.866 -3.0 0.0 0
M  V30 30 C -1.732 -1.5 0.0 0
M  V30 31 N 0.0 -4.5 0.0 0
M  V30 32 O -1.732 -3.5 0.0 0
M  V30 33 C 0.866 -5.0 0.0 0
M  V30 34 N 0.866 -6.0 0.0 0
M  V30 35 C 1.732 -4.5 0.0 0
M  V30 36 C 1.732 -6.5 0.0 0
M  V30 37 C 2.598 -5.0 0.0 0
M  V30 38 C 2.598 -5.9999 0.0 0
M  V30 39 N 3.4641 -6.4999 0.0 0
M  V30 40 C 3.4641 -7.4999 0.0 0
M  V30 41 C 4.3301 -5.9999 0.0 0
M  V30 42 C 4.3301 -7.9999 0.0 0
M  V30 43 C 5.1961 -6.4999 0.0 0
M  V30 44 N 5.1961 -7.4999 0.0 0
M  V30 45 C 6.0621 -7.9999 0.0 0
M  V30 END ATOM
M  V30 BEGIN BOND
M  V30 1 1 1 2
M  V30 2 2 2 3
M  V30 3 1 2 4
M  V30 4 1 3 5
M  V30 5 1 3 6
M  V30 6 2 4 7
M  V30 7 2 5 8
M  V30 8 1 5 9
M  V30 9 2 6 10
M  V30 10 1 6 11
M  V30 11 1 7 12
M  V30 12 1 9 13
M  V30 13 1 9 14
M  V30 14 1 12 15
M  V30 15 1 12 16
M  V30 16 2 13 17
M  V30 17 1 13 18
M  V30 18 1 17 19
M  V30 19 1 17 20
M  V30 20 2 18 21
M  V30 21 1 19 22
M  V30 22 2 19 23
M  V30 23 1 20 24
M  V30 24 2 22 25
M  V30 25 1 22 26
M  V30 26 1 25 27
M  V30 27 2 26 28
M  V30 28 1 27 29
M  V30 29 1 27 30
M  V30 30 1 28 31
M  V30 31 2 29 32
M  V30 32 1 31 33
M  V30 33 2 33 34
M  V30 34 1 33 35
M  V30 35 1 34 36
M  V30 36 2 35 37
M  V30 37 2 36 38
M  V30 38 1 38 39
M  V30 39 1 39 40
M  V30 40 1 39 41
M  V30 41 1 40 42
M  V30 42 1 41 43
M  V30 43 1 42 44
M  V30 44 1 44 45
M  V30 45 1 7 10
M  V30 46 2 11 14
M  V30 47 1 15 16
M  V30 48 1 21 23
M  V30 49 1 28 29
M  V30 50 1 37 38
M  V30 51 1 43 44
M  V30 END BOND
M  V30 END CTAB
M  END
>  <Molecule Name>
Compound 473

>  <Molecule Name 2>
Compound 473

>  <Compound ID>
137

>  <Name>
RN486

>  <Uniprot>
Q06187

>  <Target>
BTK

>  <Smiles>
CN1CCN(C2=CC=C(NC3=CC(C4=CC=CC(N5C=CC6=CC(C7CC7)=CC(F)=C6C5=O)=C4CO)=CN(C)C3=O)N=C2)CC1

>  <Kd (nM)>


>  <Assay (Kd)>


>  <Ki (nM)>


>  <Assay (Ki)>


>  <IC50 (nM)>
0.3

>  <Assay (IC50)>
IC50 of BTK was tested by the TR-FRET assay

>  <EC50 (nM)>


>  <Assay (EC50)>


>  <Article DOI>
10.1021/jm300035p

>  <Molecular Weight>
606.702

>  <Exact Mass>
606.2754672

>  <XLogP3>
3.79

>  <Heavy Atom Count>
45

>  <Ring Count>
7

>  <Hydrogen Bond Acceptor Count>
9

>  <Hydrogen Bond Donor Count>
2

>  <Rotatable Bond Count>
7

>  <Topological Polar Surface Area>
95.63

>  <Molecular Formula>
C35H35FN6O3

>  <InChI>
InChI=1S/C35H35FN6O3/c1-39-12-14-41(15-13-39)26-8-9-32(37-19-26)38-30-18-25(20-40(2)34(30)44)27-4-3-5-31(28(27)21-43)42-11-10-23-16-24(22-6-7-22)17-29(36)33(23)35(42)45/h3-5,8-11,16-20,22,43H,6-7,12-15,21H2,1-2H3,(H,37,38)

>  <InChI Key>
ZTUJNJAKTLHBEX-UHFFFAOYSA-N

>  <BindingDB>
50388189

>  <PubChem>
46908026

>  <ChEMBL>
CHEMBL2057918

$$$$
138
Actelion Java MolfileCreator 2.0

  0  0  0  0  0  0              0 V3000
M  V30 BEGIN CTAB
M  V30 COUNTS 37 41 0 0 0
M  V30 BEGIN ATOM
M  V30 1 O 1.9594 1.6636 0.0 0
M  V30 2 C 2.7026 0.9945 0.0 0
M  V30 3 N 2.598 0.0 0.0 0
M  V30 4 C 3.6807 1.2024 0.0 0
M  V30 5 N 3.5116 -0.4067 0.0 0
M  V30 6 C 1.732 -0.5 0.0 0
M  V30 7 C 4.1807 0.3364 0.0 0
M  V30 8 C 4.1807 2.0684 0.0 0
M  V30 9 C 3.7195 -1.3848 0.0 0
M  V30 10 C 0.866 0.0 0.0 0
M  V30 11 N 5.1807 0.3364 0.0 0
M  V30 12 N 5.1807 2.0684 0.0 0
M  V30 13 N 2.9763 -2.054 0.0 0
M  V30 14 C 4.6705 -1.6939 0.0 0
M  V30 15 C 0.0 -0.5 0.0 0
M  V30 16 C 5.6807 1.2024 0.0 0
M  V30 17 C 3.1843 -3.0321 0.0 0
M  V30 18 C 4.8785 -2.672 0.0 0
M  V30 19 N 6.6807 1.2024 0.0 0
M  V30 20 C 4.1353 -3.3411 0.0 0
M  V30 21 C 2.4411 -3.7012 0.0 0
M  V30 22 C 7.1807 2.0684 0.0 0
M  V30 23 O 3.1102 -4.4444 0.0 0
M  V30 24 C 1.698 -4.3704 0.0 0
M  V30 25 C 1.772 -2.9581 0.0 0
M  V30 26 C 8.1807 2.0684 0.0 0
M  V30 27 C 6.6807 2.9344 0.0 0
M  V30 28 C 8.6807 2.9344 0.0 0
M  V30 29 C 7.1807 3.8005 0.0 0
M  V30 30 C 8.1807 3.8005 0.0 0
M  V30 31 N 8.6807 4.6665 0.0 0
M  V30 32 C 9.6807 4.6665 0.0 0
M  V30 33 C 8.1807 5.5325 0.0 0
M  V30 34 C 10.1807 5.5325 0.0 0
M  V30 35 C 8.6807 6.3985 0.0 0
M  V30 36 N 9.6807 6.3985 0.0 0
M  V30 37 C 10.1807 7.2646 0.0 0
M  V30 END ATOM
M  V30 BEGIN BOND
M  V30 1 2 1 2
M  V30 2 1 2 3
M  V30 3 1 2 4
M  V30 4 1 3 5
M  V30 5 1 3 6
M  V30 6 2 4 7
M  V30 7 1 4 8
M  V30 8 1 5 9
M  V30 9 1 6 10
M  V30 10 1 7 11
M  V30 11 2 8 12
M  V30 12 2 9 13
M  V30 13 1 9 14
M  V30 14 2 10 15
M  V30 15 2 11 16
M  V30 16 1 13 17
M  V30 17 2 14 18
M  V30 18 1 16 19
M  V30 19 2 17 20
M  V30 20 1 17 21
M  V30 21 1 19 22
M  V30 22 1 21 23
M  V30 23 1 21 24
M  V30 24 1 21 25
M  V30 25 2 22 26
M  V30 26 1 22 27
M  V30 27 1 26 28
M  V30 28 2 27 29
M  V30 29 2 28 30
M  V30 30 1 30 31
M  V30 31 1 31 32
M  V30 32 1 31 33
M  V30 33 1 32 34
M  V30 34 1 33 35
M  V30 35 1 34 36
M  V30 36 1 36 37
M  V30 37 1 5 7
M  V30 38 1 12 16
M  V30 39 1 18 20
M  V30 40 1 29 30
M  V30 41 1 35 36
M  V30 END BOND
M  V30 END CTAB
M  END
>  <Molecule Name>
Compound 474

>  <Molecule Name 2>
Compound 474

>  <Compound ID>
138

>  <Name>
AZD1775

>  <Uniprot>
Q8NI60

>  <Target>
COQ8A

>  <Smiles>
C=CCN1C(=O)C2=CN=C(NC3=CC=C(N4CCN(C)CC4)C=C3)N=C2N1C1=CC=CC(C(C)(C)O)=N1

>  <Kd (nM)>
>30000

>  <Assay (Kd)>
Kd apparent of COQ8A

>  <Ki (nM)>


>  <Assay (Ki)>


>  <IC50 (nM)>


>  <Assay (IC50)>


>  <EC50 (nM)>


>  <Assay (EC50)>


>  <Article DOI>
10.1126/science.aan4368

>  <Molecular Weight>
500.607

>  <Exact Mass>
500.2648223

>  <XLogP3>
3.1

>  <Heavy Atom Count>
37

>  <Ring Count>
5

>  <Hydrogen Bond Acceptor Count>
10

>  <Hydrogen Bond Donor Count>
2

>  <Rotatable Bond Count>
7

>  <Topological Polar Surface Area>
104.34

>  <Molecular Formula>
C27H32N8O2

>  <InChI>
InChI=1S/C27H32N8O2/c1-5-13-34-25(36)21-18-28-26(29-19-9-11-20(12-10-19)33-16-14-32(4)15-17-33)31-24(21)35(34)23-8-6-7-22(30-23)27(2,3)37/h5-12,18,37H,1,13-17H2,2-4H3,(H,28,29,31)

>  <InChI Key>
BKWJAKQVGHWELA-UHFFFAOYSA-N

>  <BindingDB>
50240826

>  <PubChem>
24856436

>  <ChEMBL>
CHEMBL1976040

$$$$
138
Actelion Java MolfileCreator 2.0

  0  0  0  0  0  0              0 V3000
M  V30 BEGIN CTAB
M  V30 COUNTS 37 41 0 0 0
M  V30 BEGIN ATOM
M  V30 1 O 1.9594 1.6636 0.0 0
M  V30 2 C 2.7026 0.9945 0.0 0
M  V30 3 N 2.598 0.0 0.0 0
M  V30 4 C 3.6807 1.2024 0.0 0
M  V30 5 N 3.5116 -0.4067 0.0 0
M  V30 6 C 1.732 -0.5 0.0 0
M  V30 7 C 4.1807 0.3364 0.0 0
M  V30 8 C 4.1807 2.0684 0.0 0
M  V30 9 C 3.7195 -1.3848 0.0 0
M  V30 10 C 0.866 0.0 0.0 0
M  V30 11 N 5.1807 0.3364 0.0 0
M  V30 12 N 5.1807 2.0684 0.0 0
M  V30 13 N 2.9763 -2.054 0.0 0
M  V30 14 C 4.6705 -1.6939 0.0 0
M  V30 15 C 0.0 -0.5 0.0 0
M  V30 16 C 5.6807 1.2024 0.0 0
M  V30 17 C 3.1843 -3.0321 0.0 0
M  V30 18 C 4.8785 -2.672 0.0 0
M  V30 19 N 6.6807 1.2024 0.0 0
M  V30 20 C 4.1353 -3.3411 0.0 0
M  V30 21 C 2.4411 -3.7012 0.0 0
M  V30 22 C 7.1807 2.0684 0.0 0
M  V30 23 O 3.1102 -4.4444 0.0 0
M  V30 24 C 1.698 -4.3704 0.0 0
M  V30 25 C 1.772 -2.9581 0.0 0
M  V30 26 C 8.1807 2.0684 0.0 0
M  V30 27 C 6.6807 2.9344 0.0 0
M  V30 28 C 8.6807 2.9344 0.0 0
M  V30 29 C 7.1807 3.8005 0.0 0
M  V30 30 C 8.1807 3.8005 0.0 0
M  V30 31 N 8.6807 4.6665 0.0 0
M  V30 32 C 9.6807 4.6665 0.0 0
M  V30 33 C 8.1807 5.5325 0.0 0
M  V30 34 C 10.1807 5.5325 0.0 0
M  V30 35 C 8.6807 6.3985 0.0 0
M  V30 36 N 9.6807 6.3985 0.0 0
M  V30 37 C 10.1807 7.2646 0.0 0
M  V30 END ATOM
M  V30 BEGIN BOND
M  V30 1 2 1 2
M  V30 2 1 2 3
M  V30 3 1 2 4
M  V30 4 1 3 5
M  V30 5 1 3 6
M  V30 6 2 4 7
M  V30 7 1 4 8
M  V30 8 1 5 9
M  V30 9 1 6 10
M  V30 10 1 7 11
M  V30 11 2 8 12
M  V30 12 2 9 13
M  V30 13 1 9 14
M  V30 14 2 10 15
M  V30 15 2 11 16
M  V30 16 1 13 17
M  V30 17 2 14 18
M  V30 18 1 16 19
M  V30 19 2 17 20
M  V30 20 1 17 21
M  V30 21 1 19 22
M  V30 22 1 21 23
M  V30 23 1 21 24
M  V30 24 1 21 25
M  V30 25 2 22 26
M  V30 26 1 22 27
M  V30 27 1 26 28
M  V30 28 2 27 29
M  V30 29 2 28 30
M  V30 30 1 30 31
M  V30 31 1 31 32
M  V30 32 1 31 33
M  V30 33 1 32 34
M  V30 34 1 33 35
M  V30 35 1 34 36
M  V30 36 1 36 37
M  V30 37 1 5 7
M  V30 38 1 12 16
M  V30 39 1 18 20
M  V30 40 1 29 30
M  V30 41 1 35 36
M  V30 END BOND
M  V30 END CTAB
M  END
>  <Molecule Name>
Compound 475

>  <Molecule Name 2>
Compound 475

>  <Compound ID>
138

>  <Name>
AZD1775

>  <Uniprot>
Q9HBH9

>  <Target>
MKNK2

>  <Smiles>
C=CCN1C(=O)C2=CN=C(NC3=CC=C(N4CCN(C)CC4)C=C3)N=C2N1C1=CC=CC(C(C)(C)O)=N1

>  <Kd (nM)>


>  <Assay (Kd)>


>  <Ki (nM)>


>  <Assay (Ki)>


>  <IC50 (nM)>


>  <Assay (IC50)>


>  <EC50 (nM)>


>  <Assay (EC50)>


>  <Article DOI>
10.1016/j.cell.2020.10.038

>  <Molecular Weight>
500.607

>  <Exact Mass>
500.2648223

>  <XLogP3>
3.1

>  <Heavy Atom Count>
37

>  <Ring Count>
5

>  <Hydrogen Bond Acceptor Count>
10

>  <Hydrogen Bond Donor Count>
2

>  <Rotatable Bond Count>
7

>  <Topological Polar Surface Area>
104.34

>  <Molecular Formula>
C27H32N8O2

>  <InChI>
InChI=1S/C27H32N8O2/c1-5-13-34-25(36)21-18-28-26(29-19-9-11-20(12-10-19)33-16-14-32(4)15-17-33)31-24(21)35(34)23-8-6-7-22(30-23)27(2,3)37/h5-12,18,37H,1,13-17H2,2-4H3,(H,28,29,31)

>  <InChI Key>
BKWJAKQVGHWELA-UHFFFAOYSA-N

>  <BindingDB>
50240826

>  <PubChem>
24856436

>  <ChEMBL>
CHEMBL1976040

$$$$
138
Actelion Java MolfileCreator 2.0

  0  0  0  0  0  0              0 V3000
M  V30 BEGIN CTAB
M  V30 COUNTS 37 41 0 0 0
M  V30 BEGIN ATOM
M  V30 1 O 1.9594 1.6636 0.0 0
M  V30 2 C 2.7026 0.9945 0.0 0
M  V30 3 N 2.598 0.0 0.0 0
M  V30 4 C 3.6807 1.2024 0.0 0
M  V30 5 N 3.5116 -0.4067 0.0 0
M  V30 6 C 1.732 -0.5 0.0 0
M  V30 7 C 4.1807 0.3364 0.0 0
M  V30 8 C 4.1807 2.0684 0.0 0
M  V30 9 C 3.7195 -1.3848 0.0 0
M  V30 10 C 0.866 0.0 0.0 0
M  V30 11 N 5.1807 0.3364 0.0 0
M  V30 12 N 5.1807 2.0684 0.0 0
M  V30 13 N 2.9763 -2.054 0.0 0
M  V30 14 C 4.6705 -1.6939 0.0 0
M  V30 15 C 0.0 -0.5 0.0 0
M  V30 16 C 5.6807 1.2024 0.0 0
M  V30 17 C 3.1843 -3.0321 0.0 0
M  V30 18 C 4.8785 -2.672 0.0 0
M  V30 19 N 6.6807 1.2024 0.0 0
M  V30 20 C 4.1353 -3.3411 0.0 0
M  V30 21 C 2.4411 -3.7012 0.0 0
M  V30 22 C 7.1807 2.0684 0.0 0
M  V30 23 O 3.1102 -4.4444 0.0 0
M  V30 24 C 1.698 -4.3704 0.0 0
M  V30 25 C 1.772 -2.9581 0.0 0
M  V30 26 C 8.1807 2.0684 0.0 0
M  V30 27 C 6.6807 2.9344 0.0 0
M  V30 28 C 8.6807 2.9344 0.0 0
M  V30 29 C 7.1807 3.8005 0.0 0
M  V30 30 C 8.1807 3.8005 0.0 0
M  V30 31 N 8.6807 4.6665 0.0 0
M  V30 32 C 9.6807 4.6665 0.0 0
M  V30 33 C 8.1807 5.5325 0.0 0
M  V30 34 C 10.1807 5.5325 0.0 0
M  V30 35 C 8.6807 6.3985 0.0 0
M  V30 36 N 9.6807 6.3985 0.0 0
M  V30 37 C 10.1807 7.2646 0.0 0
M  V30 END ATOM
M  V30 BEGIN BOND
M  V30 1 2 1 2
M  V30 2 1 2 3
M  V30 3 1 2 4
M  V30 4 1 3 5
M  V30 5 1 3 6
M  V30 6 2 4 7
M  V30 7 1 4 8
M  V30 8 1 5 9
M  V30 9 1 6 10
M  V30 10 1 7 11
M  V30 11 2 8 12
M  V30 12 2 9 13
M  V30 13 1 9 14
M  V30 14 2 10 15
M  V30 15 2 11 16
M  V30 16 1 13 17
M  V30 17 2 14 18
M  V30 18 1 16 19
M  V30 19 2 17 20
M  V30 20 1 17 21
M  V30 21 1 19 22
M  V30 22 1 21 23
M  V30 23 1 21 24
M  V30 24 1 21 25
M  V30 25 2 22 26
M  V30 26 1 22 27
M  V30 27 1 26 28
M  V30 28 2 27 29
M  V30 29 2 28 30
M  V30 30 1 30 31
M  V30 31 1 31 32
M  V30 32 1 31 33
M  V30 33 1 32 34
M  V30 34 1 33 35
M  V30 35 1 34 36
M  V30 36 1 36 37
M  V30 37 1 5 7
M  V30 38 1 12 16
M  V30 39 1 18 20
M  V30 40 1 29 30
M  V30 41 1 35 36
M  V30 END BOND
M  V30 END CTAB
M  END
>  <Molecule Name>
Compound 476

>  <Molecule Name 2>
Compound 476

>  <Compound ID>
138

>  <Name>
AZD1775

>  <Uniprot>
O96013

>  <Target>
PAK4

>  <Smiles>
C=CCN1C(=O)C2=CN=C(NC3=CC=C(N4CCN(C)CC4)C=C3)N=C2N1C1=CC=CC(C(C)(C)O)=N1

>  <Kd (nM)>


>  <Assay (Kd)>


>  <Ki (nM)>
2511.89

>  <Assay (Ki)>
Ki of PAK4

>  <IC50 (nM)>


>  <Assay (IC50)>


>  <EC50 (nM)>


>  <Assay (EC50)>


>  <Article DOI>


>  <Molecular Weight>
500.607

>  <Exact Mass>
500.2648223

>  <XLogP3>
3.1

>  <Heavy Atom Count>
37

>  <Ring Count>
5

>  <Hydrogen Bond Acceptor Count>
10

>  <Hydrogen Bond Donor Count>
2

>  <Rotatable Bond Count>
7

>  <Topological Polar Surface Area>
104.34

>  <Molecular Formula>
C27H32N8O2

>  <InChI>
InChI=1S/C27H32N8O2/c1-5-13-34-25(36)21-18-28-26(29-19-9-11-20(12-10-19)33-16-14-32(4)15-17-33)31-24(21)35(34)23-8-6-7-22(30-23)27(2,3)37/h5-12,18,37H,1,13-17H2,2-4H3,(H,28,29,31)

>  <InChI Key>
BKWJAKQVGHWELA-UHFFFAOYSA-N

>  <BindingDB>
50240826

>  <PubChem>
24856436

>  <ChEMBL>
CHEMBL1976040

$$$$
138
Actelion Java MolfileCreator 2.0

  0  0  0  0  0  0              0 V3000
M  V30 BEGIN CTAB
M  V30 COUNTS 37 41 0 0 0
M  V30 BEGIN ATOM
M  V30 1 O 1.9594 1.6636 0.0 0
M  V30 2 C 2.7026 0.9945 0.0 0
M  V30 3 N 2.598 0.0 0.0 0
M  V30 4 C 3.6807 1.2024 0.0 0
M  V30 5 N 3.5116 -0.4067 0.0 0
M  V30 6 C 1.732 -0.5 0.0 0
M  V30 7 C 4.1807 0.3364 0.0 0
M  V30 8 C 4.1807 2.0684 0.0 0
M  V30 9 C 3.7195 -1.3848 0.0 0
M  V30 10 C 0.866 0.0 0.0 0
M  V30 11 N 5.1807 0.3364 0.0 0
M  V30 12 N 5.1807 2.0684 0.0 0
M  V30 13 N 2.9763 -2.054 0.0 0
M  V30 14 C 4.6705 -1.6939 0.0 0
M  V30 15 C 0.0 -0.5 0.0 0
M  V30 16 C 5.6807 1.2024 0.0 0
M  V30 17 C 3.1843 -3.0321 0.0 0
M  V30 18 C 4.8785 -2.672 0.0 0
M  V30 19 N 6.6807 1.2024 0.0 0
M  V30 20 C 4.1353 -3.3411 0.0 0
M  V30 21 C 2.4411 -3.7012 0.0 0
M  V30 22 C 7.1807 2.0684 0.0 0
M  V30 23 O 3.1102 -4.4444 0.0 0
M  V30 24 C 1.698 -4.3704 0.0 0
M  V30 25 C 1.772 -2.9581 0.0 0
M  V30 26 C 8.1807 2.0684 0.0 0
M  V30 27 C 6.6807 2.9344 0.0 0
M  V30 28 C 8.6807 2.9344 0.0 0
M  V30 29 C 7.1807 3.8005 0.0 0
M  V30 30 C 8.1807 3.8005 0.0 0
M  V30 31 N 8.6807 4.6665 0.0 0
M  V30 32 C 9.6807 4.6665 0.0 0
M  V30 33 C 8.1807 5.5325 0.0 0
M  V30 34 C 10.1807 5.5325 0.0 0
M  V30 35 C 8.6807 6.3985 0.0 0
M  V30 36 N 9.6807 6.3985 0.0 0
M  V30 37 C 10.1807 7.2646 0.0 0
M  V30 END ATOM
M  V30 BEGIN BOND
M  V30 1 2 1 2
M  V30 2 1 2 3
M  V30 3 1 2 4
M  V30 4 1 3 5
M  V30 5 1 3 6
M  V30 6 2 4 7
M  V30 7 1 4 8
M  V30 8 1 5 9
M  V30 9 1 6 10
M  V30 10 1 7 11
M  V30 11 2 8 12
M  V30 12 2 9 13
M  V30 13 1 9 14
M  V30 14 2 10 15
M  V30 15 2 11 16
M  V30 16 1 13 17
M  V30 17 2 14 18
M  V30 18 1 16 19
M  V30 19 2 17 20
M  V30 20 1 17 21
M  V30 21 1 19 22
M  V30 22 1 21 23
M  V30 23 1 21 24
M  V30 24 1 21 25
M  V30 25 2 22 26
M  V30 26 1 22 27
M  V30 27 1 26 28
M  V30 28 2 27 29
M  V30 29 2 28 30
M  V30 30 1 30 31
M  V30 31 1 31 32
M  V30 32 1 31 33
M  V30 33 1 32 34
M  V30 34 1 33 35
M  V30 35 1 34 36
M  V30 36 1 36 37
M  V30 37 1 5 7
M  V30 38 1 12 16
M  V30 39 1 18 20
M  V30 40 1 29 30
M  V30 41 1 35 36
M  V30 END BOND
M  V30 END CTAB
M  END
>  <Molecule Name>
Compound 477

>  <Molecule Name 2>
Compound 477

>  <Compound ID>
138

>  <Name>
AZD1775

>  <Uniprot>
Q15118

>  <Target>
PDK1

>  <Smiles>
C=CCN1C(=O)C2=CN=C(NC3=CC=C(N4CCN(C)CC4)C=C3)N=C2N1C1=CC=CC(C(C)(C)O)=N1

>  <Kd (nM)>


>  <Assay (Kd)>


>  <Ki (nM)>


>  <Assay (Ki)>


>  <IC50 (nM)>


>  <Assay (IC50)>


>  <EC50 (nM)>


>  <Assay (EC50)>


>  <Article DOI>
10.1016/j.cell.2020.10.038

>  <Molecular Weight>
500.607

>  <Exact Mass>
500.2648223

>  <XLogP3>
3.1

>  <Heavy Atom Count>
37

>  <Ring Count>
5

>  <Hydrogen Bond Acceptor Count>
10

>  <Hydrogen Bond Donor Count>
2

>  <Rotatable Bond Count>
7

>  <Topological Polar Surface Area>
104.34

>  <Molecular Formula>
C27H32N8O2

>  <InChI>
InChI=1S/C27H32N8O2/c1-5-13-34-25(36)21-18-28-26(29-19-9-11-20(12-10-19)33-16-14-32(4)15-17-33)31-24(21)35(34)23-8-6-7-22(30-23)27(2,3)37/h5-12,18,37H,1,13-17H2,2-4H3,(H,28,29,31)

>  <InChI Key>
BKWJAKQVGHWELA-UHFFFAOYSA-N

>  <BindingDB>
50240826

>  <PubChem>
24856436

>  <ChEMBL>
CHEMBL1976040

$$$$
138
Actelion Java MolfileCreator 2.0

  0  0  0  0  0  0              0 V3000
M  V30 BEGIN CTAB
M  V30 COUNTS 37 41 0 0 0
M  V30 BEGIN ATOM
M  V30 1 O 1.9594 1.6636 0.0 0
M  V30 2 C 2.7026 0.9945 0.0 0
M  V30 3 N 2.598 0.0 0.0 0
M  V30 4 C 3.6807 1.2024 0.0 0
M  V30 5 N 3.5116 -0.4067 0.0 0
M  V30 6 C 1.732 -0.5 0.0 0
M  V30 7 C 4.1807 0.3364 0.0 0
M  V30 8 C 4.1807 2.0684 0.0 0
M  V30 9 C 3.7195 -1.3848 0.0 0
M  V30 10 C 0.866 0.0 0.0 0
M  V30 11 N 5.1807 0.3364 0.0 0
M  V30 12 N 5.1807 2.0684 0.0 0
M  V30 13 N 2.9763 -2.054 0.0 0
M  V30 14 C 4.6705 -1.6939 0.0 0
M  V30 15 C 0.0 -0.5 0.0 0
M  V30 16 C 5.6807 1.2024 0.0 0
M  V30 17 C 3.1843 -3.0321 0.0 0
M  V30 18 C 4.8785 -2.672 0.0 0
M  V30 19 N 6.6807 1.2024 0.0 0
M  V30 20 C 4.1353 -3.3411 0.0 0
M  V30 21 C 2.4411 -3.7012 0.0 0
M  V30 22 C 7.1807 2.0684 0.0 0
M  V30 23 O 3.1102 -4.4444 0.0 0
M  V30 24 C 1.698 -4.3704 0.0 0
M  V30 25 C 1.772 -2.9581 0.0 0
M  V30 26 C 8.1807 2.0684 0.0 0
M  V30 27 C 6.6807 2.9344 0.0 0
M  V30 28 C 8.6807 2.9344 0.0 0
M  V30 29 C 7.1807 3.8005 0.0 0
M  V30 30 C 8.1807 3.8005 0.0 0
M  V30 31 N 8.6807 4.6665 0.0 0
M  V30 32 C 9.6807 4.6665 0.0 0
M  V30 33 C 8.1807 5.5325 0.0 0
M  V30 34 C 10.1807 5.5325 0.0 0
M  V30 35 C 8.6807 6.3985 0.0 0
M  V30 36 N 9.6807 6.3985 0.0 0
M  V30 37 C 10.1807 7.2646 0.0 0
M  V30 END ATOM
M  V30 BEGIN BOND
M  V30 1 2 1 2
M  V30 2 1 2 3
M  V30 3 1 2 4
M  V30 4 1 3 5
M  V30 5 1 3 6
M  V30 6 2 4 7
M  V30 7 1 4 8
M  V30 8 1 5 9
M  V30 9 1 6 10
M  V30 10 1 7 11
M  V30 11 2 8 12
M  V30 12 2 9 13
M  V30 13 1 9 14
M  V30 14 2 10 15
M  V30 15 2 11 16
M  V30 16 1 13 17
M  V30 17 2 14 18
M  V30 18 1 16 19
M  V30 19 2 17 20
M  V30 20 1 17 21
M  V30 21 1 19 22
M  V30 22 1 21 23
M  V30 23 1 21 24
M  V30 24 1 21 25
M  V30 25 2 22 26
M  V30 26 1 22 27
M  V30 27 1 26 28
M  V30 28 2 27 29
M  V30 29 2 28 30
M  V30 30 1 30 31
M  V30 31 1 31 32
M  V30 32 1 31 33
M  V30 33 1 32 34
M  V30 34 1 33 35
M  V30 35 1 34 36
M  V30 36 1 36 37
M  V30 37 1 5 7
M  V30 38 1 12 16
M  V30 39 1 18 20
M  V30 40 1 29 30
M  V30 41 1 35 36
M  V30 END BOND
M  V30 END CTAB
M  END
>  <Molecule Name>
Compound 478

>  <Molecule Name 2>
Compound 478

>  <Compound ID>
138

>  <Name>
AZD1775

>  <Uniprot>
Q15119

>  <Target>
PDK2

>  <Smiles>
C=CCN1C(=O)C2=CN=C(NC3=CC=C(N4CCN(C)CC4)C=C3)N=C2N1C1=CC=CC(C(C)(C)O)=N1

>  <Kd (nM)>


>  <Assay (Kd)>


>  <Ki (nM)>


>  <Assay (Ki)>


>  <IC50 (nM)>


>  <Assay (IC50)>


>  <EC50 (nM)>


>  <Assay (EC50)>


>  <Article DOI>
10.1016/j.cell.2020.10.038

>  <Molecular Weight>
500.607

>  <Exact Mass>
500.2648223

>  <XLogP3>
3.1

>  <Heavy Atom Count>
37

>  <Ring Count>
5

>  <Hydrogen Bond Acceptor Count>
10

>  <Hydrogen Bond Donor Count>
2

>  <Rotatable Bond Count>
7

>  <Topological Polar Surface Area>
104.34

>  <Molecular Formula>
C27H32N8O2

>  <InChI>
InChI=1S/C27H32N8O2/c1-5-13-34-25(36)21-18-28-26(29-19-9-11-20(12-10-19)33-16-14-32(4)15-17-33)31-24(21)35(34)23-8-6-7-22(30-23)27(2,3)37/h5-12,18,37H,1,13-17H2,2-4H3,(H,28,29,31)

>  <InChI Key>
BKWJAKQVGHWELA-UHFFFAOYSA-N

>  <BindingDB>
50240826

>  <PubChem>
24856436

>  <ChEMBL>
CHEMBL1976040

$$$$
138
Actelion Java MolfileCreator 2.0

  0  0  0  0  0  0              0 V3000
M  V30 BEGIN CTAB
M  V30 COUNTS 37 41 0 0 0
M  V30 BEGIN ATOM
M  V30 1 O 1.9594 1.6636 0.0 0
M  V30 2 C 2.7026 0.9945 0.0 0
M  V30 3 N 2.598 0.0 0.0 0
M  V30 4 C 3.6807 1.2024 0.0 0
M  V30 5 N 3.5116 -0.4067 0.0 0
M  V30 6 C 1.732 -0.5 0.0 0
M  V30 7 C 4.1807 0.3364 0.0 0
M  V30 8 C 4.1807 2.0684 0.0 0
M  V30 9 C 3.7195 -1.3848 0.0 0
M  V30 10 C 0.866 0.0 0.0 0
M  V30 11 N 5.1807 0.3364 0.0 0
M  V30 12 N 5.1807 2.0684 0.0 0
M  V30 13 N 2.9763 -2.054 0.0 0
M  V30 14 C 4.6705 -1.6939 0.0 0
M  V30 15 C 0.0 -0.5 0.0 0
M  V30 16 C 5.6807 1.2024 0.0 0
M  V30 17 C 3.1843 -3.0321 0.0 0
M  V30 18 C 4.8785 -2.672 0.0 0
M  V30 19 N 6.6807 1.2024 0.0 0
M  V30 20 C 4.1353 -3.3411 0.0 0
M  V30 21 C 2.4411 -3.7012 0.0 0
M  V30 22 C 7.1807 2.0684 0.0 0
M  V30 23 O 3.1102 -4.4444 0.0 0
M  V30 24 C 1.698 -4.3704 0.0 0
M  V30 25 C 1.772 -2.9581 0.0 0
M  V30 26 C 8.1807 2.0684 0.0 0
M  V30 27 C 6.6807 2.9344 0.0 0
M  V30 28 C 8.6807 2.9344 0.0 0
M  V30 29 C 7.1807 3.8005 0.0 0
M  V30 30 C 8.1807 3.8005 0.0 0
M  V30 31 N 8.6807 4.6665 0.0 0
M  V30 32 C 9.6807 4.6665 0.0 0
M  V30 33 C 8.1807 5.5325 0.0 0
M  V30 34 C 10.1807 5.5325 0.0 0
M  V30 35 C 8.6807 6.3985 0.0 0
M  V30 36 N 9.6807 6.3985 0.0 0
M  V30 37 C 10.1807 7.2646 0.0 0
M  V30 END ATOM
M  V30 BEGIN BOND
M  V30 1 2 1 2
M  V30 2 1 2 3
M  V30 3 1 2 4
M  V30 4 1 3 5
M  V30 5 1 3 6
M  V30 6 2 4 7
M  V30 7 1 4 8
M  V30 8 1 5 9
M  V30 9 1 6 10
M  V30 10 1 7 11
M  V30 11 2 8 12
M  V30 12 2 9 13
M  V30 13 1 9 14
M  V30 14 2 10 15
M  V30 15 2 11 16
M  V30 16 1 13 17
M  V30 17 2 14 18
M  V30 18 1 16 19
M  V30 19 2 17 20
M  V30 20 1 17 21
M  V30 21 1 19 22
M  V30 22 1 21 23
M  V30 23 1 21 24
M  V30 24 1 21 25
M  V30 25 2 22 26
M  V30 26 1 22 27
M  V30 27 1 26 28
M  V30 28 2 27 29
M  V30 29 2 28 30
M  V30 30 1 30 31
M  V30 31 1 31 32
M  V30 32 1 31 33
M  V30 33 1 32 34
M  V30 34 1 33 35
M  V30 35 1 34 36
M  V30 36 1 36 37
M  V30 37 1 5 7
M  V30 38 1 12 16
M  V30 39 1 18 20
M  V30 40 1 29 30
M  V30 41 1 35 36
M  V30 END BOND
M  V30 END CTAB
M  END
>  <Molecule Name>
Compound 479

>  <Molecule Name 2>
Compound 479

>  <Compound ID>
138

>  <Name>
AZD1775

>  <Uniprot>
Q15120

>  <Target>
PDK3

>  <Smiles>
C=CCN1C(=O)C2=CN=C(NC3=CC=C(N4CCN(C)CC4)C=C3)N=C2N1C1=CC=CC(C(C)(C)O)=N1

>  <Kd (nM)>


>  <Assay (Kd)>


>  <Ki (nM)>


>  <Assay (Ki)>


>  <IC50 (nM)>


>  <Assay (IC50)>


>  <EC50 (nM)>


>  <Assay (EC50)>


>  <Article DOI>
10.1016/j.cell.2020.10.038

>  <Molecular Weight>
500.607

>  <Exact Mass>
500.2648223

>  <XLogP3>
3.1

>  <Heavy Atom Count>
37

>  <Ring Count>
5

>  <Hydrogen Bond Acceptor Count>
10

>  <Hydrogen Bond Donor Count>
2

>  <Rotatable Bond Count>
7

>  <Topological Polar Surface Area>
104.34

>  <Molecular Formula>
C27H32N8O2

>  <InChI>
InChI=1S/C27H32N8O2/c1-5-13-34-25(36)21-18-28-26(29-19-9-11-20(12-10-19)33-16-14-32(4)15-17-33)31-24(21)35(34)23-8-6-7-22(30-23)27(2,3)37/h5-12,18,37H,1,13-17H2,2-4H3,(H,28,29,31)

>  <InChI Key>
BKWJAKQVGHWELA-UHFFFAOYSA-N

>  <BindingDB>
50240826

>  <PubChem>
24856436

>  <ChEMBL>
CHEMBL1976040

$$$$
138
Actelion Java MolfileCreator 2.0

  0  0  0  0  0  0              0 V3000
M  V30 BEGIN CTAB
M  V30 COUNTS 37 41 0 0 0
M  V30 BEGIN ATOM
M  V30 1 O 1.9594 1.6636 0.0 0
M  V30 2 C 2.7026 0.9945 0.0 0
M  V30 3 N 2.598 0.0 0.0 0
M  V30 4 C 3.6807 1.2024 0.0 0
M  V30 5 N 3.5116 -0.4067 0.0 0
M  V30 6 C 1.732 -0.5 0.0 0
M  V30 7 C 4.1807 0.3364 0.0 0
M  V30 8 C 4.1807 2.0684 0.0 0
M  V30 9 C 3.7195 -1.3848 0.0 0
M  V30 10 C 0.866 0.0 0.0 0
M  V30 11 N 5.1807 0.3364 0.0 0
M  V30 12 N 5.1807 2.0684 0.0 0
M  V30 13 N 2.9763 -2.054 0.0 0
M  V30 14 C 4.6705 -1.6939 0.0 0
M  V30 15 C 0.0 -0.5 0.0 0
M  V30 16 C 5.6807 1.2024 0.0 0
M  V30 17 C 3.1843 -3.0321 0.0 0
M  V30 18 C 4.8785 -2.672 0.0 0
M  V30 19 N 6.6807 1.2024 0.0 0
M  V30 20 C 4.1353 -3.3411 0.0 0
M  V30 21 C 2.4411 -3.7012 0.0 0
M  V30 22 C 7.1807 2.0684 0.0 0
M  V30 23 O 3.1102 -4.4444 0.0 0
M  V30 24 C 1.698 -4.3704 0.0 0
M  V30 25 C 1.772 -2.9581 0.0 0
M  V30 26 C 8.1807 2.0684 0.0 0
M  V30 27 C 6.6807 2.9344 0.0 0
M  V30 28 C 8.6807 2.9344 0.0 0
M  V30 29 C 7.1807 3.8005 0.0 0
M  V30 30 C 8.1807 3.8005 0.0 0
M  V30 31 N 8.6807 4.6665 0.0 0
M  V30 32 C 9.6807 4.6665 0.0 0
M  V30 33 C 8.1807 5.5325 0.0 0
M  V30 34 C 10.1807 5.5325 0.0 0
M  V30 35 C 8.6807 6.3985 0.0 0
M  V30 36 N 9.6807 6.3985 0.0 0
M  V30 37 C 10.1807 7.2646 0.0 0
M  V30 END ATOM
M  V30 BEGIN BOND
M  V30 1 2 1 2
M  V30 2 1 2 3
M  V30 3 1 2 4
M  V30 4 1 3 5
M  V30 5 1 3 6
M  V30 6 2 4 7
M  V30 7 1 4 8
M  V30 8 1 5 9
M  V30 9 1 6 10
M  V30 10 1 7 11
M  V30 11 2 8 12
M  V30 12 2 9 13
M  V30 13 1 9 14
M  V30 14 2 10 15
M  V30 15 2 11 16
M  V30 16 1 13 17
M  V30 17 2 14 18
M  V30 18 1 16 19
M  V30 19 2 17 20
M  V30 20 1 17 21
M  V30 21 1 19 22
M  V30 22 1 21 23
M  V30 23 1 21 24
M  V30 24 1 21 25
M  V30 25 2 22 26
M  V30 26 1 22 27
M  V30 27 1 26 28
M  V30 28 2 27 29
M  V30 29 2 28 30
M  V30 30 1 30 31
M  V30 31 1 31 32
M  V30 32 1 31 33
M  V30 33 1 32 34
M  V30 34 1 33 35
M  V30 35 1 34 36
M  V30 36 1 36 37
M  V30 37 1 5 7
M  V30 38 1 12 16
M  V30 39 1 18 20
M  V30 40 1 29 30
M  V30 41 1 35 36
M  V30 END BOND
M  V30 END CTAB
M  END
>  <Molecule Name>
Compound 480

>  <Molecule Name 2>
Compound 480

>  <Compound ID>
138

>  <Name>
AZD1775

>  <Uniprot>
P53350

>  <Target>
PLK1

>  <Smiles>
C=CCN1C(=O)C2=CN=C(NC3=CC=C(N4CCN(C)CC4)C=C3)N=C2N1C1=CC=CC(C(C)(C)O)=N1

>  <Kd (nM)>
3

>  <Assay (Kd)>
Kd was determined by qPCR based assay

>  <Ki (nM)>


>  <Assay (Ki)>


>  <IC50 (nM)>


>  <Assay (IC50)>


>  <EC50 (nM)>


>  <Assay (EC50)>


>  <Article DOI>
10.1021/acs.jmedchem.7b00996

>  <Molecular Weight>
500.607

>  <Exact Mass>
500.2648223

>  <XLogP3>
3.1

>  <Heavy Atom Count>
37

>  <Ring Count>
5

>  <Hydrogen Bond Acceptor Count>
10

>  <Hydrogen Bond Donor Count>
2

>  <Rotatable Bond Count>
7

>  <Topological Polar Surface Area>
104.34

>  <Molecular Formula>
C27H32N8O2

>  <InChI>
InChI=1S/C27H32N8O2/c1-5-13-34-25(36)21-18-28-26(29-19-9-11-20(12-10-19)33-16-14-32(4)15-17-33)31-24(21)35(34)23-8-6-7-22(30-23)27(2,3)37/h5-12,18,37H,1,13-17H2,2-4H3,(H,28,29,31)

>  <InChI Key>
BKWJAKQVGHWELA-UHFFFAOYSA-N

>  <BindingDB>
50240826

>  <PubChem>
24856436

>  <ChEMBL>
CHEMBL1976040

$$$$
138
Actelion Java MolfileCreator 2.0

  0  0  0  0  0  0              0 V3000
M  V30 BEGIN CTAB
M  V30 COUNTS 37 41 0 0 0
M  V30 BEGIN ATOM
M  V30 1 O 1.9594 1.6636 0.0 0
M  V30 2 C 2.7026 0.9945 0.0 0
M  V30 3 N 2.598 0.0 0.0 0
M  V30 4 C 3.6807 1.2024 0.0 0
M  V30 5 N 3.5116 -0.4067 0.0 0
M  V30 6 C 1.732 -0.5 0.0 0
M  V30 7 C 4.1807 0.3364 0.0 0
M  V30 8 C 4.1807 2.0684 0.0 0
M  V30 9 C 3.7195 -1.3848 0.0 0
M  V30 10 C 0.866 0.0 0.0 0
M  V30 11 N 5.1807 0.3364 0.0 0
M  V30 12 N 5.1807 2.0684 0.0 0
M  V30 13 N 2.9763 -2.054 0.0 0
M  V30 14 C 4.6705 -1.6939 0.0 0
M  V30 15 C 0.0 -0.5 0.0 0
M  V30 16 C 5.6807 1.2024 0.0 0
M  V30 17 C 3.1843 -3.0321 0.0 0
M  V30 18 C 4.8785 -2.672 0.0 0
M  V30 19 N 6.6807 1.2024 0.0 0
M  V30 20 C 4.1353 -3.3411 0.0 0
M  V30 21 C 2.4411 -3.7012 0.0 0
M  V30 22 C 7.1807 2.0684 0.0 0
M  V30 23 O 3.1102 -4.4444 0.0 0
M  V30 24 C 1.698 -4.3704 0.0 0
M  V30 25 C 1.772 -2.9581 0.0 0
M  V30 26 C 8.1807 2.0684 0.0 0
M  V30 27 C 6.6807 2.9344 0.0 0
M  V30 28 C 8.6807 2.9344 0.0 0
M  V30 29 C 7.1807 3.8005 0.0 0
M  V30 30 C 8.1807 3.8005 0.0 0
M  V30 31 N 8.6807 4.6665 0.0 0
M  V30 32 C 9.6807 4.6665 0.0 0
M  V30 33 C 8.1807 5.5325 0.0 0
M  V30 34 C 10.1807 5.5325 0.0 0
M  V30 35 C 8.6807 6.3985 0.0 0
M  V30 36 N 9.6807 6.3985 0.0 0
M  V30 37 C 10.1807 7.2646 0.0 0
M  V30 END ATOM
M  V30 BEGIN BOND
M  V30 1 2 1 2
M  V30 2 1 2 3
M  V30 3 1 2 4
M  V30 4 1 3 5
M  V30 5 1 3 6
M  V30 6 2 4 7
M  V30 7 1 4 8
M  V30 8 1 5 9
M  V30 9 1 6 10
M  V30 10 1 7 11
M  V30 11 2 8 12
M  V30 12 2 9 13
M  V30 13 1 9 14
M  V30 14 2 10 15
M  V30 15 2 11 16
M  V30 16 1 13 17
M  V30 17 2 14 18
M  V30 18 1 16 19
M  V30 19 2 17 20
M  V30 20 1 17 21
M  V30 21 1 19 22
M  V30 22 1 21 23
M  V30 23 1 21 24
M  V30 24 1 21 25
M  V30 25 2 22 26
M  V30 26 1 22 27
M  V30 27 1 26 28
M  V30 28 2 27 29
M  V30 29 2 28 30
M  V30 30 1 30 31
M  V30 31 1 31 32
M  V30 32 1 31 33
M  V30 33 1 32 34
M  V30 34 1 33 35
M  V30 35 1 34 36
M  V30 36 1 36 37
M  V30 37 1 5 7
M  V30 38 1 12 16
M  V30 39 1 18 20
M  V30 40 1 29 30
M  V30 41 1 35 36
M  V30 END BOND
M  V30 END CTAB
M  END
>  <Molecule Name>
Compound 481

>  <Molecule Name 2>
Compound 481

>  <Compound ID>
138

>  <Name>
AZD1775

>  <Uniprot>
P41743

>  <Target>
PRKCI

>  <Smiles>
C=CCN1C(=O)C2=CN=C(NC3=CC=C(N4CCN(C)CC4)C=C3)N=C2N1C1=CC=CC(C(C)(C)O)=N1

>  <Kd (nM)>
>30000

>  <Assay (Kd)>
Kd apparent of PRKCI

>  <Ki (nM)>


>  <Assay (Ki)>


>  <IC50 (nM)>


>  <Assay (IC50)>


>  <EC50 (nM)>


>  <Assay (EC50)>


>  <Article DOI>
10.1126/science.aan4368

>  <Molecular Weight>
500.607

>  <Exact Mass>
500.2648223

>  <XLogP3>
3.1

>  <Heavy Atom Count>
37

>  <Ring Count>
5

>  <Hydrogen Bond Acceptor Count>
10

>  <Hydrogen Bond Donor Count>
2

>  <Rotatable Bond Count>
7

>  <Topological Polar Surface Area>
104.34

>  <Molecular Formula>
C27H32N8O2

>  <InChI>
InChI=1S/C27H32N8O2/c1-5-13-34-25(36)21-18-28-26(29-19-9-11-20(12-10-19)33-16-14-32(4)15-17-33)31-24(21)35(34)23-8-6-7-22(30-23)27(2,3)37/h5-12,18,37H,1,13-17H2,2-4H3,(H,28,29,31)

>  <InChI Key>
BKWJAKQVGHWELA-UHFFFAOYSA-N

>  <BindingDB>
50240826

>  <PubChem>
24856436

>  <ChEMBL>
CHEMBL1976040

$$$$
138
Actelion Java MolfileCreator 2.0

  0  0  0  0  0  0              0 V3000
M  V30 BEGIN CTAB
M  V30 COUNTS 37 41 0 0 0
M  V30 BEGIN ATOM
M  V30 1 O 1.9594 1.6636 0.0 0
M  V30 2 C 2.7026 0.9945 0.0 0
M  V30 3 N 2.598 0.0 0.0 0
M  V30 4 C 3.6807 1.2024 0.0 0
M  V30 5 N 3.5116 -0.4067 0.0 0
M  V30 6 C 1.732 -0.5 0.0 0
M  V30 7 C 4.1807 0.3364 0.0 0
M  V30 8 C 4.1807 2.0684 0.0 0
M  V30 9 C 3.7195 -1.3848 0.0 0
M  V30 10 C 0.866 0.0 0.0 0
M  V30 11 N 5.1807 0.3364 0.0 0
M  V30 12 N 5.1807 2.0684 0.0 0
M  V30 13 N 2.9763 -2.054 0.0 0
M  V30 14 C 4.6705 -1.6939 0.0 0
M  V30 15 C 0.0 -0.5 0.0 0
M  V30 16 C 5.6807 1.2024 0.0 0
M  V30 17 C 3.1843 -3.0321 0.0 0
M  V30 18 C 4.8785 -2.672 0.0 0
M  V30 19 N 6.6807 1.2024 0.0 0
M  V30 20 C 4.1353 -3.3411 0.0 0
M  V30 21 C 2.4411 -3.7012 0.0 0
M  V30 22 C 7.1807 2.0684 0.0 0
M  V30 23 O 3.1102 -4.4444 0.0 0
M  V30 24 C 1.698 -4.3704 0.0 0
M  V30 25 C 1.772 -2.9581 0.0 0
M  V30 26 C 8.1807 2.0684 0.0 0
M  V30 27 C 6.6807 2.9344 0.0 0
M  V30 28 C 8.6807 2.9344 0.0 0
M  V30 29 C 7.1807 3.8005 0.0 0
M  V30 30 C 8.1807 3.8005 0.0 0
M  V30 31 N 8.6807 4.6665 0.0 0
M  V30 32 C 9.6807 4.6665 0.0 0
M  V30 33 C 8.1807 5.5325 0.0 0
M  V30 34 C 10.1807 5.5325 0.0 0
M  V30 35 C 8.6807 6.3985 0.0 0
M  V30 36 N 9.6807 6.3985 0.0 0
M  V30 37 C 10.1807 7.2646 0.0 0
M  V30 END ATOM
M  V30 BEGIN BOND
M  V30 1 2 1 2
M  V30 2 1 2 3
M  V30 3 1 2 4
M  V30 4 1 3 5
M  V30 5 1 3 6
M  V30 6 2 4 7
M  V30 7 1 4 8
M  V30 8 1 5 9
M  V30 9 1 6 10
M  V30 10 1 7 11
M  V30 11 2 8 12
M  V30 12 2 9 13
M  V30 13 1 9 14
M  V30 14 2 10 15
M  V30 15 2 11 16
M  V30 16 1 13 17
M  V30 17 2 14 18
M  V30 18 1 16 19
M  V30 19 2 17 20
M  V30 20 1 17 21
M  V30 21 1 19 22
M  V30 22 1 21 23
M  V30 23 1 21 24
M  V30 24 1 21 25
M  V30 25 2 22 26
M  V30 26 1 22 27
M  V30 27 1 26 28
M  V30 28 2 27 29
M  V30 29 2 28 30
M  V30 30 1 30 31
M  V30 31 1 31 32
M  V30 32 1 31 33
M  V30 33 1 32 34
M  V30 34 1 33 35
M  V30 35 1 34 36
M  V30 36 1 36 37
M  V30 37 1 5 7
M  V30 38 1 12 16
M  V30 39 1 18 20
M  V30 40 1 29 30
M  V30 41 1 35 36
M  V30 END BOND
M  V30 END CTAB
M  END
>  <Molecule Name>
Compound 482

>  <Molecule Name 2>
Compound 482

>  <Compound ID>
138

>  <Name>
AZD1775

>  <Uniprot>
Q8TEA7

>  <Target>
TBCK

>  <Smiles>
C=CCN1C(=O)C2=CN=C(NC3=CC=C(N4CCN(C)CC4)C=C3)N=C2N1C1=CC=CC(C(C)(C)O)=N1

>  <Kd (nM)>


>  <Assay (Kd)>


>  <Ki (nM)>


>  <Assay (Ki)>


>  <IC50 (nM)>


>  <Assay (IC50)>


>  <EC50 (nM)>


>  <Assay (EC50)>


>  <Article DOI>
10.1016/j.cell.2020.10.038

>  <Molecular Weight>
500.607

>  <Exact Mass>
500.2648223

>  <XLogP3>
3.1

>  <Heavy Atom Count>
37

>  <Ring Count>
5

>  <Hydrogen Bond Acceptor Count>
10

>  <Hydrogen Bond Donor Count>
2

>  <Rotatable Bond Count>
7

>  <Topological Polar Surface Area>
104.34

>  <Molecular Formula>
C27H32N8O2

>  <InChI>
InChI=1S/C27H32N8O2/c1-5-13-34-25(36)21-18-28-26(29-19-9-11-20(12-10-19)33-16-14-32(4)15-17-33)31-24(21)35(34)23-8-6-7-22(30-23)27(2,3)37/h5-12,18,37H,1,13-17H2,2-4H3,(H,28,29,31)

>  <InChI Key>
BKWJAKQVGHWELA-UHFFFAOYSA-N

>  <BindingDB>
50240826

>  <PubChem>
24856436

>  <ChEMBL>
CHEMBL1976040

$$$$
138
Actelion Java MolfileCreator 2.0

  0  0  0  0  0  0              0 V3000
M  V30 BEGIN CTAB
M  V30 COUNTS 37 41 0 0 0
M  V30 BEGIN ATOM
M  V30 1 O 1.9594 1.6636 0.0 0
M  V30 2 C 2.7026 0.9945 0.0 0
M  V30 3 N 2.598 0.0 0.0 0
M  V30 4 C 3.6807 1.2024 0.0 0
M  V30 5 N 3.5116 -0.4067 0.0 0
M  V30 6 C 1.732 -0.5 0.0 0
M  V30 7 C 4.1807 0.3364 0.0 0
M  V30 8 C 4.1807 2.0684 0.0 0
M  V30 9 C 3.7195 -1.3848 0.0 0
M  V30 10 C 0.866 0.0 0.0 0
M  V30 11 N 5.1807 0.3364 0.0 0
M  V30 12 N 5.1807 2.0684 0.0 0
M  V30 13 N 2.9763 -2.054 0.0 0
M  V30 14 C 4.6705 -1.6939 0.0 0
M  V30 15 C 0.0 -0.5 0.0 0
M  V30 16 C 5.6807 1.2024 0.0 0
M  V30 17 C 3.1843 -3.0321 0.0 0
M  V30 18 C 4.8785 -2.672 0.0 0
M  V30 19 N 6.6807 1.2024 0.0 0
M  V30 20 C 4.1353 -3.3411 0.0 0
M  V30 21 C 2.4411 -3.7012 0.0 0
M  V30 22 C 7.1807 2.0684 0.0 0
M  V30 23 O 3.1102 -4.4444 0.0 0
M  V30 24 C 1.698 -4.3704 0.0 0
M  V30 25 C 1.772 -2.9581 0.0 0
M  V30 26 C 8.1807 2.0684 0.0 0
M  V30 27 C 6.6807 2.9344 0.0 0
M  V30 28 C 8.6807 2.9344 0.0 0
M  V30 29 C 7.1807 3.8005 0.0 0
M  V30 30 C 8.1807 3.8005 0.0 0
M  V30 31 N 8.6807 4.6665 0.0 0
M  V30 32 C 9.6807 4.6665 0.0 0
M  V30 33 C 8.1807 5.5325 0.0 0
M  V30 34 C 10.1807 5.5325 0.0 0
M  V30 35 C 8.6807 6.3985 0.0 0
M  V30 36 N 9.6807 6.3985 0.0 0
M  V30 37 C 10.1807 7.2646 0.0 0
M  V30 END ATOM
M  V30 BEGIN BOND
M  V30 1 2 1 2
M  V30 2 1 2 3
M  V30 3 1 2 4
M  V30 4 1 3 5
M  V30 5 1 3 6
M  V30 6 2 4 7
M  V30 7 1 4 8
M  V30 8 1 5 9
M  V30 9 1 6 10
M  V30 10 1 7 11
M  V30 11 2 8 12
M  V30 12 2 9 13
M  V30 13 1 9 14
M  V30 14 2 10 15
M  V30 15 2 11 16
M  V30 16 1 13 17
M  V30 17 2 14 18
M  V30 18 1 16 19
M  V30 19 2 17 20
M  V30 20 1 17 21
M  V30 21 1 19 22
M  V30 22 1 21 23
M  V30 23 1 21 24
M  V30 24 1 21 25
M  V30 25 2 22 26
M  V30 26 1 22 27
M  V30 27 1 26 28
M  V30 28 2 27 29
M  V30 29 2 28 30
M  V30 30 1 30 31
M  V30 31 1 31 32
M  V30 32 1 31 33
M  V30 33 1 32 34
M  V30 34 1 33 35
M  V30 35 1 34 36
M  V30 36 1 36 37
M  V30 37 1 5 7
M  V30 38 1 12 16
M  V30 39 1 18 20
M  V30 40 1 29 30
M  V30 41 1 35 36
M  V30 END BOND
M  V30 END CTAB
M  END
>  <Molecule Name>
Compound 483

>  <Molecule Name 2>
Compound 483

>  <Compound ID>
138

>  <Name>
AZD1775

>  <Uniprot>
P30291

>  <Target>
Wee1

>  <Smiles>
C=CCN1C(=O)C2=CN=C(NC3=CC=C(N4CCN(C)CC4)C=C3)N=C2N1C1=CC=CC(C(C)(C)O)=N1

>  <Kd (nM)>
3.2

>  <Assay (Kd)>
Kd was determined by qPCR based assay

>  <Ki (nM)>


>  <Assay (Ki)>


>  <IC50 (nM)>


>  <Assay (IC50)>


>  <EC50 (nM)>


>  <Assay (EC50)>


>  <Article DOI>
10.1021/acs.jmedchem.7b00996

>  <Molecular Weight>
500.607

>  <Exact Mass>
500.2648223

>  <XLogP3>
3.1

>  <Heavy Atom Count>
37

>  <Ring Count>
5

>  <Hydrogen Bond Acceptor Count>
10

>  <Hydrogen Bond Donor Count>
2

>  <Rotatable Bond Count>
7

>  <Topological Polar Surface Area>
104.34

>  <Molecular Formula>
C27H32N8O2

>  <InChI>
InChI=1S/C27H32N8O2/c1-5-13-34-25(36)21-18-28-26(29-19-9-11-20(12-10-19)33-16-14-32(4)15-17-33)31-24(21)35(34)23-8-6-7-22(30-23)27(2,3)37/h5-12,18,37H,1,13-17H2,2-4H3,(H,28,29,31)

>  <InChI Key>
BKWJAKQVGHWELA-UHFFFAOYSA-N

>  <BindingDB>
50240826

>  <PubChem>
24856436

>  <ChEMBL>
CHEMBL1976040

$$$$
139
Actelion Java MolfileCreator 2.0

  0  0  0  0  0  0              0 V3000
M  V30 BEGIN CTAB
M  V30 COUNTS 32 35 0 0 0
M  V30 BEGIN ATOM
M  V30 1 Br 1.732 1.4999 0.0 0
M  V30 2 C 2.598 1.0 0.0 0
M  V30 3 C 2.598 0.0 0.0 0
M  V30 4 C 3.4641 1.4999 0.0 0
M  V30 5 O 1.732 -0.5 0.0 0
M  V30 6 C 3.4641 -0.5 0.0 0
M  V30 7 C 4.3301 1.0 0.0 0
M  V30 8 C 0.866 0.0 0.0 0
M  V30 9 C 4.3301 0.0 0.0 0
M  V30 10 C 5.1961 1.5 0.0 0
M  V30 11 C 0.0 -0.5 0.0 0
M  V30 12 N 5.1961 2.5 0.0 0
M  V30 13 C -0.866 0.0 0.0 0
M  V30 14 C 0.0 -1.4999 0.0 0
M  V30 15 C 6.0621 3.0 0.0 0 CFG=2
M  V30 16 C 4.3301 3.0 0.0 0
M  V30 17 C -1.732 -0.4999 0.0 0
M  V30 18 C -0.866 1.0 0.0 0
M  V30 19 C -0.866 -1.9999 0.0 0
M  V30 20 C 6.9282 2.4999 0.0 0
M  V30 21 C 6.0621 4.0 0.0 0
M  V30 22 C 4.3301 4.0 0.0 0
M  V30 23 C -2.598 0.0 0.0 0
M  V30 24 C -1.732 -1.4999 0.0 0
M  V30 25 O 6.9282 1.4999 0.0 0
M  V30 26 O 7.7942 2.9999 0.0 0
M  V30 27 C 5.1961 4.5 0.0 0
M  V30 28 C -2.598 1.0 0.0 0
M  V30 29 C -3.4641 -0.4999 0.0 0
M  V30 30 C -3.4641 1.5 0.0 0
M  V30 31 C -4.3301 0.0 0.0 0
M  V30 32 C -4.3301 1.0 0.0 0
M  V30 END ATOM
M  V30 BEGIN BOND
M  V30 1 1 1 2
M  V30 2 2 2 3
M  V30 3 1 2 4
M  V30 4 1 3 5
M  V30 5 1 3 6
M  V30 6 2 4 7
M  V30 7 1 5 8
M  V30 8 2 6 9
M  V30 9 1 7 10
M  V30 10 1 8 11
M  V30 11 1 10 12
M  V30 12 2 11 13
M  V30 13 1 11 14
M  V30 14 1 15 12
M  V30 15 1 12 16
M  V30 16 1 13 17
M  V30 17 1 13 18
M  V30 18 2 14 19
M  V30 19 1 15 20 CFG=1
M  V30 20 1 15 21
M  V30 21 1 16 22
M  V30 22 1 17 23
M  V30 23 2 17 24
M  V30 24 2 20 25
M  V30 25 1 20 26
M  V30 26 1 21 27
M  V30 27 2 23 28
M  V30 28 1 23 29
M  V30 29 1 28 30
M  V30 30 2 29 31
M  V30 31 2 30 32
M  V30 32 1 7 9
M  V30 33 1 19 24
M  V30 34 1 22 27
M  V30 35 1 31 32
M  V30 END BOND
M  V30 BEGIN COLLECTION
M  V30 MDLV30/STERAC1 ATOMS=(1 15)
M  V30 END COLLECTION
M  V30 END CTAB
M  END
>  <Molecule Name>
Compound 484

>  <Molecule Name 2>
Compound 484

>  <Compound ID>
139

>  <Name>
BMS-8

>  <Uniprot>
Q9NZQ7

>  <Target>
PD-L1

>  <Smiles>
CC1=C(COC2=CC=C(CN3CCCCC3C(=O)O)C=C2Br)C=CC=C1C1=CC=CC=C1

>  <Kd (nM)>


>  <Assay (Kd)>


>  <Ki (nM)>


>  <Assay (Ki)>


>  <IC50 (nM)>
146

>  <Assay (IC50)>
IC50 was tested by the HTRF binding assay

>  <EC50 (nM)>


>  <Assay (EC50)>


>  <Article DOI>
10.1021/acs.jmedchem.7b00293

>  <Molecular Weight>
494.429

>  <Exact Mass>
493.1252559

>  <XLogP3>
4.1

>  <Heavy Atom Count>
32

>  <Ring Count>
4

>  <Hydrogen Bond Acceptor Count>
3

>  <Hydrogen Bond Donor Count>
1

>  <Rotatable Bond Count>
7

>  <Topological Polar Surface Area>
49.77

>  <Molecular Formula>
C27H28BrNO3

>  <InChI>
InChI=1S/C27H28BrNO3/c1-19-22(10-7-11-23(19)21-8-3-2-4-9-21)18-32-26-14-13-20(16-24(26)28)17-29-15-6-5-12-25(29)27(30)31/h2-4,7-11,13-14,16,25H,5-6,12,15,17-18H2,1H3,(H,30,31)

>  <InChI Key>
QRXBPPWUGITQLE-UHFFFAOYSA-N

>  <BindingDB>
50239943

>  <PubChem>
117941742

>  <ChEMBL>
CHEMBL4099869

$$$$
140
Actelion Java MolfileCreator 2.0

  0  0  0  0  0  0              0 V3000
M  V30 BEGIN CTAB
M  V30 COUNTS 42 46 0 0 0
M  V30 BEGIN ATOM
M  V30 1 Cl 1.732 1.4999 0.0 0
M  V30 2 C 2.598 1.0 0.0 0
M  V30 3 C 2.598 0.0 0.0 0
M  V30 4 C 3.4641 1.4999 0.0 0
M  V30 5 O 1.732 -0.5 0.0 0
M  V30 6 C 3.4641 -0.5 0.0 0
M  V30 7 C 4.3301 1.0 0.0 0
M  V30 8 C 0.866 0.0 0.0 0
M  V30 9 C 4.3301 0.0 0.0 0
M  V30 10 C 5.1961 1.5 0.0 0
M  V30 11 C 0.0 -0.5 0.0 0
M  V30 12 O 5.1961 -0.5 0.0 0
M  V30 13 N 5.1961 2.5 0.0 0
M  V30 14 C -0.866 0.0 0.0 0
M  V30 15 C 0.0 -1.4999 0.0 0
M  V30 16 C 5.1961 -1.5 0.0 0
M  V30 17 C 6.0621 3.0 0.0 0 CFG=2
M  V30 18 C 4.3301 3.0 0.0 0
M  V30 19 C -1.732 -0.4999 0.0 0
M  V30 20 C -0.866 1.0 0.0 0
M  V30 21 C -0.866 -1.9999 0.0 0
M  V30 22 C 6.0621 -2.0 0.0 0
M  V30 23 C 6.9282 2.4999 0.0 0
M  V30 24 C 6.0621 4.0 0.0 0
M  V30 25 C 4.3301 4.0 0.0 0
M  V30 26 C -2.598 0.0 0.0 0
M  V30 27 C -1.732 -1.4999 0.0 0
M  V30 28 C 6.0621 -3.0 0.0 0
M  V30 29 C 6.9282 -1.5 0.0 0
M  V30 30 O 6.9282 1.4999 0.0 0
M  V30 31 O 7.7942 2.9999 0.0 0
M  V30 32 C 5.1961 4.5 0.0 0
M  V30 33 C -2.598 1.0 0.0 0
M  V30 34 C -3.4641 -0.4999 0.0 0
M  V30 35 C 6.9282 -3.5 0.0 0
M  V30 36 C 7.7942 -2.0 0.0 0
M  V30 37 C -3.4641 1.5 0.0 0
M  V30 38 C -4.3301 0.0 0.0 0
M  V30 39 C 6.9282 -4.5 0.0 0
M  V30 40 C 7.7942 -3.0 0.0 0
M  V30 41 C -4.3301 1.0 0.0 0
M  V30 42 N 6.9282 -5.5 0.0 0
M  V30 END ATOM
M  V30 BEGIN BOND
M  V30 1 1 1 2
M  V30 2 2 2 3
M  V30 3 1 2 4
M  V30 4 1 3 5
M  V30 5 1 3 6
M  V30 6 2 4 7
M  V30 7 1 5 8
M  V30 8 2 6 9
M  V30 9 1 7 10
M  V30 10 1 8 11
M  V30 11 1 9 12
M  V30 12 1 10 13
M  V30 13 2 11 14
M  V30 14 1 11 15
M  V30 15 1 12 16
M  V30 16 1 17 13
M  V30 17 1 13 18
M  V30 18 1 14 19
M  V30 19 1 14 20
M  V30 20 2 15 21
M  V30 21 1 16 22
M  V30 22 1 17 23 CFG=1
M  V30 23 1 17 24
M  V30 24 1 18 25
M  V30 25 1 19 26
M  V30 26 2 19 27
M  V30 27 2 22 28
M  V30 28 1 22 29
M  V30 29 2 23 30
M  V30 30 1 23 31
M  V30 31 1 24 32
M  V30 32 2 26 33
M  V30 33 1 26 34
M  V30 34 1 28 35
M  V30 35 2 29 36
M  V30 36 1 33 37
M  V30 37 2 34 38
M  V30 38 1 35 39
M  V30 39 2 35 40
M  V30 40 2 37 41
M  V30 41 3 39 42
M  V30 42 1 7 9
M  V30 43 1 21 27
M  V30 44 1 25 32
M  V30 45 1 36 40
M  V30 46 1 38 41
M  V30 END BOND
M  V30 BEGIN COLLECTION
M  V30 MDLV30/STERAC1 ATOMS=(1 17)
M  V30 END COLLECTION
M  V30 END CTAB
M  END
>  <Molecule Name>
Compound 485

>  <Molecule Name 2>
Compound 485

>  <Compound ID>
140

>  <Name>
BMS-1233

>  <Uniprot>
Q9NZQ7

>  <Target>
PD-L1

>  <Smiles>
CC1=C(COC2=CC(OCC3=CC=CC(C#N)=C3)=C(CN3CCCCC3C(=O)O)C=C2Cl)C=CC=C1C1=CC=CC=C1

>  <Kd (nM)>


>  <Assay (Kd)>


>  <Ki (nM)>


>  <Assay (Ki)>


>  <IC50 (nM)>


>  <Assay (IC50)>


>  <EC50 (nM)>


>  <Assay (EC50)>


>  <Article DOI>


>  <Molecular Weight>
581.112

>  <Exact Mass>
580.2128852

>  <XLogP3>
5.22

>  <Heavy Atom Count>
42

>  <Ring Count>
5

>  <Hydrogen Bond Acceptor Count>
5

>  <Hydrogen Bond Donor Count>
1

>  <Rotatable Bond Count>
10

>  <Topological Polar Surface Area>
82.79

>  <Molecular Formula>
C35H33ClN2O4

>  <InChI>
InChI=1S/C35H33ClN2O4/c1-24-28(13-8-14-30(24)27-11-3-2-4-12-27)23-42-34-19-33(41-22-26-10-7-9-25(17-26)20-37)29(18-31(34)36)21-38-16-6-5-15-32(38)35(39)40/h2-4,7-14,17-19,32H,5-6,15-16,21-23H2,1H3,(H,39,40)

>  <InChI Key>
TZOWKIMGKWZTKR-UHFFFAOYSA-N

>  <BindingDB>


>  <PubChem>


>  <ChEMBL>


$$$$
141
Actelion Java MolfileCreator 2.0

  0  0  0  0  0  0              0 V3000
M  V30 BEGIN CTAB
M  V30 COUNTS 24 27 0 0 0
M  V30 BEGIN ATOM
M  V30 1 F 9.2788 2.7024 0.0 0
M  V30 2 C 8.2788 2.7024 0.0 0
M  V30 3 C 7.7788 3.5684 0.0 0
M  V30 4 C 7.7788 1.8364 0.0 0
M  V30 5 C 6.7788 3.5684 0.0 0
M  V30 6 C 6.7788 1.8364 0.0 0
M  V30 7 C 6.3703 4.4879 0.0 0
M  V30 8 C 6.2788 2.7024 0.0 0
M  V30 9 N 6.1096 1.0932 0.0 0
M  V30 10 O 7.0228 5.2456 0.0 0
M  V30 11 N 5.4063 4.7539 0.0 0
M  V30 12 C 5.3006 2.4945 0.0 0
M  V30 13 C 5.1961 1.5 0.0 0
M  V30 14 C 4.5973 4.1661 0.0 0
M  V30 15 C 4.5524 3.1671 0.0 0
M  V30 16 C 4.3301 1.0 0.0 0
M  V30 17 C 3.4641 1.5 0.0 0
M  V30 18 C 4.3301 0.0 0.0 0
M  V30 19 C 2.598 0.9999 0.0 0
M  V30 20 C 3.4641 -0.4999 0.0 0
M  V30 21 C 2.598 0.0 0.0 0
M  V30 22 C 1.732 -0.5 0.0 0
M  V30 23 N 0.866 0.0 0.0 0
M  V30 24 C 0.0 -0.5 0.0 0
M  V30 END ATOM
M  V30 BEGIN BOND
M  V30 1 1 1 2
M  V30 2 2 2 3
M  V30 3 1 2 4
M  V30 4 1 3 5
M  V30 5 2 4 6
M  V30 6 1 5 7
M  V30 7 2 5 8
M  V30 8 1 6 9
M  V30 9 2 7 10
M  V30 10 1 7 11
M  V30 11 1 8 12
M  V30 12 1 9 13
M  V30 13 1 11 14
M  V30 14 1 12 15
M  V30 15 1 13 16
M  V30 16 2 16 17
M  V30 17 1 16 18
M  V30 18 1 17 19
M  V30 19 2 18 20
M  V30 20 2 19 21
M  V30 21 1 21 22
M  V30 22 1 22 23
M  V30 23 1 23 24
M  V30 24 1 6 8
M  V30 25 2 12 13
M  V30 26 1 14 15
M  V30 27 1 20 21
M  V30 END BOND
M  V30 END CTAB
M  END
>  <Molecule Name>
Compound 486

>  <Molecule Name 2>
Compound 486

>  <Compound ID>
141

>  <Name>
Rucaparib

>  <Uniprot>
P09874

>  <Target>
PARP1

>  <Smiles>
CNCC1=CC=C(C2=C3CCNC(=O)C4=C3C(=CC(F)=C4)[NH]2)C=C1

>  <Kd (nM)>


>  <Assay (Kd)>


>  <Ki (nM)>


>  <Assay (Ki)>


>  <IC50 (nM)>
3.2

>  <Assay (IC50)>
IC50 of PARP1

>  <EC50 (nM)>


>  <Assay (EC50)>


>  <Article DOI>
10.1021/acs.jmedchem.6b00990

>  <Molecular Weight>
323.371

>  <Exact Mass>
323.1433904

>  <XLogP3>
2.49

>  <Heavy Atom Count>
24

>  <Ring Count>
4

>  <Hydrogen Bond Acceptor Count>
2

>  <Hydrogen Bond Donor Count>
3

>  <Rotatable Bond Count>
3

>  <Topological Polar Surface Area>
56.92

>  <Molecular Formula>
C19H18FN3O

>  <InChI>
InChI=1S/C19H18FN3O/c1-21-10-11-2-4-12(5-3-11)18-14-6-7-22-19(24)15-8-13(20)9-16(23-18)17(14)15/h2-5,8-9,21,23H,6-7,10H2,1H3,(H,22,24)

>  <InChI Key>
HMABYWSNWIZPAG-UHFFFAOYSA-N

>  <BindingDB>
50446130

>  <PubChem>
9931954

>  <ChEMBL>
CHEMBL1173055

$$$$
141
Actelion Java MolfileCreator 2.0

  0  0  0  0  0  0              0 V3000
M  V30 BEGIN CTAB
M  V30 COUNTS 24 27 0 0 0
M  V30 BEGIN ATOM
M  V30 1 F 9.2788 2.7024 0.0 0
M  V30 2 C 8.2788 2.7024 0.0 0
M  V30 3 C 7.7788 3.5684 0.0 0
M  V30 4 C 7.7788 1.8364 0.0 0
M  V30 5 C 6.7788 3.5684 0.0 0
M  V30 6 C 6.7788 1.8364 0.0 0
M  V30 7 C 6.3703 4.4879 0.0 0
M  V30 8 C 6.2788 2.7024 0.0 0
M  V30 9 N 6.1096 1.0932 0.0 0
M  V30 10 O 7.0228 5.2456 0.0 0
M  V30 11 N 5.4063 4.7539 0.0 0
M  V30 12 C 5.3006 2.4945 0.0 0
M  V30 13 C 5.1961 1.5 0.0 0
M  V30 14 C 4.5973 4.1661 0.0 0
M  V30 15 C 4.5524 3.1671 0.0 0
M  V30 16 C 4.3301 1.0 0.0 0
M  V30 17 C 3.4641 1.5 0.0 0
M  V30 18 C 4.3301 0.0 0.0 0
M  V30 19 C 2.598 0.9999 0.0 0
M  V30 20 C 3.4641 -0.4999 0.0 0
M  V30 21 C 2.598 0.0 0.0 0
M  V30 22 C 1.732 -0.5 0.0 0
M  V30 23 N 0.866 0.0 0.0 0
M  V30 24 C 0.0 -0.5 0.0 0
M  V30 END ATOM
M  V30 BEGIN BOND
M  V30 1 1 1 2
M  V30 2 2 2 3
M  V30 3 1 2 4
M  V30 4 1 3 5
M  V30 5 2 4 6
M  V30 6 1 5 7
M  V30 7 2 5 8
M  V30 8 1 6 9
M  V30 9 2 7 10
M  V30 10 1 7 11
M  V30 11 1 8 12
M  V30 12 1 9 13
M  V30 13 1 11 14
M  V30 14 1 12 15
M  V30 15 1 13 16
M  V30 16 2 16 17
M  V30 17 1 16 18
M  V30 18 1 17 19
M  V30 19 2 18 20
M  V30 20 2 19 21
M  V30 21 1 21 22
M  V30 22 1 22 23
M  V30 23 1 23 24
M  V30 24 1 6 8
M  V30 25 2 12 13
M  V30 26 1 14 15
M  V30 27 1 20 21
M  V30 END BOND
M  V30 END CTAB
M  END
>  <Molecule Name>
Compound 487

>  <Molecule Name 2>
Compound 487

>  <Compound ID>
141

>  <Name>
Rucaparib

>  <Uniprot>
Q9Y6F1

>  <Target>
PARP3

>  <Smiles>
CNCC1=CC=C(C2=C3CCNC(=O)C4=C3C(=CC(F)=C4)[NH]2)C=C1

>  <Kd (nM)>


>  <Assay (Kd)>


>  <Ki (nM)>


>  <Assay (Ki)>


>  <IC50 (nM)>
512

>  <Assay (IC50)>
IC50 of PARP3

>  <EC50 (nM)>


>  <Assay (EC50)>


>  <Article DOI>
10.1021/acs.jmedchem.6b00990

>  <Molecular Weight>
323.371

>  <Exact Mass>
323.1433904

>  <XLogP3>
2.49

>  <Heavy Atom Count>
24

>  <Ring Count>
4

>  <Hydrogen Bond Acceptor Count>
2

>  <Hydrogen Bond Donor Count>
3

>  <Rotatable Bond Count>
3

>  <Topological Polar Surface Area>
56.92

>  <Molecular Formula>
C19H18FN3O

>  <InChI>
InChI=1S/C19H18FN3O/c1-21-10-11-2-4-12(5-3-11)18-14-6-7-22-19(24)15-8-13(20)9-16(23-18)17(14)15/h2-5,8-9,21,23H,6-7,10H2,1H3,(H,22,24)

>  <InChI Key>
HMABYWSNWIZPAG-UHFFFAOYSA-N

>  <BindingDB>
50446130

>  <PubChem>
9931954

>  <ChEMBL>
CHEMBL1173055

$$$$
142
Actelion Java MolfileCreator 2.0

  0  0  0  0  0  0              0 V3000
M  V30 BEGIN CTAB
M  V30 COUNTS 18 20 0 0 0
M  V30 BEGIN ATOM
M  V30 1 O 1.732 -0.5 0.0 0
M  V30 2 C 0.866 0.0 0.0 0
M  V30 3 N 0.866 1.0 0.0 0
M  V30 4 C 0.0 -0.5 0.0 0
M  V30 5 C -0.866 0.0 0.0 0
M  V30 6 C 0.0 -1.4999 0.0 0
M  V30 7 N -1.0739 0.9781 0.0 0
M  V30 8 C -1.732 -0.4999 0.0 0
M  V30 9 C -0.866 -1.9999 0.0 0
M  V30 10 C -2.0684 1.0826 0.0 0
M  V30 11 N -2.4751 0.1691 0.0 0
M  V30 12 C -1.732 -1.4999 0.0 0
M  V30 13 C -2.5684 1.9487 0.0 0 CFG=2
M  V30 14 N -2.1617 2.8622 0.0 0
M  V30 15 C -3.5629 2.0532 0.0 0
M  V30 16 C -3.113 1.11 0.0 0
M  V30 17 C -2.9048 3.5313 0.0 0
M  V30 18 C -3.7708 3.0313 0.0 0
M  V30 END ATOM
M  V30 BEGIN BOND
M  V30 1 2 1 2
M  V30 2 1 2 3
M  V30 3 1 2 4
M  V30 4 2 4 5
M  V30 5 1 4 6
M  V30 6 1 5 7
M  V30 7 1 5 8
M  V30 8 2 6 9
M  V30 9 2 7 10
M  V30 10 1 8 11
M  V30 11 2 8 12
M  V30 12 1 13 10
M  V30 13 1 13 14
M  V30 14 1 13 15
M  V30 15 1 13 16 CFG=3
M  V30 16 1 14 17
M  V30 17 1 15 18
M  V30 18 1 9 12
M  V30 19 1 10 11
M  V30 20 1 17 18
M  V30 END BOND
M  V30 BEGIN COLLECTION
M  V30 MDLV30/STEABS ATOMS=(1 13)
M  V30 END COLLECTION
M  V30 END CTAB
M  END
>  <Molecule Name>
Compound 488

>  <Molecule Name 2>
Compound 488

>  <Compound ID>
142

>  <Name>
Veliparib

>  <Uniprot>
P09874

>  <Target>
PARP1

>  <Smiles>
C[C@]1(C2=NC3=C(C(N)=O)C=CC=C3[NH]2)CCCN1

>  <Kd (nM)>


>  <Assay (Kd)>


>  <Ki (nM)>


>  <Assay (Ki)>


>  <IC50 (nM)>
3.3

>  <Assay (IC50)>
IC50 of PARP1

>  <EC50 (nM)>


>  <Assay (EC50)>


>  <Article DOI>
10.1021/acs.jmedchem.6b00990

>  <Molecular Weight>
244.298

>  <Exact Mass>
244.1324111

>  <XLogP3>
0.48

>  <Heavy Atom Count>
18

>  <Ring Count>
3

>  <Hydrogen Bond Acceptor Count>
3

>  <Hydrogen Bond Donor Count>
3

>  <Rotatable Bond Count>
2

>  <Topological Polar Surface Area>
83.8

>  <Molecular Formula>
C13H16N4O

>  <InChI>
InChI=1S/C13H16N4O/c1-13(6-3-7-15-13)12-16-9-5-2-4-8(11(14)18)10(9)17-12/h2,4-5,15H,3,6-7H2,1H3,(H2,14,18)(H,16,17)/t13-/m1/s1

>  <InChI Key>
JNAHVYVRKWKWKQ-CYBMUJFWSA-N

>  <BindingDB>
209932

>  <PubChem>
11960529

>  <ChEMBL>
CHEMBL506871

$$$$
142
Actelion Java MolfileCreator 2.0

  0  0  0  0  0  0              0 V3000
M  V30 BEGIN CTAB
M  V30 COUNTS 18 20 0 0 0
M  V30 BEGIN ATOM
M  V30 1 O 1.732 -0.5 0.0 0
M  V30 2 C 0.866 0.0 0.0 0
M  V30 3 N 0.866 1.0 0.0 0
M  V30 4 C 0.0 -0.5 0.0 0
M  V30 5 C -0.866 0.0 0.0 0
M  V30 6 C 0.0 -1.4999 0.0 0
M  V30 7 N -1.0739 0.9781 0.0 0
M  V30 8 C -1.732 -0.4999 0.0 0
M  V30 9 C -0.866 -1.9999 0.0 0
M  V30 10 C -2.0684 1.0826 0.0 0
M  V30 11 N -2.4751 0.1691 0.0 0
M  V30 12 C -1.732 -1.4999 0.0 0
M  V30 13 C -2.5684 1.9487 0.0 0 CFG=2
M  V30 14 N -2.1617 2.8622 0.0 0
M  V30 15 C -3.5629 2.0532 0.0 0
M  V30 16 C -3.113 1.11 0.0 0
M  V30 17 C -2.9048 3.5313 0.0 0
M  V30 18 C -3.7708 3.0313 0.0 0
M  V30 END ATOM
M  V30 BEGIN BOND
M  V30 1 2 1 2
M  V30 2 1 2 3
M  V30 3 1 2 4
M  V30 4 2 4 5
M  V30 5 1 4 6
M  V30 6 1 5 7
M  V30 7 1 5 8
M  V30 8 2 6 9
M  V30 9 2 7 10
M  V30 10 1 8 11
M  V30 11 2 8 12
M  V30 12 1 13 10
M  V30 13 1 13 14
M  V30 14 1 13 15
M  V30 15 1 13 16 CFG=3
M  V30 16 1 14 17
M  V30 17 1 15 18
M  V30 18 1 9 12
M  V30 19 1 10 11
M  V30 20 1 17 18
M  V30 END BOND
M  V30 BEGIN COLLECTION
M  V30 MDLV30/STEABS ATOMS=(1 13)
M  V30 END COLLECTION
M  V30 END CTAB
M  END
>  <Molecule Name>
Compound 489

>  <Molecule Name 2>
Compound 489

>  <Compound ID>
142

>  <Name>
Veliparib

>  <Uniprot>
Q9UGN5

>  <Target>
PARP2

>  <Smiles>
C[C@]1(C2=NC3=C(C(N)=O)C=CC=C3[NH]2)CCCN1

>  <Kd (nM)>


>  <Assay (Kd)>


>  <Ki (nM)>


>  <Assay (Ki)>


>  <IC50 (nM)>
17.5

>  <Assay (IC50)>
IC50 of PARP2

>  <EC50 (nM)>


>  <Assay (EC50)>


>  <Article DOI>
10.1021/acs.jmedchem.6b00990

>  <Molecular Weight>
244.298

>  <Exact Mass>
244.1324111

>  <XLogP3>
0.48

>  <Heavy Atom Count>
18

>  <Ring Count>
3

>  <Hydrogen Bond Acceptor Count>
3

>  <Hydrogen Bond Donor Count>
3

>  <Rotatable Bond Count>
2

>  <Topological Polar Surface Area>
83.8

>  <Molecular Formula>
C13H16N4O

>  <InChI>
InChI=1S/C13H16N4O/c1-13(6-3-7-15-13)12-16-9-5-2-4-8(11(14)18)10(9)17-12/h2,4-5,15H,3,6-7H2,1H3,(H2,14,18)(H,16,17)/t13-/m1/s1

>  <InChI Key>
JNAHVYVRKWKWKQ-CYBMUJFWSA-N

>  <BindingDB>
209932

>  <PubChem>
11960529

>  <ChEMBL>
CHEMBL506871

$$$$
143
Actelion Java MolfileCreator 2.0

  0  0  0  0  0  0              0 V3000
M  V30 BEGIN CTAB
M  V30 COUNTS 37 40 0 0 0
M  V30 BEGIN ATOM
M  V30 1 S 12.9903 2.25 0.0 0
M  V30 2 O 13.7403 0.9509 0.0 0
M  V30 3 O 14.4903 2.25 0.0 0
M  V30 4 N 11.6913 1.5 0.0 0
M  V30 5 C 12.9903 3.75 0.0 0
M  V30 6 C 11.6913 0.0 0.0 0
M  V30 7 C 14.2894 4.5 0.0 0
M  V30 8 C 11.6913 4.5 0.0 0
M  V30 9 C 10.3923 -0.75 0.0 0
M  V30 10 C 12.9903 -0.75 0.0 0
M  V30 11 C 14.2894 6.0 0.0 0
M  V30 12 C 11.6913 6.0 0.0 0
M  V30 13 O 9.0932 0.0 0.0 0
M  V30 14 C 10.3923 -2.25 0.0 0
M  V30 15 C 12.9903 -2.25 0.0 0
M  V30 16 O 15.5884 6.75 0.0 0
M  V30 17 C 12.9903 6.75 0.0 0
M  V30 18 C 7.7942 -0.75 0.0 0
M  V30 19 C 11.6913 -3.0 0.0 0
M  V30 20 N 14.1051 -3.2536 0.0 0
M  V30 21 C 15.5884 8.25 0.0 0
M  V30 22 O 12.9903 8.25 0.0 0
M  V30 23 C 6.4951 0.0 0.0 0
M  V30 24 C 7.7942 -2.25 0.0 0
M  V30 25 N 12.0032 -4.4672 0.0 0
M  V30 26 C 13.495 -4.624 0.0 0
M  V30 27 C 15.5723 -2.9418 0.0 0
M  V30 28 C 11.6913 9.0 0.0 0
M  V30 29 C 5.1961 -0.75 0.0 0
M  V30 30 C 6.4951 -3.0 0.0 0
M  V30 31 C 10.9995 -5.5819 0.0 0
M  V30 32 O 14.245 -5.923 0.0 0
M  V30 33 O 3.8971 0.0 0.0 0
M  V30 34 C 5.1961 -2.25 0.0 0
M  V30 35 C 2.598 -0.75 0.0 0
M  V30 36 C 1.299 0.0 0.0 0
M  V30 37 C 0.0 -0.75 0.0 0
M  V30 END ATOM
M  V30 BEGIN BOND
M  V30 1 2 1 2
M  V30 2 2 1 3
M  V30 3 1 1 4
M  V30 4 1 1 5
M  V30 5 1 4 6
M  V30 6 2 5 7
M  V30 7 1 5 8
M  V30 8 2 6 9
M  V30 9 1 6 10
M  V30 10 1 7 11
M  V30 11 2 8 12
M  V30 12 1 9 13
M  V30 13 1 9 14
M  V30 14 2 10 15
M  V30 15 1 11 16
M  V30 16 2 11 17
M  V30 17 1 13 18
M  V30 18 2 14 19
M  V30 19 1 15 20
M  V30 20 1 16 21
M  V30 21 1 17 22
M  V30 22 2 18 23
M  V30 23 1 18 24
M  V30 24 1 19 25
M  V30 25 1 20 26
M  V30 26 1 20 27
M  V30 27 1 22 28
M  V30 28 1 23 29
M  V30 29 2 24 30
M  V30 30 1 25 31
M  V30 31 2 26 32
M  V30 32 1 29 33
M  V30 33 2 29 34
M  V30 34 1 33 35
M  V30 35 1 35 36
M  V30 36 1 36 37
M  V30 37 1 12 17
M  V30 38 1 15 19
M  V30 39 1 25 26
M  V30 40 1 30 34
M  V30 END BOND
M  V30 END CTAB
M  END
>  <Molecule Name>
Compound 490

>  <Molecule Name 2>
Compound 490

>  <Compound ID>
143

>  <Name>
IACS-7e

>  <Uniprot>
O15164

>  <Target>
TRIM24

>  <Smiles>
CCCOC1=CC=CC(OC2=CC3=C(C=C2NS(=O)(=O)C2=CC=C(OC)C(OC)=C2)N(C)C(=O)N3C)=C1

>  <Kd (nM)>


>  <Assay (Kd)>


>  <Ki (nM)>


>  <Assay (Ki)>


>  <IC50 (nM)>
43

>  <Assay (IC50)>
IC50 was tested by the TRIM24 AlphaScreen Assay

>  <EC50 (nM)>


>  <Assay (EC50)>


>  <Article DOI>
10.1021/acs.jmedchem.5b00405

>  <Molecular Weight>
527.599

>  <Exact Mass>
527.1726213

>  <XLogP3>
3.79

>  <Heavy Atom Count>
37

>  <Ring Count>
4

>  <Hydrogen Bond Acceptor Count>
9

>  <Hydrogen Bond Donor Count>
1

>  <Rotatable Bond Count>
10

>  <Topological Polar Surface Area>
110.02

>  <Molecular Formula>
C26H29N3O7S

>  <InChI>
InChI=1S/C26H29N3O7S/c1-6-12-35-17-8-7-9-18(13-17)36-24-16-22-21(28(2)26(30)29(22)3)15-20(24)27-37(31,32)19-10-11-23(33-4)25(14-19)34-5/h7-11,13-16,27H,6,12H2,1-5H3

>  <InChI Key>
DYNNLYLIKZTWRT-UHFFFAOYSA-N

>  <BindingDB>
50150812

>  <PubChem>
118896778

>  <ChEMBL>
CHEMBL3775853

$$$$
144
Actelion Java MolfileCreator 2.0

  0  0  0  0  0  0              0 V3000
M  V30 BEGIN CTAB
M  V30 COUNTS 45 48 0 0 0
M  V30 BEGIN ATOM
M  V30 1 S 10.3923 8.25 0.0 0
M  V30 2 O 11.8922 8.2499 0.0 0
M  V30 3 O 11.1422 9.549 0.0 0
M  V30 4 N 10.3923 6.75 0.0 0
M  V30 5 C 9.0932 9.0 0.0 0
M  V30 6 C 11.6913 6.0 0.0 0
M  V30 7 C 9.0932 10.5 0.0 0
M  V30 8 C 7.7942 8.25 0.0 0
M  V30 9 C 11.6913 4.5 0.0 0
M  V30 10 C 12.9903 6.75 0.0 0
M  V30 11 C 7.7942 11.25 0.0 0
M  V30 12 C 6.4951 9.0 0.0 0
M  V30 13 O 10.3923 3.75 0.0 0
M  V30 14 C 12.9903 3.75 0.0 0
M  V30 15 C 14.2894 6.0 0.0 0
M  V30 16 O 7.7942 12.75 0.0 0
M  V30 17 C 6.4951 10.5 0.0 0
M  V30 18 C 10.3923 2.25 0.0 0
M  V30 19 C 14.2894 4.5 0.0 0
M  V30 20 N 15.716 6.4635 0.0 0
M  V30 21 C 6.4951 13.5 0.0 0
M  V30 22 O 5.1961 11.25 0.0 0
M  V30 23 C 9.0932 1.5 0.0 0
M  V30 24 C 11.6913 1.5 0.0 0
M  V30 25 N 15.716 4.0364 0.0 0
M  V30 26 C 16.5976 5.25 0.0 0
M  V30 27 C 16.1795 7.8901 0.0 0
M  V30 28 C 3.8971 10.5 0.0 0
M  V30 29 C 9.0932 0.0 0.0 0
M  V30 30 C 11.6913 0.0 0.0 0
M  V30 31 C 16.1795 2.6098 0.0 0
M  V30 32 O 18.0976 5.25 0.0 0
M  V30 33 O 7.7942 -0.75 0.0 0
M  V30 34 C 10.3923 -0.75 0.0 0
M  V30 35 O 12.9903 -0.75 0.0 0
M  V30 36 C 6.4951 0.0 0.0 0
M  V30 37 C 14.2894 0.0 0.0 0
M  V30 38 C 5.1961 -0.75 0.0 0
M  V30 39 C 15.5884 -0.75 0.0 0
M  V30 40 C 3.8971 0.0 0.0 0
M  V30 41 C 16.8875 0.0 0.0 0
M  V30 42 C 2.598 -0.75 0.0 0
M  V30 43 N 1.299 0.0 0.0 0
M  V30 44 C 1.299 1.5 0.0 0
M  V30 45 C 0.0 -0.75 0.0 0
M  V30 END ATOM
M  V30 BEGIN BOND
M  V30 1 2 1 2
M  V30 2 2 1 3
M  V30 3 1 1 4
M  V30 4 1 1 5
M  V30 5 1 4 6
M  V30 6 2 5 7
M  V30 7 1 5 8
M  V30 8 2 6 9
M  V30 9 1 6 10
M  V30 10 1 7 11
M  V30 11 2 8 12
M  V30 12 1 9 13
M  V30 13 1 9 14
M  V30 14 2 10 15
M  V30 15 1 11 16
M  V30 16 2 11 17
M  V30 17 1 13 18
M  V30 18 2 14 19
M  V30 19 1 15 20
M  V30 20 1 16 21
M  V30 21 1 17 22
M  V30 22 2 18 23
M  V30 23 1 18 24
M  V30 24 1 19 25
M  V30 25 1 20 26
M  V30 26 1 20 27
M  V30 27 1 22 28
M  V30 28 1 23 29
M  V30 29 2 24 30
M  V30 30 1 25 31
M  V30 31 2 26 32
M  V30 32 1 29 33
M  V30 33 2 29 34
M  V30 34 1 30 35
M  V30 35 1 33 36
M  V30 36 1 35 37
M  V30 37 1 36 38
M  V30 38 1 37 39
M  V30 39 1 38 40
M  V30 40 1 39 41
M  V30 41 1 40 42
M  V30 42 1 42 43
M  V30 43 1 43 44
M  V30 44 1 43 45
M  V30 45 1 12 17
M  V30 46 1 15 19
M  V30 47 1 25 26
M  V30 48 1 30 34
M  V30 END BOND
M  V30 END CTAB
M  END
>  <Molecule Name>
Compound 491

>  <Molecule Name 2>
Compound 491

>  <Compound ID>
144

>  <Name>
IACS-9571

>  <Uniprot>
O15164

>  <Target>
TRIM24

>  <Smiles>
CCCOC1=CC(OCCCCN(C)C)=CC(OC2=CC3=C(C=C2NS(=O)(=O)C2=CC=C(OC)C(OC)=C2)N(C)C(=O)N3C)=C1

>  <Kd (nM)>
31

>  <Assay (Kd)>
ITC

>  <Ki (nM)>


>  <Assay (Ki)>


>  <IC50 (nM)>
8

>  <Assay (IC50)>
IC50 was tested by the TRIM24 AlphaScreen Assay

>  <EC50 (nM)>


>  <Assay (EC50)>


>  <Article DOI>
10.1021/acs.jmedchem.5b00405

>  <Molecular Weight>
642.775

>  <Exact Mass>
642.2723353

>  <XLogP3>
4.51

>  <Heavy Atom Count>
45

>  <Ring Count>
4

>  <Hydrogen Bond Acceptor Count>
11

>  <Hydrogen Bond Donor Count>
1

>  <Rotatable Bond Count>
16

>  <Topological Polar Surface Area>
122.49

>  <Molecular Formula>
C32H42N4O8S

>  <InChI>
InChI=1S/C32H42N4O8S/c1-8-14-42-22-16-23(43-15-10-9-13-34(2)3)18-24(17-22)44-30-21-28-27(35(4)32(37)36(28)5)20-26(30)33-45(38,39)25-11-12-29(40-6)31(19-25)41-7/h11-12,16-21,33H,8-10,13-15H2,1-7H3

>  <InChI Key>
HYQBRUSSCIAOOD-UHFFFAOYSA-N

>  <BindingDB>
50150818

>  <PubChem>
91808039

>  <ChEMBL>
CHEMBL3774575

$$$$
145
Actelion Java MolfileCreator 2.0

  0  0  0  0  0  0              0 V3000
M  V30 BEGIN CTAB
M  V30 COUNTS 50 53 0 0 0
M  V30 BEGIN ATOM
M  V30 1 O 4.3301 0.9999 0.0 0
M  V30 2 C 4.3301 0.0 0.0 0
M  V30 3 O 3.4641 -0.5 0.0 0
M  V30 4 C 5.1961 -0.5 0.0 0 CFG=1
M  V30 5 C 2.598 0.0 0.0 0 CFG=1
M  V30 6 N 6.0621 0.0 0.0 0
M  V30 7 C 5.1961 -1.4999 0.0 0
M  V30 8 C 1.732 -0.5 0.0 0
M  V30 9 C 2.598 0.9999 0.0 0
M  V30 10 C 6.0621 1.0 0.0 0
M  V30 11 C 6.9282 -0.5 0.0 0
M  V30 12 C 6.0621 -1.9999 0.0 0
M  V30 13 C 0.866 0.0 0.0 0
M  V30 14 C 1.732 -1.5 0.0 0
M  V30 15 C 1.732 1.4999 0.0 0
M  V30 16 O 5.1961 1.5 0.0 0
M  V30 17 C 6.9282 1.5 0.0 0 CFG=2
M  V30 18 C 6.9282 -1.4999 0.0 0
M  V30 19 C 0.0 -0.5 0.0 0
M  V30 20 C 0.866 -1.9999 0.0 0
M  V30 21 C 1.732 2.4999 0.0 0
M  V30 22 C 6.9282 2.5 0.0 0
M  V30 23 C 7.7942 1.0 0.0 0
M  V30 24 O -0.866 0.0 0.0 0
M  V30 25 C 0.0 -1.4999 0.0 0
M  V30 26 C 0.866 2.9999 0.0 0
M  V30 27 C 2.598 3.0 0.0 0
M  V30 28 C 7.7942 3.0 0.0 0
M  V30 29 C 6.0621 2.9999 0.0 0
M  V30 30 C 8.6602 1.5 0.0 0
M  V30 31 C -0.866 0.9999 0.0 0
M  V30 32 C 0.866 3.9999 0.0 0
M  V30 33 C 2.598 4.0 0.0 0
M  V30 34 C 7.7942 4.0 0.0 0
M  V30 35 C 6.0621 3.9999 0.0 0
M  V30 36 C -1.732 1.4999 0.0 0
M  V30 37 O 0.0 4.4999 0.0 0
M  V30 38 C 1.732 4.4999 0.0 0
M  V30 39 O 8.6602 4.5 0.0 0
M  V30 40 C 6.9282 4.5 0.0 0
M  V30 41 O 5.1961 4.4999 0.0 0
M  V30 42 O -2.598 0.9999 0.0 0
M  V30 43 O -1.732 2.4999 0.0 0
M  V30 44 C 0.0 5.4999 0.0 0
M  V30 45 O 1.732 5.4999 0.0 0
M  V30 46 C 8.6602 5.5 0.0 0
M  V30 47 O 6.9282 5.5 0.0 0
M  V30 48 C 4.3301 3.9999 0.0 0
M  V30 49 C 2.598 6.0 0.0 0
M  V30 50 C 6.0621 6.0 0.0 0
M  V30 END ATOM
M  V30 BEGIN BOND
M  V30 1 2 1 2
M  V30 2 1 2 3
M  V30 3 1 4 2 CFG=1
M  V30 4 1 5 3 CFG=1
M  V30 5 1 4 6
M  V30 6 1 4 7
M  V30 7 1 5 8
M  V30 8 1 5 9
M  V30 9 1 6 10
M  V30 10 1 6 11
M  V30 11 1 7 12
M  V30 12 2 8 13
M  V30 13 1 8 14
M  V30 14 1 9 15
M  V30 15 2 10 16
M  V30 16 1 17 10
M  V30 17 1 11 18
M  V30 18 1 13 19
M  V30 19 2 14 20
M  V30 20 1 15 21
M  V30 21 1 17 22
M  V30 22 1 17 23 CFG=3
M  V30 23 1 19 24
M  V30 24 2 19 25
M  V30 25 2 21 26
M  V30 26 1 21 27
M  V30 27 2 22 28
M  V30 28 1 22 29
M  V30 29 1 23 30
M  V30 30 1 24 31
M  V30 31 1 26 32
M  V30 32 2 27 33
M  V30 33 1 28 34
M  V30 34 2 29 35
M  V30 35 1 31 36
M  V30 36 1 32 37
M  V30 37 2 32 38
M  V30 38 1 34 39
M  V30 39 2 34 40
M  V30 40 1 35 41
M  V30 41 2 36 42
M  V30 42 1 36 43
M  V30 43 1 37 44
M  V30 44 1 38 45
M  V30 45 1 39 46
M  V30 46 1 40 47
M  V30 47 1 41 48
M  V30 48 1 45 49
M  V30 49 1 47 50
M  V30 50 1 12 18
M  V30 51 1 20 25
M  V30 52 1 33 38
M  V30 53 1 35 40
M  V30 END BOND
M  V30 BEGIN COLLECTION
M  V30 MDLV30/STEABS ATOMS=(3 4 5 17)
M  V30 END COLLECTION
M  V30 END CTAB
M  END
>  <Molecule Name>
Compound 492

>  <Molecule Name 2>
Compound 492

>  <Compound ID>
145

>  <Name>
AP1867

>  <Uniprot>
P62942

>  <Target>
FKBP12 F36V

>  <Smiles>
CC[C@H](C(=O)N1CCCC[C@H]1C(=O)O[C@H](CCC1=CC=C(OC)C(OC)=C1)C1=CC=CC(OCC(=O)O)=C1)C1=CC(OC)=C(OC)C(OC)=C1

>  <Kd (nM)>


>  <Assay (Kd)>


>  <Ki (nM)>


>  <Assay (Ki)>


>  <IC50 (nM)>
2.38

>  <Assay (IC50)>
IC50 was tested by the ligand displacement AlphaScreen experiments

>  <EC50 (nM)>


>  <Assay (EC50)>


>  <Article DOI>
10.1038/s41589-018-0021-8

>  <Molecular Weight>
693.79

>  <Exact Mass>
693.3149113

>  <XLogP3>
6.31

>  <Heavy Atom Count>
50

>  <Ring Count>
4

>  <Hydrogen Bond Acceptor Count>
10

>  <Hydrogen Bond Donor Count>
1

>  <Rotatable Bond Count>
17

>  <Topological Polar Surface Area>
139.29

>  <Molecular Formula>
C38H47NO11

>  <InChI>
InChI=1S/C38H47NO11/c1-7-28(26-21-33(46-4)36(48-6)34(22-26)47-5)37(42)39-18-9-8-13-29(39)38(43)50-30(25-11-10-12-27(20-25)49-23-35(40)41)16-14-24-15-17-31(44-2)32(19-24)45-3/h10-12,15,17,19-22,28-30H,7-9,13-14,16,18,23H2,1-6H3,(H,40,41)/t28-,29-,30+/m0/s1

>  <InChI Key>
XCCRAOPQCACRFC-OIFRRMEBSA-N

>  <BindingDB>
50132541

>  <PubChem>
444590

>  <ChEMBL>
CHEMBL110674

$$$$
146
Actelion Java MolfileCreator 2.0

  0  0  0  0  0  0              0 V3000
M  V30 BEGIN CTAB
M  V30 COUNTS 50 53 0 0 0
M  V30 BEGIN ATOM
M  V30 1 O 4.3301 0.9999 0.0 0
M  V30 2 C 4.3301 0.0 0.0 0
M  V30 3 O 3.4641 -0.5 0.0 0
M  V30 4 C 5.1961 -0.5 0.0 0 CFG=1
M  V30 5 C 2.598 0.0 0.0 0 CFG=1
M  V30 6 N 5.1961 -1.5 0.0 0
M  V30 7 C 6.0621 0.0 0.0 0
M  V30 8 C 2.598 1.0 0.0 0
M  V30 9 C 1.732 -0.5 0.0 0
M  V30 10 C 4.3301 -2.0 0.0 0
M  V30 11 C 6.0621 -1.9999 0.0 0
M  V30 12 C 6.9282 -0.5 0.0 0
M  V30 13 C 1.732 1.4999 0.0 0
M  V30 14 C 3.4641 1.5 0.0 0
M  V30 15 C 1.732 -1.5 0.0 0
M  V30 16 O 3.4641 -1.5 0.0 0
M  V30 17 C 4.3301 -3.0 0.0 0 CFG=2
M  V30 18 C 6.9282 -1.4999 0.0 0
M  V30 19 O 0.866 0.9999 0.0 0
M  V30 20 C 1.732 2.4999 0.0 0
M  V30 21 C 3.4641 2.5 0.0 0
M  V30 22 C 0.866 -2.0 0.0 0
M  V30 23 C 5.1961 -3.4999 0.0 0
M  V30 24 C 3.4641 -3.5 0.0 0
M  V30 25 C 0.0 1.4999 0.0 0
M  V30 26 C 2.598 3.0 0.0 0
M  V30 27 C 0.866 -3.0 0.0 0
M  V30 28 C 0.0 -1.5 0.0 0
M  V30 29 C 5.1961 -4.4999 0.0 0
M  V30 30 C 6.0621 -3.0 0.0 0
M  V30 31 C 3.4641 -4.4999 0.0 0
M  V30 32 C -0.866 0.9999 0.0 0
M  V30 33 C 0.0 -3.5 0.0 0
M  V30 34 C -0.866 -2.0 0.0 0
M  V30 35 C 6.0621 -5.0 0.0 0
M  V30 36 C 6.9282 -3.5 0.0 0
M  V30 37 O -0.866 0.0 0.0 0
M  V30 38 O -1.732 1.4999 0.0 0
M  V30 39 O 0.0 -4.5 0.0 0
M  V30 40 C -0.866 -3.0 0.0 0
M  V30 41 O 6.0621 -6.0 0.0 0
M  V30 42 C 6.9282 -4.5 0.0 0
M  V30 43 O 7.7942 -3.0 0.0 0
M  V30 44 C -0.866 -5.0 0.0 0
M  V30 45 O -1.732 -3.5 0.0 0
M  V30 46 C 6.9282 -6.5 0.0 0
M  V30 47 O 7.7942 -5.0 0.0 0
M  V30 48 C 7.7942 -1.9999 0.0 0
M  V30 49 C -2.598 -3.0 0.0 0
M  V30 50 C 8.6602 -4.4999 0.0 0
M  V30 END ATOM
M  V30 BEGIN BOND
M  V30 1 2 1 2
M  V30 2 1 2 3
M  V30 3 1 4 2 CFG=3
M  V30 4 1 5 3 CFG=3
M  V30 5 1 4 6
M  V30 6 1 4 7
M  V30 7 1 5 8
M  V30 8 1 5 9
M  V30 9 1 6 10
M  V30 10 1 6 11
M  V30 11 1 7 12
M  V30 12 2 8 13
M  V30 13 1 8 14
M  V30 14 1 9 15
M  V30 15 2 10 16
M  V30 16 1 17 10
M  V30 17 1 11 18
M  V30 18 1 13 19
M  V30 19 1 13 20
M  V30 20 2 14 21
M  V30 21 1 15 22
M  V30 22 1 17 23
M  V30 23 1 17 24 CFG=3
M  V30 24 1 19 25
M  V30 25 2 20 26
M  V30 26 2 22 27
M  V30 27 1 22 28
M  V30 28 2 23 29
M  V30 29 1 23 30
M  V30 30 1 24 31
M  V30 31 1 25 32
M  V30 32 1 27 33
M  V30 33 2 28 34
M  V30 34 1 29 35
M  V30 35 2 30 36
M  V30 36 2 32 37
M  V30 37 1 32 38
M  V30 38 1 33 39
M  V30 39 2 33 40
M  V30 40 1 35 41
M  V30 41 2 35 42
M  V30 42 1 36 43
M  V30 43 1 39 44
M  V30 44 1 40 45
M  V30 45 1 41 46
M  V30 46 1 42 47
M  V30 47 1 43 48
M  V30 48 1 45 49
M  V30 49 1 47 50
M  V30 50 1 12 18
M  V30 51 1 21 26
M  V30 52 1 34 40
M  V30 53 1 36 42
M  V30 END BOND
M  V30 BEGIN COLLECTION
M  V30 MDLV30/STEABS ATOMS=(3 4 5 17)
M  V30 END COLLECTION
M  V30 END CTAB
M  END
>  <Molecule Name>
Compound 493

>  <Molecule Name 2>
Compound 493

>  <Compound ID>
146

>  <Name>
ortho-AP1867

>  <Uniprot>
P62942

>  <Target>
FKBP12 F36V

>  <Smiles>
CC[C@H](C(=O)N1CCCC[C@H]1C(=O)O[C@H](CCC1=CC=C(OC)C(OC)=C1)C1=CC=CC=C1OCC(=O)O)C1=CC(OC)=C(OC)C(OC)=C1

>  <Kd (nM)>


>  <Assay (Kd)>


>  <Ki (nM)>


>  <Assay (Ki)>


>  <IC50 (nM)>
204.4

>  <Assay (IC50)>
IC50 was tested by the ligand displacement AlphaScreen experiments

>  <EC50 (nM)>


>  <Assay (EC50)>


>  <Article DOI>
10.1038/s41589-018-0021-8

>  <Molecular Weight>
693.79

>  <Exact Mass>
693.3149113

>  <XLogP3>
6.31

>  <Heavy Atom Count>
50

>  <Ring Count>
4

>  <Hydrogen Bond Acceptor Count>
10

>  <Hydrogen Bond Donor Count>
1

>  <Rotatable Bond Count>
17

>  <Topological Polar Surface Area>
139.29

>  <Molecular Formula>
C38H47NO11

>  <InChI>
InChI=1S/C38H47NO11/c1-7-26(25-21-33(46-4)36(48-6)34(22-25)47-5)37(42)39-19-11-10-13-28(39)38(43)50-30(27-12-8-9-14-29(27)49-23-35(40)41)17-15-24-16-18-31(44-2)32(20-24)45-3/h8-9,12,14,16,18,20-22,26,28,30H,7,10-11,13,15,17,19,23H2,1-6H3,(H,40,41)/t26-,28-,30+/m0/s1

>  <InChI Key>
UYXSZUBFOQLRNQ-BTIIJPOSSA-N

>  <BindingDB>


>  <PubChem>
133080821

>  <ChEMBL>


$$$$
147
Actelion Java MolfileCreator 2.0

  0  0  0  0  0  0              0 V3000
M  V30 BEGIN CTAB
M  V30 COUNTS 51 52 0 0 0
M  V30 BEGIN ATOM
M  V30 1 O 5.1961 -1.4999 0.0 0
M  V30 2 C 5.1961 -0.5 0.0 0
M  V30 3 N 6.0621 0.0 0.0 0
M  V30 4 C 4.3301 0.0 0.0 0 CFG=1
M  V30 5 C 6.9282 -0.5 0.0 0 CFG=2
M  V30 6 C 6.0621 0.9999 0.0 0
M  V30 7 N 3.4641 -0.5 0.0 0
M  V30 8 C 4.3301 1.0 0.0 0
M  V30 9 C 7.7942 0.0 0.0 0 CFG=2
M  V30 10 C 6.9282 -1.4999 0.0 0 CFG=2
M  V30 11 C 2.598 0.0 0.0 0
M  V30 12 C 5.1961 1.4999 0.0 0
M  V30 13 C 3.4641 1.5 0.0 0
M  V30 14 O 7.7942 1.0 0.0 0
M  V30 15 C 8.6602 -0.5 0.0 0
M  V30 16 C 6.0621 -2.0 0.0 0
M  V30 17 C 7.7942 -2.0 0.0 0
M  V30 18 O 2.598 1.0 0.0 0
M  V30 19 C 1.732 -0.5 0.0 0 CFG=1
M  V30 20 C 6.9282 1.5 0.0 0
M  V30 21 C 9.5262 0.0 0.0 0
M  V30 22 C 6.0621 -2.9999 0.0 0
M  V30 23 N 1.732 -1.5 0.0 0
M  V30 24 C 0.866 0.0 0.0 0
M  V30 25 O 10.3923 -0.5 0.0 0
M  V30 26 N 9.5262 1.0 0.0 0
M  V30 27 C 2.598 -1.9999 0.0 0
M  V30 28 C 0.866 1.0 0.0 0
M  V30 29 C 0.0 -0.5 0.0 0
M  V30 30 C 10.3352 1.5877 0.0 0 CFG=2
M  V30 31 C 8.7172 1.5877 0.0 0
M  V30 32 C 11.2863 1.2787 0.0 0 CFG=2
M  V30 33 C 10.0262 2.5388 0.0 0
M  V30 34 C 9.0262 2.5388 0.0 0
M  V30 35 O 11.4942 0.3006 0.0 0
M  V30 36 C 12.0294 1.9478 0.0 0 CFG=2
M  V30 37 C 12.4453 -0.0083 0.0 0
M  V30 38 C 11.8215 2.926 0.0 0
M  V30 39 C 12.9805 1.6388 0.0 0
M  V30 40 O 10.8705 3.235 0.0 0
M  V30 41 N 12.5647 3.5951 0.0 0
M  V30 42 C 12.3568 4.5733 0.0 0 CFG=1
M  V30 43 C 13.0999 5.2424 0.0 0 CFG=1
M  V30 44 C 11.4057 4.8823 0.0 0
M  V30 45 O 14.051 4.9334 0.0 0
M  V30 46 C 12.892 6.2206 0.0 0
M  V30 47 C 13.6351 6.8897 0.0 0
M  V30 48 C 11.9409 6.5296 0.0 0
M  V30 49 C 13.4272 7.8678 0.0 0
M  V30 50 C 11.733 7.5077 0.0 0
M  V30 51 C 12.4762 8.1768 0.0 0
M  V30 END ATOM
M  V30 BEGIN BOND
M  V30 1 2 1 2
M  V30 2 1 2 3
M  V30 3 1 4 2
M  V30 4 1 5 3 CFG=3
M  V30 5 1 3 6
M  V30 6 1 4 7 CFG=1
M  V30 7 1 4 8
M  V30 8 1 9 5
M  V30 9 1 10 5
M  V30 10 1 7 11
M  V30 11 1 8 12
M  V30 12 1 8 13
M  V30 13 1 9 14 CFG=3
M  V30 14 1 9 15
M  V30 15 1 10 16
M  V30 16 1 10 17 CFG=1
M  V30 17 2 11 18
M  V30 18 1 19 11
M  V30 19 1 14 20
M  V30 20 1 15 21
M  V30 21 1 16 22
M  V30 22 1 19 23 CFG=1
M  V30 23 1 19 24
M  V30 24 2 21 25
M  V30 25 1 21 26
M  V30 26 1 23 27
M  V30 27 1 24 28
M  V30 28 1 24 29
M  V30 29 1 30 26 CFG=1
M  V30 30 1 26 31
M  V30 31 1 32 30
M  V30 32 1 30 33
M  V30 33 1 31 34
M  V30 34 1 32 35 CFG=1
M  V30 35 1 36 32
M  V30 36 1 35 37
M  V30 37 1 36 38
M  V30 38 1 36 39 CFG=3
M  V30 39 2 38 40
M  V30 40 1 38 41
M  V30 41 1 42 41 CFG=3
M  V30 42 1 43 42
M  V30 43 1 42 44
M  V30 44 1 43 45 CFG=3
M  V30 45 1 43 46
M  V30 46 2 46 47
M  V30 47 1 46 48
M  V30 48 1 47 49
M  V30 49 2 48 50
M  V30 50 2 49 51
M  V30 51 1 33 34
M  V30 52 1 50 51
M  V30 END BOND
M  V30 BEGIN COLLECTION
M  V30 MDLV30/STEABS ATOMS=(10 4 5 9 10 19 30 32 36 42 43)
M  V30 END COLLECTION
M  V30 END CTAB
M  END
>  <Molecule Name>
Compound 494

>  <Molecule Name 2>
Compound 494

>  <Compound ID>
147

>  <Name>
MMAE

>  <Uniprot>


>  <Target>
Tubulin

>  <Smiles>
CC[C@H](C)[C@@H]([C@@H](CC(=O)N1CCC[C@H]1[C@H](OC)[C@@H](C)C(=O)N[C@H](C)[C@@H](O)C1=CC=CC=C1)OC)N(C)C(=O)[C@@H](NC(=O)[C@@H](NC)C(C)C)C(C)C

>  <Kd (nM)>


>  <Assay (Kd)>


>  <Ki (nM)>


>  <Assay (Ki)>


>  <IC50 (nM)>


>  <Assay (IC50)>


>  <EC50 (nM)>


>  <Assay (EC50)>


>  <Article DOI>
10.3390/cells9051083

>  <Molecular Weight>
717.993

>  <Exact Mass>
717.5040495

>  <XLogP3>
4.08

>  <Heavy Atom Count>
51

>  <Ring Count>
2

>  <Hydrogen Bond Acceptor Count>
8

>  <Hydrogen Bond Donor Count>
4

>  <Rotatable Bond Count>
20

>  <Topological Polar Surface Area>
149.54

>  <Molecular Formula>
C39H67N5O7

>  <InChI>
InChI=1S/C39H67N5O7/c1-13-25(6)34(43(10)39(49)33(24(4)5)42-38(48)32(40-9)23(2)3)30(50-11)22-31(45)44-21-17-20-29(44)36(51-12)26(7)37(47)41-27(8)35(46)28-18-15-14-16-19-28/h14-16,18-19,23-27,29-30,32-36,40,46H,13,17,20-22H2,1-12H3,(H,41,47)(H,42,48)/t25-,26+,27+,29-,30+,32-,33-,34-,35+,36+/m0/s1

>  <InChI Key>
DASWEROEPLKSEI-UIJRFTGLSA-N

>  <BindingDB>


>  <PubChem>
11542188

>  <ChEMBL>
CHEMBL2103835

$$$$
148
Actelion Java MolfileCreator 2.0

  0  0  0  0  0  0              0 V3000
M  V30 BEGIN CTAB
M  V30 COUNTS 23 24 0 0 0
M  V30 BEGIN ATOM
M  V30 1 O 5.1961 1.5 0.0 0
M  V30 2 C 4.3301 1.0 0.0 0
M  V30 3 C 5.1961 2.5 0.0 0
M  V30 4 C 3.4641 1.5 0.0 0
M  V30 5 C 4.3301 0.0 0.0 0
M  V30 6 O 3.4641 2.5 0.0 0
M  V30 7 C 2.598 0.9999 0.0 0
M  V30 8 O 5.1961 -0.4999 0.0 0
M  V30 9 C 3.4641 -0.4999 0.0 0
M  V30 10 C 2.598 3.0 0.0 0
M  V30 11 C 2.598 0.0 0.0 0
M  V30 12 C 6.0621 0.0 0.0 0
M  V30 13 C 1.732 -0.5 0.0 0
M  V30 14 C 0.866 0.0 0.0 0
M  V30 15 C 0.866 0.9999 0.0 0
M  V30 16 C 0.0 1.4999 0.0 0
M  V30 17 C 1.732 1.5 0.0 0
M  V30 18 C 0.0 2.4999 0.0 0
M  V30 19 C 1.732 2.5 0.0 0
M  V30 20 O -0.866 2.9999 0.0 0
M  V30 21 C 0.866 3.0 0.0 0
M  V30 22 O 0.866 4.0 0.0 0
M  V30 23 C 1.732 4.5 0.0 0
M  V30 END ATOM
M  V30 BEGIN BOND
M  V30 1 1 1 2
M  V30 2 1 1 3
M  V30 3 2 2 4
M  V30 4 1 2 5
M  V30 5 1 4 6
M  V30 6 1 4 7
M  V30 7 1 5 8
M  V30 8 2 5 9
M  V30 9 1 6 10
M  V30 10 2 7 11
M  V30 11 1 8 12
M  V30 12 1 11 13
M  V30 13 2 13 14
M  V30 14 1 14 15
M  V30 15 2 15 16
M  V30 16 1 15 17
M  V30 17 1 16 18
M  V30 18 2 17 19
M  V30 19 1 18 20
M  V30 20 2 18 21
M  V30 21 1 21 22
M  V30 22 1 22 23
M  V30 23 1 9 11
M  V30 24 1 19 21
M  V30 END BOND
M  V30 END CTAB
M  END
>  <Molecule Name>
Compound 495

>  <Molecule Name 2>
Compound 495

>  <Compound ID>
148

>  <Name>
combretastatin A-4

>  <Uniprot>


>  <Target>
Tubulin

>  <Smiles>
COC1=CC=C(/C=C\C2=CC(OC)=C(OC)C(OC)=C2)C=C1O

>  <Kd (nM)>


>  <Assay (Kd)>


>  <Ki (nM)>


>  <Assay (Ki)>


>  <IC50 (nM)>
1200

>  <Assay (IC50)>
Inhibition of tubulin polymerization

>  <EC50 (nM)>


>  <Assay (EC50)>


>  <Article DOI>
10.1021/jm0205797

>  <Molecular Weight>
316.353

>  <Exact Mass>
316.1310737

>  <XLogP3>
3.72

>  <Heavy Atom Count>
23

>  <Ring Count>
2

>  <Hydrogen Bond Acceptor Count>
5

>  <Hydrogen Bond Donor Count>
1

>  <Rotatable Bond Count>
6

>  <Topological Polar Surface Area>
57.15

>  <Molecular Formula>
C18H20O5

>  <InChI>
InChI=1S/C18H20O5/c1-20-15-8-7-12(9-14(15)19)5-6-13-10-16(21-2)18(23-4)17(11-13)22-3/h5-11,19H,1-4H3/b6-5-

>  <InChI Key>
HVXBOLULGPECHP-WAYWQWQTSA-N

>  <BindingDB>
50005480

>  <PubChem>
5351344

>  <ChEMBL>


$$$$
149
Actelion Java MolfileCreator 2.0

  0  0  0  0  0  0              0 V3000
M  V30 BEGIN CTAB
M  V30 COUNTS 20 23 0 0 0
M  V30 BEGIN ATOM
M  V30 1 F 1.299 0.0 0.0 0 MASS=18
M  V30 2 C 0.0 -0.75 0.0 0
M  V30 3 N -1.299 0.0 0.0 0
M  V30 4 C 0.0 -2.25 0.0 0
M  V30 5 C -2.598 -0.7499 0.0 0
M  V30 6 C -1.299 -2.9999 0.0 0
M  V30 7 C -2.598 -2.2499 0.0 0
M  V30 8 C -3.8971 -2.9999 0.0 0
M  V30 9 C -5.1961 -2.2499 0.0 0
M  V30 10 C -3.8971 -4.4999 0.0 0
M  V30 11 C -6.4951 -2.9999 0.0 0
M  V30 12 C -5.1961 -5.2499 0.0 0
M  V30 13 N -7.9217 -2.5364 0.0 0
M  V30 14 C -6.4951 -4.4999 0.0 0
M  V30 15 C -8.8034 -3.7499 0.0 0
M  V30 16 C -7.9217 -4.9635 0.0 0
M  V30 17 C -10.2952 -3.9067 0.0 0
M  V30 18 C -8.5318 -6.3338 0.0 0
M  V30 19 C -10.9053 -5.2771 0.0 0
M  V30 20 N -10.0236 -6.4906 0.0 0
M  V30 END ATOM
M  V30 BEGIN BOND
M  V30 1 1 1 2
M  V30 2 2 2 3
M  V30 3 1 2 4
M  V30 4 1 3 5
M  V30 5 2 4 6
M  V30 6 2 5 7
M  V30 7 1 7 8
M  V30 8 2 8 9
M  V30 9 1 8 10
M  V30 10 1 9 11
M  V30 11 2 10 12
M  V30 12 1 11 13
M  V30 13 2 11 14
M  V30 14 1 13 15
M  V30 15 1 14 16
M  V30 16 1 15 17
M  V30 17 1 16 18
M  V30 18 2 17 19
M  V30 19 2 18 20
M  V30 20 1 6 7
M  V30 21 1 12 14
M  V30 22 2 15 16
M  V30 23 1 19 20
M  V30 END BOND
M  V30 END CTAB
M  END
>  <Molecule Name>
Compound 496

>  <Molecule Name 2>
Compound 496

>  <Compound ID>
149

>  <Name>
18F-T807

>  <Uniprot>
P10636

>  <Target>
Tau

>  <Smiles>
[18F]C1=CC=C(C2=CC=C3C(=C2)[NH]C2=CC=NC=C23)C=N1

>  <Kd (nM)>
1800/2100/1700

>  <Assay (Kd)>
Kd of Tau WT/A152T/P301L was tested using the BLI assay

>  <Ki (nM)>


>  <Assay (Ki)>


>  <IC50 (nM)>


>  <Assay (IC50)>


>  <EC50 (nM)>


>  <Assay (EC50)>


>  <Article DOI>
10.7554/eLife.45457

>  <Molecular Weight>
262.277938

>  <Exact Mass>
262.0884103

>  <XLogP3>
3.31

>  <Heavy Atom Count>
20

>  <Ring Count>
4

>  <Hydrogen Bond Acceptor Count>
2

>  <Hydrogen Bond Donor Count>
1

>  <Rotatable Bond Count>
1

>  <Topological Polar Surface Area>
41.57

>  <Molecular Formula>
C16H10FN3

>  <InChI>
InChI=1S/C16H10FN3/c17-16-4-2-11(8-19-16)10-1-3-12-13-9-18-6-5-14(13)20-15(12)7-10/h1-9,20H/i17-1

>  <InChI Key>
GETAAWDSFUCLBS-SJPDSGJFSA-N

>  <BindingDB>


>  <PubChem>
70957463

>  <ChEMBL>
CHEMBL3545253

$$$$
150
Actelion Java MolfileCreator 2.0

  0  0  0  0  0  0              0 V3000
M  V30 BEGIN CTAB
M  V30 COUNTS 36 39 0 0 0
M  V30 BEGIN ATOM
M  V30 1 Cl 0.866 -2.9999 0.0 0
M  V30 2 C 1.732 -3.4999 0.0 0
M  V30 3 C 1.732 -4.4999 0.0 0
M  V30 4 C 2.598 -2.9999 0.0 0
M  V30 5 Cl 0.866 -4.9999 0.0 0
M  V30 6 C 2.598 -4.9999 0.0 0
M  V30 7 C 3.4641 -3.4999 0.0 0
M  V30 8 C 3.4641 -4.4999 0.0 0
M  V30 9 C 4.3301 -2.9999 0.0 0
M  V30 10 C 4.3301 -1.9999 0.0 0
M  V30 11 C 5.1961 -1.5 0.0 0
M  V30 12 C 3.4641 -1.5 0.0 0
M  V30 13 O 6.0621 -2.0 0.0 0
M  V30 14 C 5.1961 -0.5 0.0 0
M  V30 15 N 3.4641 -0.5 0.0 0
M  V30 16 C 6.0621 0.0 0.0 0
M  V30 17 C 4.3301 0.0 0.0 0
M  V30 18 C 2.598 0.0 0.0 0
M  V30 19 C 6.0621 0.9999 0.0 0
M  V30 20 O 2.598 1.0 0.0 0
M  V30 21 C 1.732 -0.5 0.0 0 CFG=1
M  V30 22 C 6.9282 1.4999 0.0 0
M  V30 23 C 5.1961 1.5 0.0 0
M  V30 24 N 1.732 -1.5 0.0 0
M  V30 25 C 0.866 0.0 0.0 0
M  V30 26 C 6.9282 2.4999 0.0 0
M  V30 27 C 5.1961 2.5 0.0 0
M  V30 28 C 0.0 -0.5 0.0 0
M  V30 29 Cl 7.7942 2.9999 0.0 0
M  V30 30 C 6.0621 2.9999 0.0 0
M  V30 31 C -0.866 0.0 0.0 0
M  V30 32 C 0.0 -1.4999 0.0 0
M  V30 33 Cl 6.0621 3.9999 0.0 0
M  V30 34 C -1.732 -0.4999 0.0 0
M  V30 35 C -0.866 -1.9999 0.0 0
M  V30 36 C -1.732 -1.4999 0.0 0
M  V30 END ATOM
M  V30 BEGIN BOND
M  V30 1 1 1 2
M  V30 2 2 2 3
M  V30 3 1 2 4
M  V30 4 1 3 5
M  V30 5 1 3 6
M  V30 6 2 4 7
M  V30 7 2 6 8
M  V30 8 1 7 9
M  V30 9 2 9 10
M  V30 10 1 10 11
M  V30 11 1 10 12
M  V30 12 2 11 13
M  V30 13 1 11 14
M  V30 14 1 12 15
M  V30 15 2 14 16
M  V30 16 1 14 17
M  V30 17 1 15 18
M  V30 18 1 16 19
M  V30 19 2 18 20
M  V30 20 1 21 18
M  V30 21 2 19 22
M  V30 22 1 19 23
M  V30 23 1 21 24 CFG=1
M  V30 24 1 21 25
M  V30 25 1 22 26
M  V30 26 2 23 27
M  V30 27 1 25 28
M  V30 28 1 26 29
M  V30 29 2 26 30
M  V30 30 2 28 31
M  V30 31 1 28 32
M  V30 32 1 30 33
M  V30 33 1 31 34
M  V30 34 2 32 35
M  V30 35 2 34 36
M  V30 36 1 7 8
M  V30 37 1 15 17
M  V30 38 1 27 30
M  V30 39 1 35 36
M  V30 END BOND
M  V30 BEGIN COLLECTION
M  V30 MDLV30/STEABS ATOMS=(1 21)
M  V30 END COLLECTION
M  V30 END CTAB
M  END
>  <Molecule Name>
Compound 497

>  <Molecule Name 2>
Compound 497

>  <Compound ID>
150

>  <Name>
RA190

>  <Uniprot>
Q16186

>  <Target>
Rpn13

>  <Smiles>
N[C@@H](CC1=CC=CC=C1)C(=O)N1C/C(=C\C2=CC=C(Cl)C(Cl)=C2)C(=O)/C(=C/C2=CC=C(Cl)C(Cl)=C2)C1

>  <Kd (nM)>


>  <Assay (Kd)>


>  <Ki (nM)>


>  <Assay (Ki)>


>  <IC50 (nM)>
35

>  <Assay (IC50)>
Inhibit proliferation of MM.1S cells

>  <EC50 (nM)>


>  <Assay (EC50)>


>  <Article DOI>
10.1016/j.ccr.2013.11.001

>  <Molecular Weight>
560.308

>  <Exact Mass>
558.0435387

>  <XLogP3>
6.69

>  <Heavy Atom Count>
36

>  <Ring Count>
4

>  <Hydrogen Bond Acceptor Count>
3

>  <Hydrogen Bond Donor Count>
1

>  <Rotatable Bond Count>
5

>  <Topological Polar Surface Area>
63.4

>  <Molecular Formula>
C28H22Cl4N2O2

>  <InChI>
InChI=1S/C28H22Cl4N2O2/c29-22-8-6-18(12-24(22)31)10-20-15-34(28(36)26(33)14-17-4-2-1-3-5-17)16-21(27(20)35)11-19-7-9-23(30)25(32)13-19/h1-13,26H,14-16,33H2/b20-10+,21-11+/t26-/m0/s1

>  <InChI Key>
IYJSFPQYTFFTKN-KJRZKRENSA-N

>  <BindingDB>


>  <PubChem>
86302131

>  <ChEMBL>


$$$$
151
Actelion Java MolfileCreator 2.0

  0  0  0  0  0  0              0 V3000
M  V30 BEGIN CTAB
M  V30 COUNTS 26 29 0 0 0
M  V30 BEGIN ATOM
M  V30 1 O 1.299 0.0 0.0 0
M  V30 2 C 2.598 -0.75 0.0 0
M  V30 3 C 0.0 -0.75 0.0 0
M  V30 4 C 2.598 -2.25 0.0 0
M  V30 5 C 3.8971 0.0 0.0 0
M  V30 6 C 3.8971 -3.0 0.0 0
M  V30 7 C 5.1961 -0.75 0.0 0
M  V30 8 C 5.1961 -2.25 0.0 0
M  V30 9 N 6.4951 -3.0 0.0 0
M  V30 10 C 7.7942 -2.25 0.0 0
M  V30 11 N 9.0932 -3.0 0.0 0
M  V30 12 N 7.7942 -0.75 0.0 0
M  V30 13 C 10.3923 -2.25 0.0 0
M  V30 14 C 9.0932 0.0 0.0 0
M  V30 15 N 11.6913 -3.0 0.0 0
M  V30 16 C 10.3923 -0.75 0.0 0
M  V30 17 C 12.9903 -2.25 0.0 0
M  V30 18 C 14.2894 -3.0 0.0 0
M  V30 19 C 12.9903 -0.75 0.0 0
M  V30 20 N 15.5884 -2.25 0.0 0
M  V30 21 C 14.2894 0.0 0.0 0
M  V30 22 C 15.5884 -0.75 0.0 0
M  V30 23 C 14.2894 1.4999 0.0 0
M  V30 24 C 16.8874 0.0 0.0 0
M  V30 25 C 15.5884 2.2499 0.0 0
M  V30 26 C 16.8874 1.4999 0.0 0
M  V30 END ATOM
M  V30 BEGIN BOND
M  V30 1 1 1 2
M  V30 2 1 1 3
M  V30 3 2 2 4
M  V30 4 1 2 5
M  V30 5 1 4 6
M  V30 6 2 5 7
M  V30 7 2 6 8
M  V30 8 1 8 9
M  V30 9 1 9 10
M  V30 10 2 10 11
M  V30 11 1 10 12
M  V30 12 1 11 13
M  V30 13 2 12 14
M  V30 14 1 13 15
M  V30 15 2 13 16
M  V30 16 1 15 17
M  V30 17 1 17 18
M  V30 18 2 17 19
M  V30 19 2 18 20
M  V30 20 1 19 21
M  V30 21 1 20 22
M  V30 22 2 21 23
M  V30 23 2 22 24
M  V30 24 1 23 25
M  V30 25 1 24 26
M  V30 26 1 7 8
M  V30 27 1 14 16
M  V30 28 1 21 22
M  V30 29 2 25 26
M  V30 END BOND
M  V30 END CTAB
M  END
>  <Molecule Name>
Compound 498

>  <Molecule Name 2>
Compound 498

>  <Compound ID>
151

>  <Name>


>  <Uniprot>
P08069

>  <Target>
IGF-1R

>  <Smiles>
COC1=CC=C(NC2=NC=CC(NC3=CN=C4C=CC=CC4=C3)=N2)C=C1

>  <Kd (nM)>


>  <Assay (Kd)>


>  <Ki (nM)>


>  <Assay (Ki)>


>  <IC50 (nM)>
55

>  <Assay (IC50)>
Inhibition of IGF-1R

>  <EC50 (nM)>


>  <Assay (EC50)>


>  <Article DOI>
10.1016/j.bmcl.2011.02.075

>  <Molecular Weight>
343.39

>  <Exact Mass>
343.1433102

>  <XLogP3>
4.19

>  <Heavy Atom Count>
26

>  <Ring Count>
4

>  <Hydrogen Bond Acceptor Count>
6

>  <Hydrogen Bond Donor Count>
2

>  <Rotatable Bond Count>
5

>  <Topological Polar Surface Area>
71.96

>  <Molecular Formula>
C20H17N5O

>  <InChI>
InChI=1S/C20H17N5O/c1-26-17-8-6-15(7-9-17)24-20-21-11-10-19(25-20)23-16-12-14-4-2-3-5-18(14)22-13-16/h2-13H,1H3,(H2,21,23,24,25)

>  <InChI Key>
AFGXLUJVZOJZCS-UHFFFAOYSA-N

>  <BindingDB>
50340137

>  <PubChem>
9967928

>  <ChEMBL>
CHEMBL1760051

$$$$
152
Actelion Java MolfileCreator 2.0

  0  0  0  0  0  0              0 V3000
M  V30 BEGIN CTAB
M  V30 COUNTS 21 23 0 0 0
M  V30 BEGIN ATOM
M  V30 1 Cl 3.4641 1.4999 0.0 0
M  V30 2 C 2.598 0.9999 0.0 0
M  V30 3 C 1.732 1.4999 0.0 0
M  V30 4 C 2.598 0.0 0.0 0
M  V30 5 C 0.866 0.9999 0.0 0
M  V30 6 C 1.732 -0.5 0.0 0
M  V30 7 C 0.866 0.0 0.0 0
M  V30 8 C 0.0 -0.5 0.0 0
M  V30 9 N -0.9135 -0.0932 0.0 0
M  V30 10 C -0.1045 -1.4945 0.0 0
M  V30 11 N -1.5826 -0.8364 0.0 0
M  V30 12 C 0.5646 -2.2376 0.0 0
M  V30 13 C -1.0826 -1.7024 0.0 0
M  V30 14 C -2.5771 -0.7318 0.0 0
M  V30 15 N 0.2555 -3.1887 0.0 0
M  V30 16 N 1.5427 -2.0297 0.0 0
M  V30 17 N -1.3916 -2.6534 0.0 0
M  V30 18 C -2.6817 -1.7264 0.0 0
M  V30 19 C -3.5717 -0.6273 0.0 0
M  V30 20 C -2.4726 0.2626 0.0 0
M  V30 21 C -0.7225 -3.3966 0.0 0
M  V30 END ATOM
M  V30 BEGIN BOND
M  V30 1 1 1 2
M  V30 2 2 2 3
M  V30 3 1 2 4
M  V30 4 1 3 5
M  V30 5 2 4 6
M  V30 6 2 5 7
M  V30 7 1 7 8
M  V30 8 2 8 9
M  V30 9 1 8 10
M  V30 10 1 9 11
M  V30 11 2 10 12
M  V30 12 1 10 13
M  V30 13 1 11 14
M  V30 14 1 12 15
M  V30 15 1 12 16
M  V30 16 2 13 17
M  V30 17 1 14 18
M  V30 18 1 14 19
M  V30 19 1 14 20
M  V30 20 2 15 21
M  V30 21 1 6 7
M  V30 22 1 11 13
M  V30 23 1 17 21
M  V30 END BOND
M  V30 END CTAB
M  END
>  <Molecule Name>
Compound 499

>  <Molecule Name 2>
Compound 499

>  <Compound ID>
152

>  <Name>
PP2

>  <Uniprot>
P12931

>  <Target>
Src

>  <Smiles>
CC(C)(C)N1N=C(C2=CC=C(Cl)C=C2)C2=C(N)N=CN=C21

>  <Kd (nM)>


>  <Assay (Kd)>


>  <Ki (nM)>


>  <Assay (Ki)>


>  <IC50 (nM)>
2.8

>  <Assay (IC50)>
IC50 of Src was determined by HTScan Src Kinase Assay Kit

>  <EC50 (nM)>


>  <Assay (EC50)>


>  <Article DOI>
10.1016/j.bmcl.2011.01.047

>  <Molecular Weight>
301.781

>  <Exact Mass>
301.1094232

>  <XLogP3>
3.02

>  <Heavy Atom Count>
21

>  <Ring Count>
3

>  <Hydrogen Bond Acceptor Count>
5

>  <Hydrogen Bond Donor Count>
1

>  <Rotatable Bond Count>
1

>  <Topological Polar Surface Area>
69.62

>  <Molecular Formula>
C15H16ClN5

>  <InChI>
InChI=1S/C15H16ClN5/c1-15(2,3)21-14-11(13(17)18-8-19-14)12(20-21)9-4-6-10(16)7-5-9/h4-8H,1-3H3,(H2,17,18,19)

>  <InChI Key>
PBBRWFOVCUAONR-UHFFFAOYSA-N

>  <BindingDB>
50142887

>  <PubChem>
4878

>  <ChEMBL>
CHEMBL406845

$$$$
153
Actelion Java MolfileCreator 2.0

  0  0  0  0  0  0              0 V3000
M  V30 BEGIN CTAB
M  V30 COUNTS 29 33 0 0 0
M  V30 BEGIN ATOM
M  V30 1 F 2.598 1.0 0.0 0
M  V30 2 C 2.598 0.0 0.0 0
M  V30 3 C 1.732 -0.5 0.0 0
M  V30 4 C 3.4641 -0.4999 0.0 0
M  V30 5 N 1.732 -1.5 0.0 0
M  V30 6 N 0.866 0.0 0.0 0
M  V30 7 N 3.4641 -1.4999 0.0 0
M  V30 8 C 2.598 -1.9999 0.0 0
M  V30 9 C 0.0 -0.5 0.0 0
M  V30 10 N 2.598 -2.9999 0.0 0
M  V30 11 N -0.9135 -0.0932 0.0 0
M  V30 12 C -0.1045 -1.4945 0.0 0
M  V30 13 C 3.4641 -3.4999 0.0 0
M  V30 14 N -1.5826 -0.8364 0.0 0
M  V30 15 C -1.0826 -1.7024 0.0 0
M  V30 16 C 3.4641 -4.4999 0.0 0
M  V30 17 C 4.3301 -2.9999 0.0 0
M  V30 18 C -1.4894 -2.6159 0.0 0
M  V30 19 C 4.3301 -4.9999 0.0 0
M  V30 20 C 5.1961 -3.4999 0.0 0
M  V30 21 C -2.2984 -3.2037 0.0 0
M  V30 22 C -1.3848 -3.6105 0.0 0
M  V30 23 C 5.1961 -4.4999 0.0 0
M  V30 24 N 6.0621 -4.9999 0.0 0
M  V30 25 C 6.0621 -5.9999 0.0 0
M  V30 26 C 6.9282 -4.4999 0.0 0
M  V30 27 C 6.9282 -6.4999 0.0 0
M  V30 28 C 7.7942 -4.9999 0.0 0
M  V30 29 N 7.7942 -5.9999 0.0 0
M  V30 END ATOM
M  V30 BEGIN BOND
M  V30 1 1 1 2
M  V30 2 2 2 3
M  V30 3 1 2 4
M  V30 4 1 3 5
M  V30 5 1 3 6
M  V30 6 2 4 7
M  V30 7 2 5 8
M  V30 8 1 6 9
M  V30 9 1 8 10
M  V30 10 2 9 11
M  V30 11 1 9 12
M  V30 12 1 10 13
M  V30 13 1 11 14
M  V30 14 2 12 15
M  V30 15 2 13 16
M  V30 16 1 13 17
M  V30 17 1 15 18
M  V30 18 1 16 19
M  V30 19 2 17 20
M  V30 20 1 18 21
M  V30 21 1 18 22
M  V30 22 2 19 23
M  V30 23 1 23 24
M  V30 24 1 24 25
M  V30 25 1 24 26
M  V30 26 1 25 27
M  V30 27 1 26 28
M  V30 28 1 27 29
M  V30 29 1 7 8
M  V30 30 1 14 15
M  V30 31 1 20 23
M  V30 32 1 21 22
M  V30 33 1 28 29
M  V30 END BOND
M  V30 END CTAB
M  END
>  <Molecule Name>
Compound 500

>  <Molecule Name 2>
Compound 500

>  <Compound ID>
153

>  <Name>
RBx10080307

>  <Uniprot>
P08069

>  <Target>
IGF-1R

>  <Smiles>
FC1=CN=C(NC2=CC=C(N3CCNCC3)C=C2)N=C1NC1=N[NH]C(C2CC2)=C1

>  <Kd (nM)>


>  <Assay (Kd)>


>  <Ki (nM)>


>  <Assay (Ki)>


>  <IC50 (nM)>
277

>  <Assay (IC50)>
IC50 of IGF-1R was tested using fluorescence based assay

>  <EC50 (nM)>


>  <Assay (EC50)>


>  <Article DOI>
10.1016/j.ejphar.2013.04.016

>  <Molecular Weight>
394.458

>  <Exact Mass>
394.202971

>  <XLogP3>
2.72

>  <Heavy Atom Count>
29

>  <Ring Count>
5

>  <Hydrogen Bond Acceptor Count>
7

>  <Hydrogen Bond Donor Count>
4

>  <Rotatable Bond Count>
6

>  <Topological Polar Surface Area>
93.79

>  <Molecular Formula>
C20H23FN8

>  <InChI>
InChI=1S/C20H23FN8/c21-16-12-23-20(26-19(16)25-18-11-17(27-28-18)13-1-2-13)24-14-3-5-15(6-4-14)29-9-7-22-8-10-29/h3-6,11-13,22H,1-2,7-10H2,(H3,23,24,25,26,27,28)

>  <InChI Key>
BCKLNFVPSHTXDQ-UHFFFAOYSA-N

>  <BindingDB>


>  <PubChem>
71533699

>  <ChEMBL>


$$$$
154
Actelion Java MolfileCreator 2.0

  0  0  0  0  0  0              0 V3000
M  V30 BEGIN CTAB
M  V30 COUNTS 49 53 0 0 0
M  V30 BEGIN ATOM
M  V30 1 O 5.1961 2.5 0.0 0
M  V30 2 C 4.3301 3.0 0.0 0
M  V30 3 N 3.4641 2.5 0.0 0
M  V30 4 C 4.3301 4.0 0.0 0
M  V30 5 C 3.4641 1.5 0.0 0 CFG=2
M  V30 6 N 5.1961 4.5 0.0 0
M  V30 7 C 3.4641 4.5 0.0 0
M  V30 8 C 2.598 1.0 0.0 0
M  V30 9 C 4.3301 1.0 0.0 0
M  V30 10 C 5.1961 5.5 0.0 0
M  V30 11 N 3.4641 5.5 0.0 0
M  V30 12 O 1.732 1.5 0.0 0
M  V30 13 N 2.598 0.0 0.0 0
M  V30 14 C 5.1961 1.5 0.0 0
M  V30 15 C 4.3301 0.0 0.0 0
M  V30 16 C 4.3301 6.0 0.0 0
M  V30 17 C 1.732 -0.5 0.0 0 CFG=2
M  V30 18 C 6.0621 1.0 0.0 0
M  V30 19 C 5.1961 -0.4999 0.0 0
M  V30 20 C 0.866 0.0 0.0 0
M  V30 21 C 1.732 -1.5 0.0 0
M  V30 22 C 6.0621 0.0 0.0 0
M  V30 23 O 0.866 1.0 0.0 0
M  V30 24 N 0.0 -0.5 0.0 0
M  V30 25 C 2.732 -1.4999 0.0 0
M  V30 26 C 1.732 -2.5 0.0 0
M  V30 27 C 0.732 -1.5 0.0 0
M  V30 28 C -0.9135 -0.0932 0.0 0 CFG=2
M  V30 29 C -0.1045 -1.4945 0.0 0
M  V30 30 C -1.1214 0.8848 0.0 0
M  V30 31 C -1.5826 -0.8364 0.0 0 CFG=2
M  V30 32 C -1.0826 -1.7024 0.0 0 CFG=1
M  V30 33 O -2.0725 1.1939 0.0 0
M  V30 34 N -0.3783 1.554 0.0 0
M  V30 35 C -2.5608 -1.0443 0.0 0
M  V30 36 C -1.7518 -2.4455 0.0 0
M  V30 37 C -0.5862 2.5321 0.0 0 CFG=2
M  V30 38 C -2.6653 -2.0388 0.0 0
M  V30 39 C 0.1569 3.2012 0.0 0
M  V30 40 C -1.5372 2.8411 0.0 0
M  V30 41 O 1.1079 2.8922 0.0 0
M  V30 42 C -0.0509 4.1794 0.0 0
M  V30 43 C -1.7451 3.8193 0.0 0
M  V30 44 O -1.002 4.4884 0.0 0
M  V30 45 N 0.6921 4.8485 0.0 0
M  V30 46 C -2.6962 4.1283 0.0 0
M  V30 47 C 0.4842 5.8267 0.0 0
M  V30 48 C 0.7932 6.7777 0.0 0
M  V30 49 C -0.1848 6.5698 0.0 0
M  V30 END ATOM
M  V30 BEGIN BOND
M  V30 1 2 1 2
M  V30 2 1 2 3
M  V30 3 1 2 4
M  V30 4 1 5 3 CFG=1
M  V30 5 2 4 6
M  V30 6 1 4 7
M  V30 7 1 5 8
M  V30 8 1 5 9
M  V30 9 1 6 10
M  V30 10 2 7 11
M  V30 11 2 8 12
M  V30 12 1 8 13
M  V30 13 1 9 14
M  V30 14 1 9 15
M  V30 15 2 10 16
M  V30 16 1 17 13 CFG=1
M  V30 17 1 14 18
M  V30 18 1 15 19
M  V30 19 1 17 20
M  V30 20 1 17 21
M  V30 21 1 18 22
M  V30 22 2 20 23
M  V30 23 1 20 24
M  V30 24 1 21 25
M  V30 25 1 21 26
M  V30 26 1 21 27
M  V30 27 1 28 24
M  V30 28 1 24 29
M  V30 29 1 28 30 CFG=1
M  V30 30 1 31 28
M  V30 31 1 32 29 CFG=3
M  V30 32 2 30 33
M  V30 33 1 30 34
M  V30 34 1 31 35 CFG=3
M  V30 35 1 32 36
M  V30 36 1 37 34 CFG=1
M  V30 37 1 35 38
M  V30 38 1 37 39
M  V30 39 1 37 40
M  V30 40 2 39 41
M  V30 41 1 39 42
M  V30 42 1 40 43
M  V30 43 2 42 44
M  V30 44 1 42 45
M  V30 45 1 43 46
M  V30 46 1 45 47
M  V30 47 1 47 48
M  V30 48 1 47 49
M  V30 49 1 11 16
M  V30 50 1 19 22
M  V30 51 1 31 32
M  V30 52 1 36 38
M  V30 53 1 48 49
M  V30 END BOND
M  V30 BEGIN COLLECTION
M  V30 MDLV30/STEABS ATOMS=(6 5 17 28 31 32 37)
M  V30 END COLLECTION
M  V30 END CTAB
M  END
>  <Molecule Name>
Compound 501

>  <Molecule Name 2>
Compound 501

>  <Compound ID>
154

>  <Name>
Telaprevir

>  <Uniprot>


>  <Target>
NS3

>  <Smiles>
CCC[C@H](NC(=O)[C@@H]1[C@H]2CCC[C@H]2CN1C(=O)[C@@H](NC(=O)[C@@H](NC(=O)C1=CN=CC=N1)C1CCCCC1)C(C)(C)C)C(=O)C(=O)NC1CC1

>  <Kd (nM)>


>  <Assay (Kd)>


>  <Ki (nM)>


>  <Assay (Ki)>


>  <IC50 (nM)>
34

>  <Assay (IC50)>
Inhibition of NS3

>  <EC50 (nM)>


>  <Assay (EC50)>


>  <Article DOI>
10.1038/s41467-019-11429-w

>  <Molecular Weight>
679.863

>  <Exact Mass>
679.4057324

>  <XLogP3>
4.2

>  <Heavy Atom Count>
49

>  <Ring Count>
5

>  <Hydrogen Bond Acceptor Count>
8

>  <Hydrogen Bond Donor Count>
4

>  <Rotatable Bond Count>
13

>  <Topological Polar Surface Area>
179.56

>  <Molecular Formula>
C36H53N7O6

>  <InChI>
InChI=1S/C36H53N7O6/c1-5-10-25(29(44)34(48)39-23-15-16-23)40-33(47)28-24-14-9-13-22(24)20-43(28)35(49)30(36(2,3)4)42-32(46)27(21-11-7-6-8-12-21)41-31(45)26-19-37-17-18-38-26/h17-19,21-25,27-28,30H,5-16,20H2,1-4H3,(H,39,48)(H,40,47)(H,41,45)(H,42,46)/t22-,24-,25-,27-,28-,30+/m0/s1

>  <InChI Key>
BBAWEDCPNXPBQM-GDEBMMAJSA-N

>  <BindingDB>
50326056

>  <PubChem>
3010818

>  <ChEMBL>
CHEMBL231813

$$$$
155
Actelion Java MolfileCreator 2.0

  0  0  0  0  0  0              0 V3000
M  V30 BEGIN CTAB
M  V30 COUNTS 35 39 0 0 0
M  V30 BEGIN ATOM
M  V30 1 O 0.866 0.0 0.0 0
M  V30 2 C 1.732 -0.5 0.0 0
M  V30 3 N 1.732 -1.5 0.0 0
M  V30 4 C 2.598 0.0 0.0 0
M  V30 5 C 0.923 -2.0877 0.0 0 CFG=2
M  V30 6 C 2.541 -2.0877 0.0 0
M  V30 7 C 3.4641 -0.4999 0.0 0
M  V30 8 C -0.028 -1.7787 0.0 0
M  V30 9 C 1.232 -3.0388 0.0 0
M  V30 10 C 2.232 -3.0388 0.0 0 CFG=2
M  V30 11 O -0.2359 -0.8006 0.0 0
M  V30 12 O -0.7711 -2.4478 0.0 0
M  V30 13 N 2.8198 -3.8478 0.0 0
M  V30 14 N 2.5108 -4.7989 0.0 0
M  V30 15 C 3.8198 -3.8478 0.0 0
M  V30 16 C 3.3198 -5.3867 0.0 0
M  V30 17 N 4.4889 -3.1047 0.0 0
M  V30 18 C 4.1288 -4.7989 0.0 0
M  V30 19 C 3.3198 -6.3867 0.0 0
M  V30 20 C 5.4671 -3.3126 0.0 0
M  V30 21 C 5.107 -5.0068 0.0 0
M  V30 22 C 2.4538 -6.8867 0.0 0
M  V30 23 C 4.1858 -6.8867 0.0 0
M  V30 24 N 5.7761 -4.2636 0.0 0
M  V30 25 N 5.416 -5.9578 0.0 0
M  V30 26 C 2.4538 -7.8867 0.0 0
M  V30 27 C 4.1858 -7.8867 0.0 0
M  V30 28 C 3.3198 -8.3867 0.0 0
M  V30 29 O 3.3198 -9.3867 0.0 0
M  V30 30 C 4.1858 -9.8867 0.0 0
M  V30 31 C 4.1858 -10.8867 0.0 0
M  V30 32 C 5.0518 -9.3867 0.0 0
M  V30 33 C 5.0518 -11.3867 0.0 0
M  V30 34 C 5.9179 -9.8867 0.0 0
M  V30 35 C 5.9179 -10.8867 0.0 0
M  V30 END ATOM
M  V30 BEGIN BOND
M  V30 1 2 1 2
M  V30 2 1 2 3
M  V30 3 1 2 4
M  V30 4 1 5 3
M  V30 5 1 3 6
M  V30 6 2 4 7
M  V30 7 1 5 8 CFG=1
M  V30 8 1 5 9
M  V30 9 1 10 6
M  V30 10 2 8 11
M  V30 11 1 8 12
M  V30 12 1 10 13 CFG=1
M  V30 13 1 13 14
M  V30 14 1 13 15
M  V30 15 2 14 16
M  V30 16 2 15 17
M  V30 17 1 15 18
M  V30 18 1 16 19
M  V30 19 1 17 20
M  V30 20 2 18 21
M  V30 21 2 19 22
M  V30 22 1 19 23
M  V30 23 2 20 24
M  V30 24 1 21 25
M  V30 25 1 22 26
M  V30 26 2 23 27
M  V30 27 2 26 28
M  V30 28 1 28 29
M  V30 29 1 29 30
M  V30 30 2 30 31
M  V30 31 1 30 32
M  V30 32 1 31 33
M  V30 33 2 32 34
M  V30 34 2 33 35
M  V30 35 1 9 10
M  V30 36 1 16 18
M  V30 37 1 21 24
M  V30 38 1 27 28
M  V30 39 1 34 35
M  V30 END BOND
M  V30 BEGIN COLLECTION
M  V30 MDLV30/STEABS ATOMS=(2 5 10)
M  V30 END COLLECTION
M  V30 END CTAB
M  END
>  <Molecule Name>
Compound 502

>  <Molecule Name 2>
Compound 502

>  <Compound ID>
155

>  <Name>


>  <Uniprot>
Q06187

>  <Target>
BTK

>  <Smiles>
C=CC(=O)N1C[C@@H](N2N=C(C3=CC=C(OC4=CC=CC=C4)C=C3)C3=C(N)N=CN=C32)C[C@H]1C(=O)O

>  <Kd (nM)>


>  <Assay (Kd)>


>  <Ki (nM)>


>  <Assay (Ki)>


>  <IC50 (nM)>


>  <Assay (IC50)>


>  <EC50 (nM)>


>  <Assay (EC50)>


>  <Article DOI>
10.1039/c9cc08238g

>  <Molecular Weight>
470.489

>  <Exact Mass>
470.1702532

>  <XLogP3>
2.84

>  <Heavy Atom Count>
35

>  <Ring Count>
5

>  <Hydrogen Bond Acceptor Count>
8

>  <Hydrogen Bond Donor Count>
2

>  <Rotatable Bond Count>
6

>  <Topological Polar Surface Area>
136.46

>  <Molecular Formula>
C25H22N6O4

>  <InChI>
InChI=1S/C25H22N6O4/c1-2-20(32)30-13-16(12-19(30)25(33)34)31-24-21(23(26)27-14-28-24)22(29-31)15-8-10-18(11-9-15)35-17-6-4-3-5-7-17/h2-11,14,16,19H,1,12-13H2,(H,33,34)(H2,26,27,28)/t16-,19-/m0/s1

>  <InChI Key>
OEBKBBXJRZYDJA-LPHOPBHVSA-N

>  <BindingDB>


>  <PubChem>


>  <ChEMBL>


$$$$
156
Actelion Java MolfileCreator 2.0

  0  0  0  0  0  0              0 V3000
M  V30 BEGIN CTAB
M  V30 COUNTS 50 53 0 0 0
M  V30 BEGIN ATOM
M  V30 1 F 8.1602 -12.6339 0.0 0
M  V30 2 C 8.6602 -13.4999 0.0 0
M  V30 3 F 9.5262 -12.9999 0.0 0
M  V30 4 F 9.1602 -14.366 0.0 0
M  V30 5 C 7.7942 -13.9999 0.0 0
M  V30 6 C 6.9282 -13.4999 0.0 0
M  V30 7 C 7.7942 -14.9999 0.0 0
M  V30 8 C 6.0621 -13.9999 0.0 0
M  V30 9 C 6.9282 -15.4999 0.0 0
M  V30 10 C 5.1961 -13.4999 0.0 0
M  V30 11 C 6.0621 -14.9999 0.0 0
M  V30 12 O 4.3301 -14.0 0.0 0
M  V30 13 N 5.1961 -12.4999 0.0 0
M  V30 14 C 4.3301 -12.0 0.0 0
M  V30 15 C 4.3301 -11.0 0.0 0
M  V30 16 C 3.4641 -12.5 0.0 0
M  V30 17 C 3.4641 -10.5 0.0 0
M  V30 18 C 2.598 -12.0 0.0 0
M  V30 19 C 2.598 -11.0 0.0 0
M  V30 20 C 3.4641 -9.5 0.0 0
M  V30 21 C 1.732 -10.5 0.0 0
M  V30 22 O 2.598 -9.0 0.0 0
M  V30 23 N 4.3301 -9.0 0.0 0
M  V30 24 C 4.3301 -8.0 0.0 0
M  V30 25 C 5.1961 -7.5 0.0 0
M  V30 26 C 3.4641 -7.5 0.0 0
M  V30 27 N 5.1961 -6.5 0.0 0
M  V30 28 N 3.4641 -6.5 0.0 0
M  V30 29 C 4.3301 -6.0 0.0 0
M  V30 30 N 4.3301 -5.0 0.0 0
M  V30 31 C 3.4641 -4.5 0.0 0
M  V30 32 C 3.4641 -3.5 0.0 0
M  V30 33 C 2.598 -5.0 0.0 0
M  V30 34 C 2.598 -3.0 0.0 0
M  V30 35 C 1.732 -4.5 0.0 0
M  V30 36 N 2.598 -2.0 0.0 0
M  V30 37 C 1.732 -3.5 0.0 0
M  V30 38 C 3.4641 -1.5 0.0 0
M  V30 39 O 4.3301 -1.9999 0.0 0
M  V30 40 C 3.4641 -0.5 0.0 0 CFG=1
M  V30 41 N 4.3301 0.0 0.0 0
M  V30 42 C 2.598 0.0 0.0 0
M  V30 43 C 5.1961 -0.5 0.0 0
M  V30 44 C 1.732 -0.5 0.0 0
M  V30 45 O 5.1961 -1.4999 0.0 0
M  V30 46 C 6.0621 0.0 0.0 0
M  V30 47 C 0.866 0.0 0.0 0
M  V30 48 C 6.9282 -0.5 0.0 0
M  V30 49 O 0.866 1.0 0.0 0
M  V30 50 O 0.0 -0.5 0.0 0
M  V30 END ATOM
M  V30 BEGIN BOND
M  V30 1 1 1 2
M  V30 2 1 2 3
M  V30 3 1 2 4
M  V30 4 1 2 5
M  V30 5 2 5 6
M  V30 6 1 5 7
M  V30 7 1 6 8
M  V30 8 2 7 9
M  V30 9 1 8 10
M  V30 10 2 8 11
M  V30 11 2 10 12
M  V30 12 1 10 13
M  V30 13 1 13 14
M  V30 14 2 14 15
M  V30 15 1 14 16
M  V30 16 1 15 17
M  V30 17 2 16 18
M  V30 18 2 17 19
M  V30 19 1 17 20
M  V30 20 1 19 21
M  V30 21 2 20 22
M  V30 22 1 20 23
M  V30 23 1 23 24
M  V30 24 2 24 25
M  V30 25 1 24 26
M  V30 26 1 25 27
M  V30 27 2 26 28
M  V30 28 2 27 29
M  V30 29 1 29 30
M  V30 30 1 30 31
M  V30 31 2 31 32
M  V30 32 1 31 33
M  V30 33 1 32 34
M  V30 34 2 33 35
M  V30 35 1 34 36
M  V30 36 2 34 37
M  V30 37 1 36 38
M  V30 38 2 38 39
M  V30 39 1 40 38
M  V30 40 1 40 41 CFG=3
M  V30 41 1 40 42
M  V30 42 1 41 43
M  V30 43 1 42 44
M  V30 44 2 43 45
M  V30 45 1 43 46
M  V30 46 1 44 47
M  V30 47 2 46 48
M  V30 48 2 47 49
M  V30 49 1 47 50
M  V30 50 1 9 11
M  V30 51 1 18 19
M  V30 52 1 28 29
M  V30 53 1 35 37
M  V30 END BOND
M  V30 BEGIN COLLECTION
M  V30 MDLV30/STEABS ATOMS=(1 40)
M  V30 END COLLECTION
M  V30 END CTAB
M  END
>  <Molecule Name>
Compound 503

>  <Molecule Name 2>
Compound 503

>  <Compound ID>
156

>  <Name>


>  <Uniprot>
Q06187

>  <Target>
BTK

>  <Smiles>
C=CC(=O)N[C@@H](CCC(=O)O)C(=O)NC1=CC=CC(NC2=NC=C(NC(=O)C3=CC(NC(=O)C4=CC=CC(C(F)(F)F)=C4)=CC=C3C)C=N2)=C1

>  <Kd (nM)>


>  <Assay (Kd)>


>  <Ki (nM)>


>  <Assay (Ki)>


>  <IC50 (nM)>


>  <Assay (IC50)>


>  <EC50 (nM)>


>  <Assay (EC50)>


>  <Article DOI>
10.1039/c9cc08238g

>  <Molecular Weight>
689.651

>  <Exact Mass>
689.2209663

>  <XLogP3>
4

>  <Heavy Atom Count>
50

>  <Ring Count>
4

>  <Hydrogen Bond Acceptor Count>
8

>  <Hydrogen Bond Donor Count>
6

>  <Rotatable Bond Count>
13

>  <Topological Polar Surface Area>
191.51

>  <Molecular Formula>
C34H30F3N7O6

>  <InChI>
InChI=1S/C34H30F3N7O6/c1-3-28(45)44-27(12-13-29(46)47)32(50)41-22-8-5-9-23(15-22)43-33-38-17-25(18-39-33)42-31(49)26-16-24(11-10-19(26)2)40-30(48)20-6-4-7-21(14-20)34(35,36)37/h3-11,14-18,27H,1,12-13H2,2H3,(H,40,48)(H,41,50)(H,42,49)(H,44,45)(H,46,47)(H,38,39,43)/t27-/m0/s1

>  <InChI Key>
PFELOLLEKCUTGE-MHZLTWQESA-N

>  <BindingDB>


>  <PubChem>
141726751

>  <ChEMBL>


$$$$
157
Actelion Java MolfileCreator 2.0

  0  0  0  0  0  0              0 V3000
M  V30 BEGIN CTAB
M  V30 COUNTS 35 39 0 0 0
M  V30 BEGIN ATOM
M  V30 1 O 2.1673 2.6418 0.0 0
M  V30 2 C 1.9594 1.6636 0.0 0
M  V30 3 O 1.0084 1.3546 0.0 0
M  V30 4 C 2.7026 0.9945 0.0 0 CFG=1
M  V30 5 N 2.598 0.0 0.0 0
M  V30 6 C 3.6807 1.2024 0.0 0
M  V30 7 C 1.732 -0.5 0.0 0
M  V30 8 C 3.5116 -0.4067 0.0 0
M  V30 9 C 4.1807 0.3364 0.0 0 CFG=1
M  V30 10 O 1.732 -1.5 0.0 0
M  V30 11 C 0.866 0.0 0.0 0
M  V30 12 N 5.1752 0.2318 0.0 0
M  V30 13 C 0.0 -0.5 0.0 0
M  V30 14 N 5.6752 -0.6341 0.0 0
M  V30 15 C 5.8444 0.975 0.0 0
M  V30 16 C 6.6534 -0.4262 0.0 0
M  V30 17 N 5.7398 1.9695 0.0 0
M  V30 18 C 6.7579 0.5682 0.0 0
M  V30 19 C 7.3965 -1.0953 0.0 0
M  V30 20 C 6.5488 2.5573 0.0 0
M  V30 21 C 7.5669 1.156 0.0 0
M  V30 22 C 7.1886 -2.0735 0.0 0
M  V30 23 C 8.3476 -0.7863 0.0 0
M  V30 24 N 7.4624 2.1505 0.0 0
M  V30 25 N 8.4805 0.7493 0.0 0
M  V30 26 C 7.9317 -2.7426 0.0 0
M  V30 27 C 9.0907 -1.4554 0.0 0
M  V30 28 C 8.8828 -2.4336 0.0 0
M  V30 29 O 9.626 -3.1027 0.0 0
M  V30 30 C 10.577 -2.7937 0.0 0
M  V30 31 C 11.3202 -3.4628 0.0 0
M  V30 32 C 10.7849 -1.8155 0.0 0
M  V30 33 C 12.2712 -3.1538 0.0 0
M  V30 34 C 11.736 -1.5065 0.0 0
M  V30 35 C 12.4791 -2.1757 0.0 0
M  V30 END ATOM
M  V30 BEGIN BOND
M  V30 1 2 1 2
M  V30 2 1 2 3
M  V30 3 1 4 2 CFG=3
M  V30 4 1 4 5
M  V30 5 1 4 6
M  V30 6 1 5 7
M  V30 7 1 5 8
M  V30 8 1 9 6
M  V30 9 2 7 10
M  V30 10 1 7 11
M  V30 11 1 9 12 CFG=3
M  V30 12 1 11 13
M  V30 13 1 12 14
M  V30 14 1 12 15
M  V30 15 2 14 16
M  V30 16 2 15 17
M  V30 17 1 15 18
M  V30 18 1 16 19
M  V30 19 1 17 20
M  V30 20 2 18 21
M  V30 21 2 19 22
M  V30 22 1 19 23
M  V30 23 2 20 24
M  V30 24 1 21 25
M  V30 25 1 22 26
M  V30 26 2 23 27
M  V30 27 2 26 28
M  V30 28 1 28 29
M  V30 29 1 29 30
M  V30 30 2 30 31
M  V30 31 1 30 32
M  V30 32 1 31 33
M  V30 33 2 32 34
M  V30 34 2 33 35
M  V30 35 1 8 9
M  V30 36 1 16 18
M  V30 37 1 21 24
M  V30 38 1 27 28
M  V30 39 1 34 35
M  V30 END BOND
M  V30 BEGIN COLLECTION
M  V30 MDLV30/STEABS ATOMS=(2 4 9)
M  V30 END COLLECTION
M  V30 END CTAB
M  END
>  <Molecule Name>
Compound 504

>  <Molecule Name 2>
Compound 504

>  <Compound ID>
157

>  <Name>


>  <Uniprot>
Q06187

>  <Target>
BTK

>  <Smiles>
CCC(=O)N1C[C@@H](N2N=C(C3=CC=C(OC4=CC=CC=C4)C=C3)C3=C(N)N=CN=C32)C[C@H]1C(=O)O

>  <Kd (nM)>


>  <Assay (Kd)>


>  <Ki (nM)>


>  <Assay (Ki)>


>  <IC50 (nM)>


>  <Assay (IC50)>


>  <EC50 (nM)>


>  <Assay (EC50)>


>  <Article DOI>
10.1039/c9cc08238g

>  <Molecular Weight>
472.505

>  <Exact Mass>
472.1859032

>  <XLogP3>
2.72

>  <Heavy Atom Count>
35

>  <Ring Count>
5

>  <Hydrogen Bond Acceptor Count>
8

>  <Hydrogen Bond Donor Count>
2

>  <Rotatable Bond Count>
6

>  <Topological Polar Surface Area>
136.46

>  <Molecular Formula>
C25H24N6O4

>  <InChI>
InChI=1S/C25H24N6O4/c1-2-20(32)30-13-16(12-19(30)25(33)34)31-24-21(23(26)27-14-28-24)22(29-31)15-8-10-18(11-9-15)35-17-6-4-3-5-7-17/h3-11,14,16,19H,2,12-13H2,1H3,(H,33,34)(H2,26,27,28)/t16-,19-/m0/s1

>  <InChI Key>
KKJMQWAXKZUNIS-LPHOPBHVSA-N

>  <BindingDB>


>  <PubChem>


>  <ChEMBL>


$$$$
158
Actelion Java MolfileCreator 2.0

  0  0  0  0  0  0              0 V3000
M  V30 BEGIN CTAB
M  V30 COUNTS 50 53 0 0 0
M  V30 BEGIN ATOM
M  V30 1 F 8.1602 -12.6339 0.0 0
M  V30 2 C 8.6602 -13.4999 0.0 0
M  V30 3 F 9.5262 -12.9999 0.0 0
M  V30 4 F 9.1602 -14.366 0.0 0
M  V30 5 C 7.7942 -13.9999 0.0 0
M  V30 6 C 6.9282 -13.4999 0.0 0
M  V30 7 C 7.7942 -14.9999 0.0 0
M  V30 8 C 6.0621 -13.9999 0.0 0
M  V30 9 C 6.9282 -15.4999 0.0 0
M  V30 10 C 5.1961 -13.4999 0.0 0
M  V30 11 C 6.0621 -14.9999 0.0 0
M  V30 12 O 4.3301 -14.0 0.0 0
M  V30 13 N 5.1961 -12.4999 0.0 0
M  V30 14 C 4.3301 -12.0 0.0 0
M  V30 15 C 4.3301 -11.0 0.0 0
M  V30 16 C 3.4641 -12.5 0.0 0
M  V30 17 C 3.4641 -10.5 0.0 0
M  V30 18 C 2.598 -12.0 0.0 0
M  V30 19 C 2.598 -11.0 0.0 0
M  V30 20 C 3.4641 -9.5 0.0 0
M  V30 21 C 1.732 -10.5 0.0 0
M  V30 22 O 2.598 -9.0 0.0 0
M  V30 23 N 4.3301 -9.0 0.0 0
M  V30 24 C 4.3301 -8.0 0.0 0
M  V30 25 C 5.1961 -7.5 0.0 0
M  V30 26 C 3.4641 -7.5 0.0 0
M  V30 27 N 5.1961 -6.5 0.0 0
M  V30 28 N 3.4641 -6.5 0.0 0
M  V30 29 C 4.3301 -6.0 0.0 0
M  V30 30 N 4.3301 -5.0 0.0 0
M  V30 31 C 3.4641 -4.5 0.0 0
M  V30 32 C 3.4641 -3.5 0.0 0
M  V30 33 C 2.598 -5.0 0.0 0
M  V30 34 C 2.598 -3.0 0.0 0
M  V30 35 C 1.732 -4.5 0.0 0
M  V30 36 N 2.598 -2.0 0.0 0
M  V30 37 C 1.732 -3.5 0.0 0
M  V30 38 C 3.4641 -1.5 0.0 0
M  V30 39 O 4.3301 -1.9999 0.0 0
M  V30 40 C 3.4641 -0.5 0.0 0 CFG=1
M  V30 41 N 4.3301 0.0 0.0 0
M  V30 42 C 2.598 0.0 0.0 0
M  V30 43 C 5.1961 -0.5 0.0 0
M  V30 44 C 1.732 -0.5 0.0 0
M  V30 45 O 5.1961 -1.4999 0.0 0
M  V30 46 C 6.0621 0.0 0.0 0
M  V30 47 C 0.866 0.0 0.0 0
M  V30 48 C 6.9282 -0.5 0.0 0
M  V30 49 O 0.866 1.0 0.0 0
M  V30 50 O 0.0 -0.5 0.0 0
M  V30 END ATOM
M  V30 BEGIN BOND
M  V30 1 1 1 2
M  V30 2 1 2 3
M  V30 3 1 2 4
M  V30 4 1 2 5
M  V30 5 2 5 6
M  V30 6 1 5 7
M  V30 7 1 6 8
M  V30 8 2 7 9
M  V30 9 1 8 10
M  V30 10 2 8 11
M  V30 11 2 10 12
M  V30 12 1 10 13
M  V30 13 1 13 14
M  V30 14 2 14 15
M  V30 15 1 14 16
M  V30 16 1 15 17
M  V30 17 2 16 18
M  V30 18 2 17 19
M  V30 19 1 17 20
M  V30 20 1 19 21
M  V30 21 2 20 22
M  V30 22 1 20 23
M  V30 23 1 23 24
M  V30 24 2 24 25
M  V30 25 1 24 26
M  V30 26 1 25 27
M  V30 27 2 26 28
M  V30 28 2 27 29
M  V30 29 1 29 30
M  V30 30 1 30 31
M  V30 31 2 31 32
M  V30 32 1 31 33
M  V30 33 1 32 34
M  V30 34 2 33 35
M  V30 35 1 34 36
M  V30 36 2 34 37
M  V30 37 1 36 38
M  V30 38 2 38 39
M  V30 39 1 40 38
M  V30 40 1 40 41 CFG=3
M  V30 41 1 40 42
M  V30 42 1 41 43
M  V30 43 1 42 44
M  V30 44 2 43 45
M  V30 45 1 43 46
M  V30 46 1 44 47
M  V30 47 1 46 48
M  V30 48 2 47 49
M  V30 49 1 47 50
M  V30 50 1 9 11
M  V30 51 1 18 19
M  V30 52 1 28 29
M  V30 53 1 35 37
M  V30 END BOND
M  V30 BEGIN COLLECTION
M  V30 MDLV30/STEABS ATOMS=(1 40)
M  V30 END COLLECTION
M  V30 END CTAB
M  END
>  <Molecule Name>
Compound 505

>  <Molecule Name 2>
Compound 505

>  <Compound ID>
158

>  <Name>


>  <Uniprot>
Q06187

>  <Target>
BTK

>  <Smiles>
CCC(=O)N[C@@H](CCC(=O)O)C(=O)NC1=CC=CC(NC2=NC=C(NC(=O)C3=CC(NC(=O)C4=CC=CC(C(F)(F)F)=C4)=CC=C3C)C=N2)=C1

>  <Kd (nM)>


>  <Assay (Kd)>


>  <Ki (nM)>


>  <Assay (Ki)>


>  <IC50 (nM)>


>  <Assay (IC50)>


>  <EC50 (nM)>


>  <Assay (EC50)>


>  <Article DOI>
10.1039/c9cc08238g

>  <Molecular Weight>
691.667

>  <Exact Mass>
691.2366164

>  <XLogP3>
3.88

>  <Heavy Atom Count>
50

>  <Ring Count>
4

>  <Hydrogen Bond Acceptor Count>
8

>  <Hydrogen Bond Donor Count>
6

>  <Rotatable Bond Count>
13

>  <Topological Polar Surface Area>
191.51

>  <Molecular Formula>
C34H32F3N7O6

>  <InChI>
InChI=1S/C34H32F3N7O6/c1-3-28(45)44-27(12-13-29(46)47)32(50)41-22-8-5-9-23(15-22)43-33-38-17-25(18-39-33)42-31(49)26-16-24(11-10-19(26)2)40-30(48)20-6-4-7-21(14-20)34(35,36)37/h4-11,14-18,27H,3,12-13H2,1-2H3,(H,40,48)(H,41,50)(H,42,49)(H,44,45)(H,46,47)(H,38,39,43)/t27-/m0/s1

>  <InChI Key>
OPAFQPQNGDHZOL-MHZLTWQESA-N

>  <BindingDB>


>  <PubChem>


>  <ChEMBL>


$$$$
159
Actelion Java MolfileCreator 2.0

  0  0  0  0  0  0              0 V3000
M  V30 BEGIN CTAB
M  V30 COUNTS 32 37 0 0 0
M  V30 BEGIN ATOM
M  V30 1 N 10.3577 -1.1432 0.0 0
M  V30 2 C 9.3796 -1.3511 0.0 0
M  V30 3 C 11.0269 -1.8864 0.0 0
M  V30 4 C 9.0706 -2.3022 0.0 0
M  V30 5 C 10.7179 -2.8374 0.0 0
M  V30 6 C 9.7397 -3.0453 0.0 0
M  V30 7 C 8.0924 -2.5101 0.0 0
M  V30 8 C 9.4307 -3.9964 0.0 0
M  V30 9 C 7.7834 -3.4612 0.0 0
M  V30 10 C 8.4526 -4.2043 0.0 0
M  V30 11 C 6.8053 -3.6691 0.0 0 CFG=2
M  V30 12 C 6.0621 -2.9999 0.0 0 CFG=2
M  V30 13 C 6.3985 -4.5826 0.0 0
M  V30 14 C 5.1961 -3.4999 0.0 0 CFG=1
M  V30 15 C 6.0621 -1.9999 0.0 0
M  V30 16 C 6.9757 -2.5932 0.0 0
M  V30 17 C 5.404 -4.4781 0.0 0
M  V30 18 C 4.3301 -2.9999 0.0 0 CFG=1
M  V30 19 C 5.1961 -1.4999 0.0 0
M  V30 20 C 4.3301 -1.9999 0.0 0
M  V30 21 C 3.4641 -3.4999 0.0 0
M  V30 22 C 3.4641 -1.4999 0.0 0 CFG=2
M  V30 23 C 2.598 -2.9999 0.0 0
M  V30 24 C 2.598 -1.9999 0.0 0
M  V30 25 C 3.4641 -0.4999 0.0 0
M  V30 26 C 4.3301 -0.9999 0.0 0
M  V30 27 C 1.732 -1.4999 0.0 0
M  V30 28 C 2.598 0.0 0.0 0
M  V30 29 C 1.732 -0.5 0.0 0 CFG=2
M  V30 30 N 0.866 0.0 0.0 0
M  V30 31 C 0.866 1.0 0.0 0
M  V30 32 C 0.0 -0.5 0.0 0
M  V30 END ATOM
M  V30 BEGIN BOND
M  V30 1 2 1 2
M  V30 2 1 1 3
M  V30 3 1 2 4
M  V30 4 2 3 5
M  V30 5 1 4 6
M  V30 6 2 4 7
M  V30 7 2 6 8
M  V30 8 1 7 9
M  V30 9 1 8 10
M  V30 10 1 11 9 CFG=1
M  V30 11 1 12 11
M  V30 12 1 11 13
M  V30 13 1 14 12
M  V30 14 1 12 15
M  V30 15 1 12 16 CFG=1
M  V30 16 1 13 17
M  V30 17 1 18 14
M  V30 18 1 15 19
M  V30 19 1 18 20
M  V30 20 1 18 21 CFG=3
M  V30 21 1 22 20
M  V30 22 1 21 23
M  V30 23 1 22 24
M  V30 24 1 22 25
M  V30 25 1 22 26 CFG=1
M  V30 26 1 24 27
M  V30 27 1 25 28
M  V30 28 1 29 27
M  V30 29 1 29 30 CFG=1
M  V30 30 1 30 31
M  V30 31 1 30 32
M  V30 32 1 5 6
M  V30 33 2 9 10
M  V30 34 1 14 17 CFG=1
M  V30 35 1 19 20
M  V30 36 2 23 24
M  V30 37 1 28 29
M  V30 END BOND
M  V30 BEGIN COLLECTION
M  V30 MDLV30/STEABS ATOMS=(6 11 12 14 18 22 29)
M  V30 END COLLECTION
M  V30 END CTAB
M  END
>  <Molecule Name>
Compound 506

>  <Molecule Name 2>
Compound 506

>  <Compound ID>
159

>  <Name>
JH-VIII-49

>  <Uniprot>
P49336

>  <Target>
CDK8

>  <Smiles>
CN(C)[C@H]1CC[C@@]2(C)C(=CC[C@@H]3C2CC[C@]2(C)[C@@H](C4=CC=C5C=CN=CC5=C4)CC[C@@H]32)C1

>  <Kd (nM)>


>  <Assay (Kd)>


>  <Ki (nM)>


>  <Assay (Ki)>


>  <IC50 (nM)>
16

>  <Assay (IC50)>
Inhibition of CDK8

>  <EC50 (nM)>


>  <Assay (EC50)>


>  <Article DOI>
10.1021/acsmedchemlett.8b00011

>  <Molecular Weight>
428.664

>  <Exact Mass>
428.3191493

>  <XLogP3>
7.19

>  <Heavy Atom Count>
32

>  <Ring Count>
6

>  <Hydrogen Bond Acceptor Count>
2

>  <Hydrogen Bond Donor Count>
0

>  <Rotatable Bond Count>
2

>  <Topological Polar Surface Area>
16.13

>  <Molecular Formula>
C30H40N2

>  <InChI>
InChI=1S/C30H40N2/c1-29-14-11-24(32(3)4)18-23(29)7-8-25-27-10-9-26(30(27,2)15-12-28(25)29)21-6-5-20-13-16-31-19-22(20)17-21/h5-7,13,16-17,19,24-28H,8-12,14-15,18H2,1-4H3/t24-,25-,26+,27-,28?,29-,30+/m0/s1

>  <InChI Key>
IWZSHWBGHQBIML-ZGGLMWTQSA-N

>  <BindingDB>


>  <PubChem>
133081964

>  <ChEMBL>
CHEMBL4167193

$$$$
160
Actelion Java MolfileCreator 2.0

  0  0  0  0  0  0              0 V3000
M  V30 BEGIN CTAB
M  V30 COUNTS 33 37 0 0 0
M  V30 BEGIN ATOM
M  V30 1 O 2.598 0.0 0.0 0
M  V30 2 C 1.732 -0.5 0.0 0
M  V30 3 N 1.732 -1.5 0.0 0
M  V30 4 C 0.866 0.0 0.0 0
M  V30 5 C 0.866 -2.0 0.0 0
M  V30 6 C 2.598 -2.0 0.0 0
M  V30 7 C 0.0 -0.5 0.0 0
M  V30 8 C 0.866 -3.0 0.0 0 CFG=2
M  V30 9 C 2.598 -3.0 0.0 0
M  V30 10 N 0.0 -3.5 0.0 0
M  V30 11 C 1.732 -3.5 0.0 0
M  V30 12 N -0.9135 -3.0932 0.0 0
M  V30 13 C -0.1045 -4.4945 0.0 0
M  V30 14 C -1.5826 -3.8364 0.0 0
M  V30 15 N 0.5646 -5.2376 0.0 0
M  V30 16 C -1.0826 -4.7024 0.0 0
M  V30 17 C -2.5771 -3.7318 0.0 0
M  V30 18 C 0.2555 -6.1887 0.0 0
M  V30 19 C -1.3916 -5.6534 0.0 0
M  V30 20 C -2.9839 -2.8183 0.0 0
M  V30 21 C -3.1649 -4.5408 0.0 0
M  V30 22 N -0.7225 -6.3966 0.0 0
M  V30 23 N -2.3698 -5.8614 0.0 0
M  V30 24 C -3.9784 -2.7138 0.0 0
M  V30 25 C -4.1595 -4.4363 0.0 0
M  V30 26 C -4.5662 -3.5228 0.0 0
M  V30 27 O -5.5607 -3.4182 0.0 0
M  V30 28 C -6.1485 -4.2273 0.0 0
M  V30 29 C -7.143 -4.1227 0.0 0
M  V30 30 C -5.7418 -5.1408 0.0 0
M  V30 31 C -7.7308 -4.9317 0.0 0
M  V30 32 C -6.3295 -5.9498 0.0 0
M  V30 33 C -7.3241 -5.8453 0.0 0
M  V30 END ATOM
M  V30 BEGIN BOND
M  V30 1 2 1 2
M  V30 2 1 2 3
M  V30 3 1 2 4
M  V30 4 1 3 5
M  V30 5 1 3 6
M  V30 6 2 4 7
M  V30 7 1 8 5
M  V30 8 1 6 9
M  V30 9 1 8 10 CFG=1
M  V30 10 1 8 11
M  V30 11 1 10 12
M  V30 12 1 10 13
M  V30 13 2 12 14
M  V30 14 2 13 15
M  V30 15 1 13 16
M  V30 16 1 14 17
M  V30 17 1 15 18
M  V30 18 2 16 19
M  V30 19 2 17 20
M  V30 20 1 17 21
M  V30 21 2 18 22
M  V30 22 1 19 23
M  V30 23 1 20 24
M  V30 24 2 21 25
M  V30 25 2 24 26
M  V30 26 1 26 27
M  V30 27 1 27 28
M  V30 28 2 28 29
M  V30 29 1 28 30
M  V30 30 1 29 31
M  V30 31 2 30 32
M  V30 32 2 31 33
M  V30 33 1 9 11
M  V30 34 1 14 16
M  V30 35 1 19 22
M  V30 36 1 25 26
M  V30 37 1 32 33
M  V30 END BOND
M  V30 BEGIN COLLECTION
M  V30 MDLV30/STEABS ATOMS=(1 8)
M  V30 END COLLECTION
M  V30 END CTAB
M  END
>  <Molecule Name>
Compound 507

>  <Molecule Name 2>
Compound 507

>  <Compound ID>
160

>  <Name>
Ibrutinib

>  <Uniprot>
P42684

>  <Target>
ABL2

>  <Smiles>
C=CC(=O)N1CCC[C@@H](N2N=C(C3=CC=C(OC4=CC=CC=C4)C=C3)C3=C(N)N=CN=C32)C1

>  <Kd (nM)>
919

>  <Assay (Kd)>
Kd apparent of ABL2

>  <Ki (nM)>


>  <Assay (Ki)>


>  <IC50 (nM)>


>  <Assay (IC50)>


>  <EC50 (nM)>


>  <Assay (EC50)>


>  <Article DOI>
10.1126/science.aan4368

>  <Molecular Weight>
440.507

>  <Exact Mass>
440.196074

>  <XLogP3>
3.57

>  <Heavy Atom Count>
33

>  <Ring Count>
5

>  <Hydrogen Bond Acceptor Count>
7

>  <Hydrogen Bond Donor Count>
1

>  <Rotatable Bond Count>
5

>  <Topological Polar Surface Area>
99.16

>  <Molecular Formula>
C25H24N6O2

>  <InChI>
InChI=1S/C25H24N6O2/c1-2-21(32)30-14-6-7-18(15-30)31-25-22(24(26)27-16-28-25)23(29-31)17-10-12-20(13-11-17)33-19-8-4-3-5-9-19/h2-5,8-13,16,18H,1,6-7,14-15H2,(H2,26,27,28)/t18-/m1/s1

>  <InChI Key>
XYFPWWZEPKGCCK-GOSISDBHSA-N

>  <BindingDB>
50357312

>  <PubChem>
24821094

>  <ChEMBL>
CHEMBL1873475

$$$$
160
Actelion Java MolfileCreator 2.0

  0  0  0  0  0  0              0 V3000
M  V30 BEGIN CTAB
M  V30 COUNTS 33 37 0 0 0
M  V30 BEGIN ATOM
M  V30 1 O 2.598 0.0 0.0 0
M  V30 2 C 1.732 -0.5 0.0 0
M  V30 3 N 1.732 -1.5 0.0 0
M  V30 4 C 0.866 0.0 0.0 0
M  V30 5 C 0.866 -2.0 0.0 0
M  V30 6 C 2.598 -2.0 0.0 0
M  V30 7 C 0.0 -0.5 0.0 0
M  V30 8 C 0.866 -3.0 0.0 0 CFG=2
M  V30 9 C 2.598 -3.0 0.0 0
M  V30 10 N 0.0 -3.5 0.0 0
M  V30 11 C 1.732 -3.5 0.0 0
M  V30 12 N -0.9135 -3.0932 0.0 0
M  V30 13 C -0.1045 -4.4945 0.0 0
M  V30 14 C -1.5826 -3.8364 0.0 0
M  V30 15 N 0.5646 -5.2376 0.0 0
M  V30 16 C -1.0826 -4.7024 0.0 0
M  V30 17 C -2.5771 -3.7318 0.0 0
M  V30 18 C 0.2555 -6.1887 0.0 0
M  V30 19 C -1.3916 -5.6534 0.0 0
M  V30 20 C -2.9839 -2.8183 0.0 0
M  V30 21 C -3.1649 -4.5408 0.0 0
M  V30 22 N -0.7225 -6.3966 0.0 0
M  V30 23 N -2.3698 -5.8614 0.0 0
M  V30 24 C -3.9784 -2.7138 0.0 0
M  V30 25 C -4.1595 -4.4363 0.0 0
M  V30 26 C -4.5662 -3.5228 0.0 0
M  V30 27 O -5.5607 -3.4182 0.0 0
M  V30 28 C -6.1485 -4.2273 0.0 0
M  V30 29 C -7.143 -4.1227 0.0 0
M  V30 30 C -5.7418 -5.1408 0.0 0
M  V30 31 C -7.7308 -4.9317 0.0 0
M  V30 32 C -6.3295 -5.9498 0.0 0
M  V30 33 C -7.3241 -5.8453 0.0 0
M  V30 END ATOM
M  V30 BEGIN BOND
M  V30 1 2 1 2
M  V30 2 1 2 3
M  V30 3 1 2 4
M  V30 4 1 3 5
M  V30 5 1 3 6
M  V30 6 2 4 7
M  V30 7 1 8 5
M  V30 8 1 6 9
M  V30 9 1 8 10 CFG=1
M  V30 10 1 8 11
M  V30 11 1 10 12
M  V30 12 1 10 13
M  V30 13 2 12 14
M  V30 14 2 13 15
M  V30 15 1 13 16
M  V30 16 1 14 17
M  V30 17 1 15 18
M  V30 18 2 16 19
M  V30 19 2 17 20
M  V30 20 1 17 21
M  V30 21 2 18 22
M  V30 22 1 19 23
M  V30 23 1 20 24
M  V30 24 2 21 25
M  V30 25 2 24 26
M  V30 26 1 26 27
M  V30 27 1 27 28
M  V30 28 2 28 29
M  V30 29 1 28 30
M  V30 30 1 29 31
M  V30 31 2 30 32
M  V30 32 2 31 33
M  V30 33 1 9 11
M  V30 34 1 14 16
M  V30 35 1 19 22
M  V30 36 1 25 26
M  V30 37 1 32 33
M  V30 END BOND
M  V30 BEGIN COLLECTION
M  V30 MDLV30/STEABS ATOMS=(1 8)
M  V30 END COLLECTION
M  V30 END CTAB
M  END
>  <Molecule Name>
Compound 508

>  <Molecule Name 2>
Compound 508

>  <Compound ID>
160

>  <Name>
Ibrutinib

>  <Uniprot>
P51451

>  <Target>
BLK

>  <Smiles>
C=CC(=O)N1CCC[C@@H](N2N=C(C3=CC=C(OC4=CC=CC=C4)C=C3)C3=C(N)N=CN=C32)C1

>  <Kd (nM)>


>  <Assay (Kd)>


>  <Ki (nM)>


>  <Assay (Ki)>


>  <IC50 (nM)>
0.23

>  <Assay (IC50)>
Inhibition of BLK

>  <EC50 (nM)>


>  <Assay (EC50)>


>  <Article DOI>
10.1021/acs.jmedchem.9b00687

>  <Molecular Weight>
440.507

>  <Exact Mass>
440.196074

>  <XLogP3>
3.57

>  <Heavy Atom Count>
33

>  <Ring Count>
5

>  <Hydrogen Bond Acceptor Count>
7

>  <Hydrogen Bond Donor Count>
1

>  <Rotatable Bond Count>
5

>  <Topological Polar Surface Area>
99.16

>  <Molecular Formula>
C25H24N6O2

>  <InChI>
InChI=1S/C25H24N6O2/c1-2-21(32)30-14-6-7-18(15-30)31-25-22(24(26)27-16-28-25)23(29-31)17-10-12-20(13-11-17)33-19-8-4-3-5-9-19/h2-5,8-13,16,18H,1,6-7,14-15H2,(H2,26,27,28)/t18-/m1/s1

>  <InChI Key>
XYFPWWZEPKGCCK-GOSISDBHSA-N

>  <BindingDB>
50357312

>  <PubChem>
24821094

>  <ChEMBL>
CHEMBL1873475

$$$$
160
Actelion Java MolfileCreator 2.0

  0  0  0  0  0  0              0 V3000
M  V30 BEGIN CTAB
M  V30 COUNTS 33 37 0 0 0
M  V30 BEGIN ATOM
M  V30 1 O 2.598 0.0 0.0 0
M  V30 2 C 1.732 -0.5 0.0 0
M  V30 3 N 1.732 -1.5 0.0 0
M  V30 4 C 0.866 0.0 0.0 0
M  V30 5 C 0.866 -2.0 0.0 0
M  V30 6 C 2.598 -2.0 0.0 0
M  V30 7 C 0.0 -0.5 0.0 0
M  V30 8 C 0.866 -3.0 0.0 0 CFG=2
M  V30 9 C 2.598 -3.0 0.0 0
M  V30 10 N 0.0 -3.5 0.0 0
M  V30 11 C 1.732 -3.5 0.0 0
M  V30 12 N -0.9135 -3.0932 0.0 0
M  V30 13 C -0.1045 -4.4945 0.0 0
M  V30 14 C -1.5826 -3.8364 0.0 0
M  V30 15 N 0.5646 -5.2376 0.0 0
M  V30 16 C -1.0826 -4.7024 0.0 0
M  V30 17 C -2.5771 -3.7318 0.0 0
M  V30 18 C 0.2555 -6.1887 0.0 0
M  V30 19 C -1.3916 -5.6534 0.0 0
M  V30 20 C -2.9839 -2.8183 0.0 0
M  V30 21 C -3.1649 -4.5408 0.0 0
M  V30 22 N -0.7225 -6.3966 0.0 0
M  V30 23 N -2.3698 -5.8614 0.0 0
M  V30 24 C -3.9784 -2.7138 0.0 0
M  V30 25 C -4.1595 -4.4363 0.0 0
M  V30 26 C -4.5662 -3.5228 0.0 0
M  V30 27 O -5.5607 -3.4182 0.0 0
M  V30 28 C -6.1485 -4.2273 0.0 0
M  V30 29 C -7.143 -4.1227 0.0 0
M  V30 30 C -5.7418 -5.1408 0.0 0
M  V30 31 C -7.7308 -4.9317 0.0 0
M  V30 32 C -6.3295 -5.9498 0.0 0
M  V30 33 C -7.3241 -5.8453 0.0 0
M  V30 END ATOM
M  V30 BEGIN BOND
M  V30 1 2 1 2
M  V30 2 1 2 3
M  V30 3 1 2 4
M  V30 4 1 3 5
M  V30 5 1 3 6
M  V30 6 2 4 7
M  V30 7 1 8 5
M  V30 8 1 6 9
M  V30 9 1 8 10 CFG=1
M  V30 10 1 8 11
M  V30 11 1 10 12
M  V30 12 1 10 13
M  V30 13 2 12 14
M  V30 14 2 13 15
M  V30 15 1 13 16
M  V30 16 1 14 17
M  V30 17 1 15 18
M  V30 18 2 16 19
M  V30 19 2 17 20
M  V30 20 1 17 21
M  V30 21 2 18 22
M  V30 22 1 19 23
M  V30 23 1 20 24
M  V30 24 2 21 25
M  V30 25 2 24 26
M  V30 26 1 26 27
M  V30 27 1 27 28
M  V30 28 2 28 29
M  V30 29 1 28 30
M  V30 30 1 29 31
M  V30 31 2 30 32
M  V30 32 2 31 33
M  V30 33 1 9 11
M  V30 34 1 14 16
M  V30 35 1 19 22
M  V30 36 1 25 26
M  V30 37 1 32 33
M  V30 END BOND
M  V30 BEGIN COLLECTION
M  V30 MDLV30/STEABS ATOMS=(1 8)
M  V30 END COLLECTION
M  V30 END CTAB
M  END
>  <Molecule Name>
Compound 509

>  <Molecule Name 2>
Compound 509

>  <Compound ID>
160

>  <Name>
Ibrutinib

>  <Uniprot>
Q06187

>  <Target>
BTK

>  <Smiles>
C=CC(=O)N1CCC[C@@H](N2N=C(C3=CC=C(OC4=CC=CC=C4)C=C3)C3=C(N)N=CN=C32)C1

>  <Kd (nM)>


>  <Assay (Kd)>


>  <Ki (nM)>


>  <Assay (Ki)>


>  <IC50 (nM)>
11

>  <Assay (IC50)>
Inhibit autophosphorylation of BTK

>  <EC50 (nM)>


>  <Assay (EC50)>


>  <Article DOI>
10.1073/pnas.1004594107

>  <Molecular Weight>
440.507

>  <Exact Mass>
440.196074

>  <XLogP3>
3.57

>  <Heavy Atom Count>
33

>  <Ring Count>
5

>  <Hydrogen Bond Acceptor Count>
7

>  <Hydrogen Bond Donor Count>
1

>  <Rotatable Bond Count>
5

>  <Topological Polar Surface Area>
99.16

>  <Molecular Formula>
C25H24N6O2

>  <InChI>
InChI=1S/C25H24N6O2/c1-2-21(32)30-14-6-7-18(15-30)31-25-22(24(26)27-16-28-25)23(29-31)17-10-12-20(13-11-17)33-19-8-4-3-5-9-19/h2-5,8-13,16,18H,1,6-7,14-15H2,(H2,26,27,28)/t18-/m1/s1

>  <InChI Key>
XYFPWWZEPKGCCK-GOSISDBHSA-N

>  <BindingDB>
50357312

>  <PubChem>
24821094

>  <ChEMBL>
CHEMBL1873475

$$$$
160
Actelion Java MolfileCreator 2.0

  0  0  0  0  0  0              0 V3000
M  V30 BEGIN CTAB
M  V30 COUNTS 33 37 0 0 0
M  V30 BEGIN ATOM
M  V30 1 O 2.598 0.0 0.0 0
M  V30 2 C 1.732 -0.5 0.0 0
M  V30 3 N 1.732 -1.5 0.0 0
M  V30 4 C 0.866 0.0 0.0 0
M  V30 5 C 0.866 -2.0 0.0 0
M  V30 6 C 2.598 -2.0 0.0 0
M  V30 7 C 0.0 -0.5 0.0 0
M  V30 8 C 0.866 -3.0 0.0 0 CFG=2
M  V30 9 C 2.598 -3.0 0.0 0
M  V30 10 N 0.0 -3.5 0.0 0
M  V30 11 C 1.732 -3.5 0.0 0
M  V30 12 N -0.9135 -3.0932 0.0 0
M  V30 13 C -0.1045 -4.4945 0.0 0
M  V30 14 C -1.5826 -3.8364 0.0 0
M  V30 15 N 0.5646 -5.2376 0.0 0
M  V30 16 C -1.0826 -4.7024 0.0 0
M  V30 17 C -2.5771 -3.7318 0.0 0
M  V30 18 C 0.2555 -6.1887 0.0 0
M  V30 19 C -1.3916 -5.6534 0.0 0
M  V30 20 C -2.9839 -2.8183 0.0 0
M  V30 21 C -3.1649 -4.5408 0.0 0
M  V30 22 N -0.7225 -6.3966 0.0 0
M  V30 23 N -2.3698 -5.8614 0.0 0
M  V30 24 C -3.9784 -2.7138 0.0 0
M  V30 25 C -4.1595 -4.4363 0.0 0
M  V30 26 C -4.5662 -3.5228 0.0 0
M  V30 27 O -5.5607 -3.4182 0.0 0
M  V30 28 C -6.1485 -4.2273 0.0 0
M  V30 29 C -7.143 -4.1227 0.0 0
M  V30 30 C -5.7418 -5.1408 0.0 0
M  V30 31 C -7.7308 -4.9317 0.0 0
M  V30 32 C -6.3295 -5.9498 0.0 0
M  V30 33 C -7.3241 -5.8453 0.0 0
M  V30 END ATOM
M  V30 BEGIN BOND
M  V30 1 2 1 2
M  V30 2 1 2 3
M  V30 3 1 2 4
M  V30 4 1 3 5
M  V30 5 1 3 6
M  V30 6 2 4 7
M  V30 7 1 8 5
M  V30 8 1 6 9
M  V30 9 1 8 10 CFG=1
M  V30 10 1 8 11
M  V30 11 1 10 12
M  V30 12 1 10 13
M  V30 13 2 12 14
M  V30 14 2 13 15
M  V30 15 1 13 16
M  V30 16 1 14 17
M  V30 17 1 15 18
M  V30 18 2 16 19
M  V30 19 2 17 20
M  V30 20 1 17 21
M  V30 21 2 18 22
M  V30 22 1 19 23
M  V30 23 1 20 24
M  V30 24 2 21 25
M  V30 25 2 24 26
M  V30 26 1 26 27
M  V30 27 1 27 28
M  V30 28 2 28 29
M  V30 29 1 28 30
M  V30 30 1 29 31
M  V30 31 2 30 32
M  V30 32 2 31 33
M  V30 33 1 9 11
M  V30 34 1 14 16
M  V30 35 1 19 22
M  V30 36 1 25 26
M  V30 37 1 32 33
M  V30 END BOND
M  V30 BEGIN COLLECTION
M  V30 MDLV30/STEABS ATOMS=(1 8)
M  V30 END COLLECTION
M  V30 END CTAB
M  END
>  <Molecule Name>
Compound 510

>  <Molecule Name 2>
Compound 510

>  <Compound ID>
160

>  <Name>
Ibrutinib

>  <Uniprot>
P41240

>  <Target>
CSK

>  <Smiles>
C=CC(=O)N1CCC[C@@H](N2N=C(C3=CC=C(OC4=CC=CC=C4)C=C3)C3=C(N)N=CN=C32)C1

>  <Kd (nM)>


>  <Assay (Kd)>


>  <Ki (nM)>


>  <Assay (Ki)>


>  <IC50 (nM)>
2.2

>  <Assay (IC50)>
IC50 was assessed by the in vitro HotSpot kinase assay

>  <EC50 (nM)>


>  <Assay (EC50)>


>  <Article DOI>


>  <Molecular Weight>
440.507

>  <Exact Mass>
440.196074

>  <XLogP3>
3.57

>  <Heavy Atom Count>
33

>  <Ring Count>
5

>  <Hydrogen Bond Acceptor Count>
7

>  <Hydrogen Bond Donor Count>
1

>  <Rotatable Bond Count>
5

>  <Topological Polar Surface Area>
99.16

>  <Molecular Formula>
C25H24N6O2

>  <InChI>
InChI=1S/C25H24N6O2/c1-2-21(32)30-14-6-7-18(15-30)31-25-22(24(26)27-16-28-25)23(29-31)17-10-12-20(13-11-17)33-19-8-4-3-5-9-19/h2-5,8-13,16,18H,1,6-7,14-15H2,(H2,26,27,28)/t18-/m1/s1

>  <InChI Key>
XYFPWWZEPKGCCK-GOSISDBHSA-N

>  <BindingDB>
50357312

>  <PubChem>
24821094

>  <ChEMBL>
CHEMBL1873475

$$$$
160
Actelion Java MolfileCreator 2.0

  0  0  0  0  0  0              0 V3000
M  V30 BEGIN CTAB
M  V30 COUNTS 33 37 0 0 0
M  V30 BEGIN ATOM
M  V30 1 O 2.598 0.0 0.0 0
M  V30 2 C 1.732 -0.5 0.0 0
M  V30 3 N 1.732 -1.5 0.0 0
M  V30 4 C 0.866 0.0 0.0 0
M  V30 5 C 0.866 -2.0 0.0 0
M  V30 6 C 2.598 -2.0 0.0 0
M  V30 7 C 0.0 -0.5 0.0 0
M  V30 8 C 0.866 -3.0 0.0 0 CFG=2
M  V30 9 C 2.598 -3.0 0.0 0
M  V30 10 N 0.0 -3.5 0.0 0
M  V30 11 C 1.732 -3.5 0.0 0
M  V30 12 N -0.9135 -3.0932 0.0 0
M  V30 13 C -0.1045 -4.4945 0.0 0
M  V30 14 C -1.5826 -3.8364 0.0 0
M  V30 15 N 0.5646 -5.2376 0.0 0
M  V30 16 C -1.0826 -4.7024 0.0 0
M  V30 17 C -2.5771 -3.7318 0.0 0
M  V30 18 C 0.2555 -6.1887 0.0 0
M  V30 19 C -1.3916 -5.6534 0.0 0
M  V30 20 C -2.9839 -2.8183 0.0 0
M  V30 21 C -3.1649 -4.5408 0.0 0
M  V30 22 N -0.7225 -6.3966 0.0 0
M  V30 23 N -2.3698 -5.8614 0.0 0
M  V30 24 C -3.9784 -2.7138 0.0 0
M  V30 25 C -4.1595 -4.4363 0.0 0
M  V30 26 C -4.5662 -3.5228 0.0 0
M  V30 27 O -5.5607 -3.4182 0.0 0
M  V30 28 C -6.1485 -4.2273 0.0 0
M  V30 29 C -7.143 -4.1227 0.0 0
M  V30 30 C -5.7418 -5.1408 0.0 0
M  V30 31 C -7.7308 -4.9317 0.0 0
M  V30 32 C -6.3295 -5.9498 0.0 0
M  V30 33 C -7.3241 -5.8453 0.0 0
M  V30 END ATOM
M  V30 BEGIN BOND
M  V30 1 2 1 2
M  V30 2 1 2 3
M  V30 3 1 2 4
M  V30 4 1 3 5
M  V30 5 1 3 6
M  V30 6 2 4 7
M  V30 7 1 8 5
M  V30 8 1 6 9
M  V30 9 1 8 10 CFG=1
M  V30 10 1 8 11
M  V30 11 1 10 12
M  V30 12 1 10 13
M  V30 13 2 12 14
M  V30 14 2 13 15
M  V30 15 1 13 16
M  V30 16 1 14 17
M  V30 17 1 15 18
M  V30 18 2 16 19
M  V30 19 2 17 20
M  V30 20 1 17 21
M  V30 21 2 18 22
M  V30 22 1 19 23
M  V30 23 1 20 24
M  V30 24 2 21 25
M  V30 25 2 24 26
M  V30 26 1 26 27
M  V30 27 1 27 28
M  V30 28 2 28 29
M  V30 29 1 28 30
M  V30 30 1 29 31
M  V30 31 2 30 32
M  V30 32 2 31 33
M  V30 33 1 9 11
M  V30 34 1 14 16
M  V30 35 1 19 22
M  V30 36 1 25 26
M  V30 37 1 32 33
M  V30 END BOND
M  V30 BEGIN COLLECTION
M  V30 MDLV30/STEABS ATOMS=(1 8)
M  V30 END COLLECTION
M  V30 END CTAB
M  END
>  <Molecule Name>
Compound 511

>  <Molecule Name 2>
Compound 511

>  <Compound ID>
160

>  <Name>
Ibrutinib

>  <Uniprot>
P06241

>  <Target>
FYN

>  <Smiles>
C=CC(=O)N1CCC[C@@H](N2N=C(C3=CC=C(OC4=CC=CC=C4)C=C3)C3=C(N)N=CN=C32)C1

>  <Kd (nM)>


>  <Assay (Kd)>


>  <Ki (nM)>


>  <Assay (Ki)>


>  <IC50 (nM)>
95.6

>  <Assay (IC50)>
IC50 was assessed by the in vitro HotSpot kinase assay

>  <EC50 (nM)>


>  <Assay (EC50)>


>  <Article DOI>


>  <Molecular Weight>
440.507

>  <Exact Mass>
440.196074

>  <XLogP3>
3.57

>  <Heavy Atom Count>
33

>  <Ring Count>
5

>  <Hydrogen Bond Acceptor Count>
7

>  <Hydrogen Bond Donor Count>
1

>  <Rotatable Bond Count>
5

>  <Topological Polar Surface Area>
99.16

>  <Molecular Formula>
C25H24N6O2

>  <InChI>
InChI=1S/C25H24N6O2/c1-2-21(32)30-14-6-7-18(15-30)31-25-22(24(26)27-16-28-25)23(29-31)17-10-12-20(13-11-17)33-19-8-4-3-5-9-19/h2-5,8-13,16,18H,1,6-7,14-15H2,(H2,26,27,28)/t18-/m1/s1

>  <InChI Key>
XYFPWWZEPKGCCK-GOSISDBHSA-N

>  <BindingDB>
50357312

>  <PubChem>
24821094

>  <ChEMBL>
CHEMBL1873475

$$$$
160
Actelion Java MolfileCreator 2.0

  0  0  0  0  0  0              0 V3000
M  V30 BEGIN CTAB
M  V30 COUNTS 33 37 0 0 0
M  V30 BEGIN ATOM
M  V30 1 O 2.598 0.0 0.0 0
M  V30 2 C 1.732 -0.5 0.0 0
M  V30 3 N 1.732 -1.5 0.0 0
M  V30 4 C 0.866 0.0 0.0 0
M  V30 5 C 0.866 -2.0 0.0 0
M  V30 6 C 2.598 -2.0 0.0 0
M  V30 7 C 0.0 -0.5 0.0 0
M  V30 8 C 0.866 -3.0 0.0 0 CFG=2
M  V30 9 C 2.598 -3.0 0.0 0
M  V30 10 N 0.0 -3.5 0.0 0
M  V30 11 C 1.732 -3.5 0.0 0
M  V30 12 N -0.9135 -3.0932 0.0 0
M  V30 13 C -0.1045 -4.4945 0.0 0
M  V30 14 C -1.5826 -3.8364 0.0 0
M  V30 15 N 0.5646 -5.2376 0.0 0
M  V30 16 C -1.0826 -4.7024 0.0 0
M  V30 17 C -2.5771 -3.7318 0.0 0
M  V30 18 C 0.2555 -6.1887 0.0 0
M  V30 19 C -1.3916 -5.6534 0.0 0
M  V30 20 C -2.9839 -2.8183 0.0 0
M  V30 21 C -3.1649 -4.5408 0.0 0
M  V30 22 N -0.7225 -6.3966 0.0 0
M  V30 23 N -2.3698 -5.8614 0.0 0
M  V30 24 C -3.9784 -2.7138 0.0 0
M  V30 25 C -4.1595 -4.4363 0.0 0
M  V30 26 C -4.5662 -3.5228 0.0 0
M  V30 27 O -5.5607 -3.4182 0.0 0
M  V30 28 C -6.1485 -4.2273 0.0 0
M  V30 29 C -7.143 -4.1227 0.0 0
M  V30 30 C -5.7418 -5.1408 0.0 0
M  V30 31 C -7.7308 -4.9317 0.0 0
M  V30 32 C -6.3295 -5.9498 0.0 0
M  V30 33 C -7.3241 -5.8453 0.0 0
M  V30 END ATOM
M  V30 BEGIN BOND
M  V30 1 2 1 2
M  V30 2 1 2 3
M  V30 3 1 2 4
M  V30 4 1 3 5
M  V30 5 1 3 6
M  V30 6 2 4 7
M  V30 7 1 8 5
M  V30 8 1 6 9
M  V30 9 1 8 10 CFG=1
M  V30 10 1 8 11
M  V30 11 1 10 12
M  V30 12 1 10 13
M  V30 13 2 12 14
M  V30 14 2 13 15
M  V30 15 1 13 16
M  V30 16 1 14 17
M  V30 17 1 15 18
M  V30 18 2 16 19
M  V30 19 2 17 20
M  V30 20 1 17 21
M  V30 21 2 18 22
M  V30 22 1 19 23
M  V30 23 1 20 24
M  V30 24 2 21 25
M  V30 25 2 24 26
M  V30 26 1 26 27
M  V30 27 1 27 28
M  V30 28 2 28 29
M  V30 29 1 28 30
M  V30 30 1 29 31
M  V30 31 2 30 32
M  V30 32 2 31 33
M  V30 33 1 9 11
M  V30 34 1 14 16
M  V30 35 1 19 22
M  V30 36 1 25 26
M  V30 37 1 32 33
M  V30 END BOND
M  V30 BEGIN COLLECTION
M  V30 MDLV30/STEABS ATOMS=(1 8)
M  V30 END COLLECTION
M  V30 END CTAB
M  END
>  <Molecule Name>
Compound 512

>  <Molecule Name 2>
Compound 512

>  <Compound ID>
160

>  <Name>
Ibrutinib

>  <Uniprot>
P06239

>  <Target>
LCK

>  <Smiles>
C=CC(=O)N1CCC[C@@H](N2N=C(C3=CC=C(OC4=CC=CC=C4)C=C3)C3=C(N)N=CN=C32)C1

>  <Kd (nM)>


>  <Assay (Kd)>


>  <Ki (nM)>


>  <Assay (Ki)>


>  <IC50 (nM)>
2

>  <Assay (IC50)>
IC50 was assessed by the in vitro HotSpot kinase assay

>  <EC50 (nM)>


>  <Assay (EC50)>


>  <Article DOI>


>  <Molecular Weight>
440.507

>  <Exact Mass>
440.196074

>  <XLogP3>
3.57

>  <Heavy Atom Count>
33

>  <Ring Count>
5

>  <Hydrogen Bond Acceptor Count>
7

>  <Hydrogen Bond Donor Count>
1

>  <Rotatable Bond Count>
5

>  <Topological Polar Surface Area>
99.16

>  <Molecular Formula>
C25H24N6O2

>  <InChI>
InChI=1S/C25H24N6O2/c1-2-21(32)30-14-6-7-18(15-30)31-25-22(24(26)27-16-28-25)23(29-31)17-10-12-20(13-11-17)33-19-8-4-3-5-9-19/h2-5,8-13,16,18H,1,6-7,14-15H2,(H2,26,27,28)/t18-/m1/s1

>  <InChI Key>
XYFPWWZEPKGCCK-GOSISDBHSA-N

>  <BindingDB>
50357312

>  <PubChem>
24821094

>  <ChEMBL>
CHEMBL1873475

$$$$
160
Actelion Java MolfileCreator 2.0

  0  0  0  0  0  0              0 V3000
M  V30 BEGIN CTAB
M  V30 COUNTS 33 37 0 0 0
M  V30 BEGIN ATOM
M  V30 1 O 2.598 0.0 0.0 0
M  V30 2 C 1.732 -0.5 0.0 0
M  V30 3 N 1.732 -1.5 0.0 0
M  V30 4 C 0.866 0.0 0.0 0
M  V30 5 C 0.866 -2.0 0.0 0
M  V30 6 C 2.598 -2.0 0.0 0
M  V30 7 C 0.0 -0.5 0.0 0
M  V30 8 C 0.866 -3.0 0.0 0 CFG=2
M  V30 9 C 2.598 -3.0 0.0 0
M  V30 10 N 0.0 -3.5 0.0 0
M  V30 11 C 1.732 -3.5 0.0 0
M  V30 12 N -0.9135 -3.0932 0.0 0
M  V30 13 C -0.1045 -4.4945 0.0 0
M  V30 14 C -1.5826 -3.8364 0.0 0
M  V30 15 N 0.5646 -5.2376 0.0 0
M  V30 16 C -1.0826 -4.7024 0.0 0
M  V30 17 C -2.5771 -3.7318 0.0 0
M  V30 18 C 0.2555 -6.1887 0.0 0
M  V30 19 C -1.3916 -5.6534 0.0 0
M  V30 20 C -2.9839 -2.8183 0.0 0
M  V30 21 C -3.1649 -4.5408 0.0 0
M  V30 22 N -0.7225 -6.3966 0.0 0
M  V30 23 N -2.3698 -5.8614 0.0 0
M  V30 24 C -3.9784 -2.7138 0.0 0
M  V30 25 C -4.1595 -4.4363 0.0 0
M  V30 26 C -4.5662 -3.5228 0.0 0
M  V30 27 O -5.5607 -3.4182 0.0 0
M  V30 28 C -6.1485 -4.2273 0.0 0
M  V30 29 C -7.143 -4.1227 0.0 0
M  V30 30 C -5.7418 -5.1408 0.0 0
M  V30 31 C -7.7308 -4.9317 0.0 0
M  V30 32 C -6.3295 -5.9498 0.0 0
M  V30 33 C -7.3241 -5.8453 0.0 0
M  V30 END ATOM
M  V30 BEGIN BOND
M  V30 1 2 1 2
M  V30 2 1 2 3
M  V30 3 1 2 4
M  V30 4 1 3 5
M  V30 5 1 3 6
M  V30 6 2 4 7
M  V30 7 1 8 5
M  V30 8 1 6 9
M  V30 9 1 8 10 CFG=1
M  V30 10 1 8 11
M  V30 11 1 10 12
M  V30 12 1 10 13
M  V30 13 2 12 14
M  V30 14 2 13 15
M  V30 15 1 13 16
M  V30 16 1 14 17
M  V30 17 1 15 18
M  V30 18 2 16 19
M  V30 19 2 17 20
M  V30 20 1 17 21
M  V30 21 2 18 22
M  V30 22 1 19 23
M  V30 23 1 20 24
M  V30 24 2 21 25
M  V30 25 2 24 26
M  V30 26 1 26 27
M  V30 27 1 27 28
M  V30 28 2 28 29
M  V30 29 1 28 30
M  V30 30 1 29 31
M  V30 31 2 30 32
M  V30 32 2 31 33
M  V30 33 1 9 11
M  V30 34 1 14 16
M  V30 35 1 19 22
M  V30 36 1 25 26
M  V30 37 1 32 33
M  V30 END BOND
M  V30 BEGIN COLLECTION
M  V30 MDLV30/STEABS ATOMS=(1 8)
M  V30 END COLLECTION
M  V30 END CTAB
M  END
>  <Molecule Name>
Compound 513

>  <Molecule Name 2>
Compound 513

>  <Compound ID>
160

>  <Name>
Ibrutinib

>  <Uniprot>
P12931

>  <Target>
Src

>  <Smiles>
C=CC(=O)N1CCC[C@@H](N2N=C(C3=CC=C(OC4=CC=CC=C4)C=C3)C3=C(N)N=CN=C32)C1

>  <Kd (nM)>


>  <Assay (Kd)>


>  <Ki (nM)>


>  <Assay (Ki)>


>  <IC50 (nM)>
263

>  <Assay (IC50)>
IC50 was assessed by the in vitro HotSpot kinase assay

>  <EC50 (nM)>


>  <Assay (EC50)>


>  <Article DOI>


>  <Molecular Weight>
440.507

>  <Exact Mass>
440.196074

>  <XLogP3>
3.57

>  <Heavy Atom Count>
33

>  <Ring Count>
5

>  <Hydrogen Bond Acceptor Count>
7

>  <Hydrogen Bond Donor Count>
1

>  <Rotatable Bond Count>
5

>  <Topological Polar Surface Area>
99.16

>  <Molecular Formula>
C25H24N6O2

>  <InChI>
InChI=1S/C25H24N6O2/c1-2-21(32)30-14-6-7-18(15-30)31-25-22(24(26)27-16-28-25)23(29-31)17-10-12-20(13-11-17)33-19-8-4-3-5-9-19/h2-5,8-13,16,18H,1,6-7,14-15H2,(H2,26,27,28)/t18-/m1/s1

>  <InChI Key>
XYFPWWZEPKGCCK-GOSISDBHSA-N

>  <BindingDB>
50357312

>  <PubChem>
24821094

>  <ChEMBL>
CHEMBL1873475

$$$$
160
Actelion Java MolfileCreator 2.0

  0  0  0  0  0  0              0 V3000
M  V30 BEGIN CTAB
M  V30 COUNTS 33 37 0 0 0
M  V30 BEGIN ATOM
M  V30 1 O 2.598 0.0 0.0 0
M  V30 2 C 1.732 -0.5 0.0 0
M  V30 3 N 1.732 -1.5 0.0 0
M  V30 4 C 0.866 0.0 0.0 0
M  V30 5 C 0.866 -2.0 0.0 0
M  V30 6 C 2.598 -2.0 0.0 0
M  V30 7 C 0.0 -0.5 0.0 0
M  V30 8 C 0.866 -3.0 0.0 0 CFG=2
M  V30 9 C 2.598 -3.0 0.0 0
M  V30 10 N 0.0 -3.5 0.0 0
M  V30 11 C 1.732 -3.5 0.0 0
M  V30 12 N -0.9135 -3.0932 0.0 0
M  V30 13 C -0.1045 -4.4945 0.0 0
M  V30 14 C -1.5826 -3.8364 0.0 0
M  V30 15 N 0.5646 -5.2376 0.0 0
M  V30 16 C -1.0826 -4.7024 0.0 0
M  V30 17 C -2.5771 -3.7318 0.0 0
M  V30 18 C 0.2555 -6.1887 0.0 0
M  V30 19 C -1.3916 -5.6534 0.0 0
M  V30 20 C -2.9839 -2.8183 0.0 0
M  V30 21 C -3.1649 -4.5408 0.0 0
M  V30 22 N -0.7225 -6.3966 0.0 0
M  V30 23 N -2.3698 -5.8614 0.0 0
M  V30 24 C -3.9784 -2.7138 0.0 0
M  V30 25 C -4.1595 -4.4363 0.0 0
M  V30 26 C -4.5662 -3.5228 0.0 0
M  V30 27 O -5.5607 -3.4182 0.0 0
M  V30 28 C -6.1485 -4.2273 0.0 0
M  V30 29 C -7.143 -4.1227 0.0 0
M  V30 30 C -5.7418 -5.1408 0.0 0
M  V30 31 C -7.7308 -4.9317 0.0 0
M  V30 32 C -6.3295 -5.9498 0.0 0
M  V30 33 C -7.3241 -5.8453 0.0 0
M  V30 END ATOM
M  V30 BEGIN BOND
M  V30 1 2 1 2
M  V30 2 1 2 3
M  V30 3 1 2 4
M  V30 4 1 3 5
M  V30 5 1 3 6
M  V30 6 2 4 7
M  V30 7 1 8 5
M  V30 8 1 6 9
M  V30 9 1 8 10 CFG=1
M  V30 10 1 8 11
M  V30 11 1 10 12
M  V30 12 1 10 13
M  V30 13 2 12 14
M  V30 14 2 13 15
M  V30 15 1 13 16
M  V30 16 1 14 17
M  V30 17 1 15 18
M  V30 18 2 16 19
M  V30 19 2 17 20
M  V30 20 1 17 21
M  V30 21 2 18 22
M  V30 22 1 19 23
M  V30 23 1 20 24
M  V30 24 2 21 25
M  V30 25 2 24 26
M  V30 26 1 26 27
M  V30 27 1 27 28
M  V30 28 2 28 29
M  V30 29 1 28 30
M  V30 30 1 29 31
M  V30 31 2 30 32
M  V30 32 2 31 33
M  V30 33 1 9 11
M  V30 34 1 14 16
M  V30 35 1 19 22
M  V30 36 1 25 26
M  V30 37 1 32 33
M  V30 END BOND
M  V30 BEGIN COLLECTION
M  V30 MDLV30/STEABS ATOMS=(1 8)
M  V30 END COLLECTION
M  V30 END CTAB
M  END
>  <Molecule Name>
Compound 514

>  <Molecule Name 2>
Compound 514

>  <Compound ID>
160

>  <Name>
Ibrutinib

>  <Uniprot>
P42680

>  <Target>
TEC

>  <Smiles>
C=CC(=O)N1CCC[C@@H](N2N=C(C3=CC=C(OC4=CC=CC=C4)C=C3)C3=C(N)N=CN=C32)C1

>  <Kd (nM)>


>  <Assay (Kd)>


>  <Ki (nM)>


>  <Assay (Ki)>


>  <IC50 (nM)>
77.8

>  <Assay (IC50)>
IC50 was assessed by the in vitro HotSpot kinase assay

>  <EC50 (nM)>


>  <Assay (EC50)>


>  <Article DOI>


>  <Molecular Weight>
440.507

>  <Exact Mass>
440.196074

>  <XLogP3>
3.57

>  <Heavy Atom Count>
33

>  <Ring Count>
5

>  <Hydrogen Bond Acceptor Count>
7

>  <Hydrogen Bond Donor Count>
1

>  <Rotatable Bond Count>
5

>  <Topological Polar Surface Area>
99.16

>  <Molecular Formula>
C25H24N6O2

>  <InChI>
InChI=1S/C25H24N6O2/c1-2-21(32)30-14-6-7-18(15-30)31-25-22(24(26)27-16-28-25)23(29-31)17-10-12-20(13-11-17)33-19-8-4-3-5-9-19/h2-5,8-13,16,18H,1,6-7,14-15H2,(H2,26,27,28)/t18-/m1/s1

>  <InChI Key>
XYFPWWZEPKGCCK-GOSISDBHSA-N

>  <BindingDB>
50357312

>  <PubChem>
24821094

>  <ChEMBL>
CHEMBL1873475

$$$$
161
Actelion Java MolfileCreator 2.0

  0  0  0  0  0  0              0 V3000
M  V30 BEGIN CTAB
M  V30 COUNTS 43 48 0 0 0
M  V30 BEGIN ATOM
M  V30 1 Cl 2.598 2.25 0.0 0
M  V30 2 C 3.8971 1.5 0.0 0
M  V30 3 C 3.8971 0.0 0.0 0
M  V30 4 C 5.1961 2.25 0.0 0
M  V30 5 C 5.1961 -0.75 0.0 0
M  V30 6 C 2.598 -0.75 0.0 0
M  V30 7 C 6.4951 1.5 0.0 0
M  V30 8 Cl 5.1961 -2.25 0.0 0
M  V30 9 C 6.4951 0.0 0.0 0
M  V30 10 S 1.299 0.0 0.0 0
M  V30 11 O 2.049 1.299 0.0 0
M  V30 12 O 0.549 1.299 0.0 0
M  V30 13 C 0.0 -0.75 0.0 0
M  V30 14 C 0.0 -2.25 0.0 0
M  V30 15 C -1.299 0.0 0.0 0
M  V30 16 C -1.299 -3.0 0.0 0
M  V30 17 C -2.598 -0.75 0.0 0
M  V30 18 C -2.598 -2.25 0.0 0
M  V30 19 C -1.6109 -4.4672 0.0 0
M  V30 20 N -3.7127 -3.2536 0.0 0
M  V30 21 C -3.1026 -4.624 0.0 0
M  V30 22 C -0.6072 -5.5819 0.0 0
M  V30 23 O -3.8526 -5.923 0.0 0
M  V30 24 C -1.0707 -7.0085 0.0 0
M  V30 25 N -2.4973 -7.472 0.0 0
M  V30 26 C -0.189 -8.222 0.0 0
M  V30 27 C -2.4973 -8.972 0.0 0
M  V30 28 C -1.0707 -9.4355 0.0 0
M  V30 29 C 1.3109 -8.222 0.0 0
M  V30 30 C -3.7108 -9.8537 0.0 0
M  V30 31 C -0.6072 -10.8621 0.0 0
M  V30 32 O -1.6109 -11.9768 0.0 0
M  V30 33 N 0.86 -11.174 0.0 0
M  V30 34 C 1.4701 -12.5443 0.0 0 CFG=2
M  V30 35 C 1.9747 -10.1703 0.0 0
M  V30 36 C 2.9619 -12.3875 0.0 0
M  V30 37 C 0.7201 -13.8433 0.0 0
M  V30 38 C 3.2737 -10.9203 0.0 0
M  V30 39 N 1.4701 -15.1424 0.0 0
M  V30 40 C 0.86 -16.5127 0.0 0
M  V30 41 C 2.9619 -15.2992 0.0 0
M  V30 42 C 1.9747 -17.5164 0.0 0
M  V30 43 C 3.2737 -16.7664 0.0 0
M  V30 END ATOM
M  V30 BEGIN BOND
M  V30 1 1 1 2
M  V30 2 2 2 3
M  V30 3 1 2 4
M  V30 4 1 3 5
M  V30 5 1 3 6
M  V30 6 2 4 7
M  V30 7 1 5 8
M  V30 8 2 5 9
M  V30 9 1 6 10
M  V30 10 2 10 11
M  V30 11 2 10 12
M  V30 12 1 10 13
M  V30 13 2 13 14
M  V30 14 1 13 15
M  V30 15 1 14 16
M  V30 16 2 15 17
M  V30 17 2 16 18
M  V30 18 1 16 19
M  V30 19 1 18 20
M  V30 20 1 19 21
M  V30 21 2 19 22
M  V30 22 2 21 23
M  V30 23 1 22 24
M  V30 24 1 24 25
M  V30 25 2 24 26
M  V30 26 1 25 27
M  V30 27 1 26 28
M  V30 28 1 26 29
M  V30 29 1 27 30
M  V30 30 1 28 31
M  V30 31 2 31 32
M  V30 32 1 31 33
M  V30 33 1 34 33
M  V30 34 1 33 35
M  V30 35 1 34 36
M  V30 36 1 34 37 CFG=3
M  V30 37 1 35 38
M  V30 38 1 37 39
M  V30 39 1 39 40
M  V30 40 1 39 41
M  V30 41 1 40 42
M  V30 42 1 41 43
M  V30 43 1 7 9
M  V30 44 1 17 18
M  V30 45 1 20 21
M  V30 46 2 27 28
M  V30 47 1 36 38
M  V30 48 1 42 43
M  V30 END BOND
M  V30 BEGIN COLLECTION
M  V30 MDLV30/STEABS ATOMS=(1 34)
M  V30 END COLLECTION
M  V30 END CTAB
M  END
>  <Molecule Name>
Compound 515

>  <Molecule Name 2>
Compound 515

>  <Compound ID>
161

>  <Name>
PHA665752

>  <Uniprot>
P08581

>  <Target>
c-Met

>  <Smiles>
CC1=C(C(=O)N2CCC[C@@H]2CN2CCCC2)C(C)=C(/C=C2\C(=O)NC3=CC=C(S(=O)(=O)CC4=C(Cl)C=CC=C4Cl)C=C23)[NH]1

>  <Kd (nM)>


>  <Assay (Kd)>


>  <Ki (nM)>


>  <Assay (Ki)>


>  <IC50 (nM)>
9

>  <Assay (IC50)>
IC50 of c-MET was determined by A549 c-MET cellular assay

>  <EC50 (nM)>


>  <Assay (EC50)>


>  <Article DOI>
10.1021/jm2007613

>  <Molecular Weight>
641.621

>  <Exact Mass>
640.1677819

>  <XLogP3>
5.01

>  <Heavy Atom Count>
43

>  <Ring Count>
6

>  <Hydrogen Bond Acceptor Count>
5

>  <Hydrogen Bond Donor Count>
2

>  <Rotatable Bond Count>
7

>  <Topological Polar Surface Area>
102.58

>  <Molecular Formula>
C32H34Cl2N4O4S

>  <InChI>
InChI=1S/C32H34Cl2N4O4S/c1-19-29(35-20(2)30(19)32(40)38-14-6-7-21(38)17-37-12-3-4-13-37)16-24-23-15-22(10-11-28(23)36-31(24)39)43(41,42)18-25-26(33)8-5-9-27(25)34/h5,8-11,15-16,21,35H,3-4,6-7,12-14,17-18H2,1-2H3,(H,36,39)/b24-16-/t21-/m1/s1

>  <InChI Key>
OYONTEXKYJZFHA-SSHUPFPWSA-N

>  <BindingDB>
50242737

>  <PubChem>
10461815

>  <ChEMBL>
CHEMBL450786

$$$$
162
Actelion Java MolfileCreator 2.0

  0  0  0  0  0  0              0 V3000
M  V30 BEGIN CTAB
M  V30 COUNTS 29 31 0 0 0
M  V30 BEGIN ATOM
M  V30 1 F 12.5435 -0.2374 0.0 0
M  V30 2 C 11.8744 0.5056 0.0 0
M  V30 3 C 10.8962 0.2977 0.0 0
M  V30 4 C 12.1834 1.4567 0.0 0
M  V30 5 C 10.2271 1.0408 0.0 0
M  V30 6 C 11.5143 2.1998 0.0 0
M  V30 7 C 10.5361 1.9919 0.0 0
M  V30 8 C 9.2271 1.0408 0.0 0
M  V30 9 N 9.7271 2.5797 0.0 0
M  V30 10 C 8.9181 1.9919 0.0 0
M  V30 11 C 8.6393 0.2318 0.0 0
M  V30 12 O 7.967 2.3009 0.0 0
M  V30 13 C 7.6448 0.3364 0.0 0
M  V30 14 N 7.1448 1.2024 0.0 0
M  V30 15 C 6.9757 -0.4067 0.0 0
M  V30 16 C 6.1667 0.9945 0.0 0
M  V30 17 C 6.0621 0.0 0.0 0
M  V30 18 C 7.1836 -1.3848 0.0 0
M  V30 19 C 5.4235 1.6636 0.0 0
M  V30 20 C 5.1961 -0.5 0.0 0
M  V30 21 O 5.1961 -1.4999 0.0 0
M  V30 22 N 4.3301 0.0 0.0 0
M  V30 23 C 3.4641 -0.5 0.0 0
M  V30 24 C 2.598 0.0 0.0 0
M  V30 25 N 1.732 -0.5 0.0 0
M  V30 26 C 1.732 -1.5 0.0 0
M  V30 27 C 0.866 0.0 0.0 0
M  V30 28 C 2.598 -1.9999 0.0 0
M  V30 29 C 0.0 -0.5 0.0 0
M  V30 END ATOM
M  V30 BEGIN BOND
M  V30 1 1 1 2
M  V30 2 2 2 3
M  V30 3 1 2 4
M  V30 4 1 3 5
M  V30 5 2 4 6
M  V30 6 2 5 7
M  V30 7 1 5 8
M  V30 8 1 7 9
M  V30 9 1 8 10
M  V30 10 2 8 11
M  V30 11 2 10 12
M  V30 12 1 11 13
M  V30 13 1 13 14
M  V30 14 2 13 15
M  V30 15 1 14 16
M  V30 16 1 15 17
M  V30 17 1 15 18
M  V30 18 1 16 19
M  V30 19 1 17 20
M  V30 20 2 20 21
M  V30 21 1 20 22
M  V30 22 1 22 23
M  V30 23 1 23 24
M  V30 24 1 24 25
M  V30 25 1 25 26
M  V30 26 1 25 27
M  V30 27 1 26 28
M  V30 28 1 27 29
M  V30 29 1 6 7
M  V30 30 1 9 10
M  V30 31 2 16 17
M  V30 END BOND
M  V30 END CTAB
M  END
>  <Molecule Name>
Compound 516

>  <Molecule Name 2>
Compound 516

>  <Compound ID>
162

>  <Name>
Sunitinib

>  <Uniprot>
P10721

>  <Target>
c-KIT

>  <Smiles>
CCN(CC)CCNC(=O)C1=C(C)[NH]C(/C=C2\C(=O)NC3=CC=C(F)C=C23)=C1C

>  <Kd (nM)>


>  <Assay (Kd)>


>  <Ki (nM)>


>  <Assay (Ki)>


>  <IC50 (nM)>
4

>  <Assay (IC50)>
Ki of c-KIT

>  <EC50 (nM)>


>  <Assay (EC50)>


>  <Article DOI>
10.1016/j.ejmech.2014.05.051

>  <Molecular Weight>
398.482

>  <Exact Mass>
398.2118043

>  <XLogP3>
2.63

>  <Heavy Atom Count>
29

>  <Ring Count>
3

>  <Hydrogen Bond Acceptor Count>
3

>  <Hydrogen Bond Donor Count>
3

>  <Rotatable Bond Count>
7

>  <Topological Polar Surface Area>
77.23

>  <Molecular Formula>
C22H27FN4O2

>  <InChI>
InChI=1S/C22H27FN4O2/c1-5-27(6-2)10-9-24-22(29)20-13(3)19(25-14(20)4)12-17-16-11-15(23)7-8-18(16)26-21(17)28/h7-8,11-12,25H,5-6,9-10H2,1-4H3,(H,24,29)(H,26,28)/b17-12-

>  <InChI Key>
WINHZLLDWRZWRT-ATVHPVEESA-N

>  <BindingDB>
4814

>  <PubChem>
5329102

>  <ChEMBL>
CHEMBL535

$$$$
163
Actelion Java MolfileCreator 2.0

  0  0  0  0  0  0              0 V3000
M  V30 BEGIN CTAB
M  V30 COUNTS 22 23 0 0 0
M  V30 BEGIN ATOM
M  V30 1 Cl 9.6313 -2.6893 0.0 0
M  V30 2 C 9.6313 -1.1893 0.0 0
M  V30 3 C 10.9304 -0.4393 0.0 0
M  V30 4 C 8.3323 -0.4393 0.0 0
M  V30 5 C 12.2294 -1.1893 0.0 0
M  V30 6 C 10.9304 1.0606 0.0 0
M  V30 7 C 8.3323 1.0606 0.0 0
M  V30 8 N 13.5285 -1.9393 0.0 0
M  V30 9 C 9.6313 1.8106 0.0 0
M  V30 10 O 7.0332 1.8106 0.0 0
M  V30 11 C 5.7342 1.0606 0.0 0
M  V30 12 C 4.2853 1.4488 0.0 0
M  V30 13 C 5.346 -0.3882 0.0 0
M  V30 14 C 3.8971 0.0 0.0 0
M  V30 15 C 4.2853 2.9488 0.0 0
M  V30 16 C 2.9863 2.1988 0.0 0
M  V30 17 C 5.346 -1.8882 0.0 0
M  V30 18 C 6.645 -1.1381 0.0 0
M  V30 19 N 2.598 -0.75 0.0 0
M  V30 20 C 1.299 0.0 0.0 0
M  V30 21 O 1.299 1.5 0.0 0
M  V30 22 O 0.0 -0.75 0.0 0
M  V30 END ATOM
M  V30 BEGIN BOND
M  V30 1 1 1 2
M  V30 2 2 2 3
M  V30 3 1 2 4
M  V30 4 1 3 5
M  V30 5 1 3 6
M  V30 6 2 4 7
M  V30 7 3 5 8
M  V30 8 2 6 9
M  V30 9 1 7 10
M  V30 10 1 10 11
M  V30 11 1 11 12
M  V30 12 1 11 13
M  V30 13 1 12 14
M  V30 14 1 12 15
M  V30 15 1 12 16
M  V30 16 1 13 17
M  V30 17 1 13 18
M  V30 18 1 14 19
M  V30 19 1 19 20
M  V30 20 2 20 21
M  V30 21 1 20 22
M  V30 22 1 7 9
M  V30 23 1 13 14
M  V30 END BOND
M  V30 END CTAB
M  END
>  <Molecule Name>
Compound 517

>  <Molecule Name 2>
Compound 517

>  <Compound ID>
163

>  <Name>


>  <Uniprot>
P10275

>  <Target>
AR

>  <Smiles>
CC1(C)C(NC(=O)O)C(C)(C)C1OC1=CC=C(C#N)C(Cl)=C1

>  <Kd (nM)>


>  <Assay (Kd)>


>  <Ki (nM)>


>  <Assay (Ki)>


>  <IC50 (nM)>


>  <Assay (IC50)>


>  <EC50 (nM)>


>  <Assay (EC50)>


>  <Article DOI>


>  <Molecular Weight>
322.792

>  <Exact Mass>
322.1084201

>  <XLogP3>
3.92

>  <Heavy Atom Count>
22

>  <Ring Count>
2

>  <Hydrogen Bond Acceptor Count>
3

>  <Hydrogen Bond Donor Count>
2

>  <Rotatable Bond Count>
3

>  <Topological Polar Surface Area>
82.35

>  <Molecular Formula>
C16H19ClN2O3

>  <InChI>
InChI=1S/C16H19ClN2O3/c1-15(2)12(19-14(20)21)16(3,4)13(15)22-10-6-5-9(8-18)11(17)7-10/h5-7,12-13,19H,1-4H3,(H,20,21)

>  <InChI Key>
SUTJUSYMYIEGKA-UHFFFAOYSA-N

>  <BindingDB>


>  <PubChem>
122423189

>  <ChEMBL>


$$$$
164
Actelion Java MolfileCreator 2.0

  0  0  0  0  0  0              0 V3000
M  V30 BEGIN CTAB
M  V30 COUNTS 29 34 0 0 0
M  V30 BEGIN ATOM
M  V30 1 Cl 0.866 0.0 0.0 0
M  V30 2 C 0.0 -0.5 0.0 0
M  V30 3 C -0.866 0.0 0.0 0
M  V30 4 C 0.0 -1.4999 0.0 0
M  V30 5 C -1.732 -0.4999 0.0 0
M  V30 6 C -0.866 -1.9999 0.0 0
M  V30 7 C -1.732 -1.4999 0.0 0
M  V30 8 C -2.598 -1.9999 0.0 0
M  V30 9 N -3.4243 -1.4366 0.0 0
M  V30 10 C -2.5233 -2.9972 0.0 0
M  V30 11 C -4.3798 -1.7314 0.0 0
M  V30 12 C -3.2563 -3.6773 0.0 0
M  V30 13 C -1.5677 -3.2919 0.0 0
M  V30 14 C -4.7452 -2.6623 0.0 0
M  V30 15 C -4.6024 -0.7565 0.0 0
M  V30 16 C -5.3354 -1.4366 0.0 0
M  V30 17 N -4.2452 -3.5283 0.0 0
M  V30 18 C -3.0338 -4.6523 0.0 0
M  V30 19 C -1.3452 -4.2668 0.0 0
M  V30 20 N -5.7233 -2.8702 0.0 0
M  V30 21 C -4.9143 -4.2714 0.0 0
M  V30 22 C -2.0783 -4.947 0.0 0
M  V30 23 C -0.3896 -4.5616 0.0 0
M  V30 24 N -5.8279 -3.8647 0.0 0
M  V30 25 C -4.7064 -5.2496 0.0 0
M  V30 26 C -0.0664 -5.5079 0.0 0
M  V30 27 C 0.4104 -3.9618 0.0 0
M  V30 28 N 0.9334 -5.493 0.0 0
M  V30 29 N 1.2281 -4.5374 0.0 0
M  V30 END ATOM
M  V30 BEGIN BOND
M  V30 1 1 1 2
M  V30 2 2 2 3
M  V30 3 1 2 4
M  V30 4 1 3 5
M  V30 5 2 4 6
M  V30 6 2 5 7
M  V30 7 1 7 8
M  V30 8 2 8 9
M  V30 9 1 8 10
M  V30 10 1 9 11
M  V30 11 2 10 12
M  V30 12 1 10 13
M  V30 13 1 11 14
M  V30 14 1 11 15
M  V30 15 1 11 16
M  V30 16 1 12 17
M  V30 17 1 12 18
M  V30 18 2 13 19
M  V30 19 2 14 20
M  V30 20 1 17 21
M  V30 21 2 18 22
M  V30 22 1 19 23
M  V30 23 1 20 24
M  V30 24 1 21 25
M  V30 25 1 23 26
M  V30 26 2 23 27
M  V30 27 2 26 28
M  V30 28 1 27 29
M  V30 29 1 6 7
M  V30 30 1 14 17
M  V30 31 1 15 16
M  V30 32 1 19 22
M  V30 33 2 21 24
M  V30 34 1 28 29
M  V30 END BOND
M  V30 END CTAB
M  END
>  <Molecule Name>
Compound 518

>  <Molecule Name 2>
Compound 518

>  <Compound ID>
164

>  <Name>


>  <Uniprot>
O60885

>  <Target>
BRD4

>  <Smiles>
CC1=NN=C2N1C1=CC=C(C3=C[NH]N=C3)C=C1C(C1=CC=C(Cl)C=C1)=NC21CC1

>  <Kd (nM)>


>  <Assay (Kd)>


>  <Ki (nM)>


>  <Assay (Ki)>


>  <IC50 (nM)>


>  <Assay (IC50)>


>  <EC50 (nM)>


>  <Assay (EC50)>


>  <Article DOI>


>  <Molecular Weight>
400.873

>  <Exact Mass>
400.1203222

>  <XLogP3>
3.5

>  <Heavy Atom Count>
29

>  <Ring Count>
6

>  <Hydrogen Bond Acceptor Count>
5

>  <Hydrogen Bond Donor Count>
1

>  <Rotatable Bond Count>
2

>  <Topological Polar Surface Area>
71.75

>  <Molecular Formula>
C22H17ClN6

>  <InChI>
InChI=1S/C22H17ClN6/c1-13-27-28-21-22(8-9-22)26-20(14-2-5-17(23)6-3-14)18-10-15(16-11-24-25-12-16)4-7-19(18)29(13)21/h2-7,10-12H,8-9H2,1H3,(H,24,25)

>  <InChI Key>
RTNUIOLFPPNFQQ-UHFFFAOYSA-N

>  <BindingDB>


>  <PubChem>
132117601

>  <ChEMBL>


$$$$
165
Actelion Java MolfileCreator 2.0

  0  0  0  0  0  0              0 V3000
M  V30 BEGIN CTAB
M  V30 COUNTS 26 28 0 0 0
M  V30 BEGIN ATOM
M  V30 1 Br 5.1961 1.5 0.0 0
M  V30 2 C 6.0621 1.0 0.0 0
M  V30 3 C 6.0621 0.0 0.0 0
M  V30 4 C 6.9282 1.4999 0.0 0
M  V30 5 N 6.9282 -0.5 0.0 0
M  V30 6 N 5.1961 -0.5 0.0 0
M  V30 7 N 7.7942 1.0 0.0 0
M  V30 8 C 7.7942 0.0 0.0 0
M  V30 9 C 4.3301 0.0 0.0 0
M  V30 10 N 8.6602 -0.5 0.0 0
M  V30 11 C 3.4641 -0.5 0.0 0
M  V30 12 C 9.5262 0.0 0.0 0
M  V30 13 C 2.598 0.0 0.0 0
M  V30 14 C 10.3923 -0.5 0.0 0
M  V30 15 C 9.5262 0.9999 0.0 0
M  V30 16 N 1.732 -0.5 0.0 0
M  V30 17 C 11.2583 0.0 0.0 0
M  V30 18 C 10.3923 1.4999 0.0 0
M  V30 19 C 0.866 0.0 0.0 0
M  V30 20 C 1.732 -1.5 0.0 0
M  V30 21 C 11.2583 0.9999 0.0 0
M  V30 22 O 0.866 1.0 0.0 0
M  V30 23 C 0.0 -0.5 0.0 0
M  V30 24 C -0.9659 -0.2411 0.0 0
M  V30 25 C -0.2588 -1.4659 0.0 0
M  V30 26 C -1.2247 -1.2071 0.0 0
M  V30 END ATOM
M  V30 BEGIN BOND
M  V30 1 1 1 2
M  V30 2 2 2 3
M  V30 3 1 2 4
M  V30 4 1 3 5
M  V30 5 1 3 6
M  V30 6 2 4 7
M  V30 7 2 5 8
M  V30 8 1 6 9
M  V30 9 1 8 10
M  V30 10 1 9 11
M  V30 11 1 10 12
M  V30 12 1 11 13
M  V30 13 2 12 14
M  V30 14 1 12 15
M  V30 15 1 13 16
M  V30 16 1 14 17
M  V30 17 2 15 18
M  V30 18 1 16 19
M  V30 19 1 16 20
M  V30 20 2 17 21
M  V30 21 2 19 22
M  V30 22 1 19 23
M  V30 23 1 23 24
M  V30 24 1 23 25
M  V30 25 1 24 26
M  V30 26 1 7 8
M  V30 27 1 18 21
M  V30 28 1 25 26
M  V30 END BOND
M  V30 END CTAB
M  END
>  <Molecule Name>
Compound 519

>  <Molecule Name 2>
Compound 519

>  <Compound ID>
165

>  <Name>


>  <Uniprot>
Q9UHD2

>  <Target>
TBK1

>  <Smiles>
CN(CCCNC1=NC(NC2=CC=CC=C2)=NC=C1Br)C(=O)C1CCC1

>  <Kd (nM)>


>  <Assay (Kd)>


>  <Ki (nM)>


>  <Assay (Ki)>


>  <IC50 (nM)>


>  <Assay (IC50)>


>  <EC50 (nM)>


>  <Assay (EC50)>


>  <Article DOI>


>  <Molecular Weight>
418.339

>  <Exact Mass>
417.1164225

>  <XLogP3>
3.94

>  <Heavy Atom Count>
26

>  <Ring Count>
3

>  <Hydrogen Bond Acceptor Count>
5

>  <Hydrogen Bond Donor Count>
2

>  <Rotatable Bond Count>
8

>  <Topological Polar Surface Area>
70.15

>  <Molecular Formula>
C19H24BrN5O

>  <InChI>
InChI=1S/C19H24BrN5O/c1-25(18(26)14-7-5-8-14)12-6-11-21-17-16(20)13-22-19(24-17)23-15-9-3-2-4-10-15/h2-4,9-10,13-14H,5-8,11-12H2,1H3,(H2,21,22,23,24)

>  <InChI Key>
OVXASXQWAVIOAX-UHFFFAOYSA-N

>  <BindingDB>


>  <PubChem>
134553532

>  <ChEMBL>


$$$$
166
Actelion Java MolfileCreator 2.0

  0  0  0  0  0  0              0 V3000
M  V30 BEGIN CTAB
M  V30 COUNTS 34 37 0 0 0
M  V30 BEGIN ATOM
M  V30 1 F 2.098 0.866 0.0 0
M  V30 2 C 2.598 0.0 0.0 0
M  V30 3 F 3.4641 0.5 0.0 0
M  V30 4 F 3.098 -0.866 0.0 0
M  V30 5 C 1.732 -0.5 0.0 0
M  V30 6 N 0.866 0.0 0.0 0
M  V30 7 C 0.0 -0.5 0.0 0
M  V30 8 N -0.866 0.0 0.0 0
M  V30 9 C 0.0 -1.4999 0.0 0
M  V30 10 C -1.732 -0.4999 0.0 0
M  V30 11 C -0.866 -1.9999 0.0 0
M  V30 12 C -1.732 -1.4999 0.0 0
M  V30 13 C -0.866 -2.9999 0.0 0
M  V30 14 O -1.675 -3.5877 0.0 0
M  V30 15 N -0.057 -3.5877 0.0 0
M  V30 16 C -1.366 -4.5388 0.0 0
M  V30 17 C -0.366 -4.5388 0.0 0
M  V30 18 C 0.2217 -5.3478 0.0 0
M  V30 19 O 1.2162 -5.2433 0.0 0
M  V30 20 N -0.1849 -6.2614 0.0 0
M  V30 21 C 0.4028 -7.0704 0.0 0
M  V30 22 C 0.0937 -8.0214 0.0 0
M  V30 23 C 1.4028 -7.0704 0.0 0
M  V30 24 N 0.9028 -8.6092 0.0 0
M  V30 25 C -0.8572 -8.3304 0.0 0
M  V30 26 N 1.7118 -8.0214 0.0 0
M  V30 27 O -1.6004 -7.6613 0.0 0
M  V30 28 N -1.0651 -9.3086 0.0 0
M  V30 29 C 2.6628 -8.3304 0.0 0
M  V30 30 C 2.8707 -9.3086 0.0 0
M  V30 31 C 3.406 -7.6613 0.0 0
M  V30 32 C 3.8218 -9.6176 0.0 0
M  V30 33 C 4.357 -7.9703 0.0 0
M  V30 34 C 4.5649 -8.9485 0.0 0
M  V30 END ATOM
M  V30 BEGIN BOND
M  V30 1 1 1 2
M  V30 2 1 2 3
M  V30 3 1 2 4
M  V30 4 1 2 5
M  V30 5 1 5 6
M  V30 6 1 6 7
M  V30 7 2 7 8
M  V30 8 1 7 9
M  V30 9 1 8 10
M  V30 10 2 9 11
M  V30 11 2 10 12
M  V30 12 1 11 13
M  V30 13 1 13 14
M  V30 14 2 13 15
M  V30 15 1 14 16
M  V30 16 1 15 17
M  V30 17 1 17 18
M  V30 18 2 18 19
M  V30 19 1 18 20
M  V30 20 1 20 21
M  V30 21 1 21 22
M  V30 22 2 21 23
M  V30 23 2 22 24
M  V30 24 1 22 25
M  V30 25 1 23 26
M  V30 26 2 25 27
M  V30 27 1 25 28
M  V30 28 1 26 29
M  V30 29 2 29 30
M  V30 30 1 29 31
M  V30 31 1 30 32
M  V30 32 2 31 33
M  V30 33 2 32 34
M  V30 34 1 11 12
M  V30 35 2 16 17
M  V30 36 1 24 26
M  V30 37 1 33 34
M  V30 END BOND
M  V30 END CTAB
M  END
>  <Molecule Name>
Compound 520

>  <Molecule Name 2>
Compound 520

>  <Compound ID>
166

>  <Name>


>  <Uniprot>
Q9NWZ3

>  <Target>
IRAK4

>  <Smiles>
NC(=O)C1=NN(C2=CC=CC=C2)C=C1NC(=O)C1=COC(C2=CC=NC(NCC(F)(F)F)=C2)=N1

>  <Kd (nM)>


>  <Assay (Kd)>


>  <Ki (nM)>


>  <Assay (Ki)>


>  <IC50 (nM)>


>  <Assay (IC50)>


>  <EC50 (nM)>


>  <Assay (EC50)>


>  <Article DOI>


>  <Molecular Weight>
471.399

>  <Exact Mass>
471.126672

>  <XLogP3>
3.26

>  <Heavy Atom Count>
34

>  <Ring Count>
4

>  <Hydrogen Bond Acceptor Count>
8

>  <Hydrogen Bond Donor Count>
3

>  <Rotatable Bond Count>
7

>  <Topological Polar Surface Area>
140.96

>  <Molecular Formula>
C21H16F3N7O3

>  <InChI>
InChI=1S/C21H16F3N7O3/c22-21(23,24)11-27-16-8-12(6-7-26-16)20-29-15(10-34-20)19(33)28-14-9-31(30-17(14)18(25)32)13-4-2-1-3-5-13/h1-10H,11H2,(H2,25,32)(H,26,27)(H,28,33)

>  <InChI Key>
BONCJMNWEAPEIA-UHFFFAOYSA-N

>  <BindingDB>


>  <PubChem>
68377832

>  <ChEMBL>


$$$$
167
Actelion Java MolfileCreator 2.0

  0  0  0  0  0  0              0 V3000
M  V30 BEGIN CTAB
M  V30 COUNTS 36 40 0 0 0
M  V30 BEGIN ATOM
M  V30 1 F 4.6976 -1.1769 0.0 0
M  V30 2 C 3.7195 -1.3848 0.0 0
M  V30 3 F 3.9274 -2.363 0.0 0
M  V30 4 F 2.7413 -1.5927 0.0 0
M  V30 5 C 3.5116 -0.4067 0.0 0
M  V30 6 N 4.1807 0.3364 0.0 0
M  V30 7 C 2.598 0.0 0.0 0
M  V30 8 N 3.6807 1.2024 0.0 0
M  V30 9 N 1.732 -0.5 0.0 0
M  V30 10 C 2.7026 0.9945 0.0 0
M  V30 11 C 4.0874 2.1159 0.0 0
M  V30 12 C 0.866 0.0 0.0 0
M  V30 13 C 5.082 2.2205 0.0 0
M  V30 14 C 3.4997 2.9249 0.0 0
M  V30 15 O 0.866 1.0 0.0 0
M  V30 16 C 0.0 -0.5 0.0 0
M  V30 17 C 5.4887 3.134 0.0 0
M  V30 18 C 3.9064 3.8385 0.0 0
M  V30 19 N -0.9135 -0.0932 0.0 0
M  V30 20 C -0.1045 -1.4945 0.0 0
M  V30 21 C 4.9009 3.943 0.0 0
M  V30 22 C -1.5826 -0.8364 0.0 0
M  V30 23 O -1.0826 -1.7024 0.0 0
M  V30 24 C 5.3076 4.8566 0.0 0
M  V30 25 C -2.5771 -0.7318 0.0 0
M  V30 26 O 4.7199 5.6656 0.0 0
M  V30 27 C -2.9839 0.1816 0.0 0
M  V30 28 C -3.1649 -1.5408 0.0 0
M  V30 29 C -3.9784 0.2861 0.0 0
M  V30 30 C -4.1595 -1.4363 0.0 0
M  V30 31 N -4.5662 -0.5228 0.0 0
M  V30 32 N -4.3851 1.1997 0.0 0
M  V30 33 C -3.7974 2.0087 0.0 0
M  V30 34 C -4.2041 2.9223 0.0 0
M  V30 35 C -4.0996 3.9168 0.0 0
M  V30 36 C -5.0131 3.51 0.0 0
M  V30 END ATOM
M  V30 BEGIN BOND
M  V30 1 1 1 2
M  V30 2 1 2 3
M  V30 3 1 2 4
M  V30 4 1 2 5
M  V30 5 2 5 6
M  V30 6 1 5 7
M  V30 7 1 6 8
M  V30 8 1 7 9
M  V30 9 2 7 10
M  V30 10 1 8 11
M  V30 11 1 9 12
M  V30 12 2 11 13
M  V30 13 1 11 14
M  V30 14 2 12 15
M  V30 15 1 12 16
M  V30 16 1 13 17
M  V30 17 2 14 18
M  V30 18 1 16 19
M  V30 19 2 16 20
M  V30 20 2 17 21
M  V30 21 2 19 22
M  V30 22 1 20 23
M  V30 23 1 21 24
M  V30 24 1 22 25
M  V30 25 2 24 26
M  V30 26 2 25 27
M  V30 27 1 25 28
M  V30 28 1 27 29
M  V30 29 2 28 30
M  V30 30 2 29 31
M  V30 31 1 29 32
M  V30 32 1 32 33
M  V30 33 1 33 34
M  V30 34 1 34 35
M  V30 35 1 34 36
M  V30 36 1 8 10
M  V30 37 1 18 21
M  V30 38 1 22 23
M  V30 39 1 30 31
M  V30 40 1 35 36
M  V30 END BOND
M  V30 END CTAB
M  END
>  <Molecule Name>
Compound 521

>  <Molecule Name 2>
Compound 521

>  <Compound ID>
167

>  <Name>


>  <Uniprot>
Q9NWZ3

>  <Target>
IRAK4

>  <Smiles>
O=CC1=CC=C(N2C=C(NC(=O)C3=COC(C4=CC=NC(NCC5CC5)=C4)=N3)C(C(F)(F)F)=N2)C=C1

>  <Kd (nM)>


>  <Assay (Kd)>


>  <Ki (nM)>


>  <Assay (Ki)>


>  <IC50 (nM)>


>  <Assay (IC50)>


>  <EC50 (nM)>


>  <Assay (EC50)>


>  <Article DOI>


>  <Molecular Weight>
496.449

>  <Exact Mass>
496.1470731

>  <XLogP3>
3.51

>  <Heavy Atom Count>
36

>  <Ring Count>
5

>  <Hydrogen Bond Acceptor Count>
8

>  <Hydrogen Bond Donor Count>
2

>  <Rotatable Bond Count>
8

>  <Topological Polar Surface Area>
114.94

>  <Molecular Formula>
C24H19F3N6O3

>  <InChI>
InChI=1S/C24H19F3N6O3/c25-24(26,27)21-18(11-33(32-21)17-5-3-15(12-34)4-6-17)30-22(35)19-13-36-23(31-19)16-7-8-28-20(9-16)29-10-14-1-2-14/h3-9,11-14H,1-2,10H2,(H,28,29)(H,30,35)

>  <InChI Key>
SEJKGKKQWOYVMZ-UHFFFAOYSA-N

>  <BindingDB>


>  <PubChem>
138694559

>  <ChEMBL>


$$$$
168
Actelion Java MolfileCreator 2.0

  0  0  0  0  0  0              0 V3000
M  V30 BEGIN CTAB
M  V30 COUNTS 33 37 0 0 0
M  V30 BEGIN ATOM
M  V30 1 O 2.598 0.0 0.0 0
M  V30 2 C 1.732 -0.5 0.0 0
M  V30 3 N 0.866 0.0 0.0 0
M  V30 4 C 1.732 -1.5 0.0 0
M  V30 5 C 0.0 -0.5 0.0 0
M  V30 6 N 2.541 -2.0877 0.0 0
M  V30 7 C 0.923 -2.0877 0.0 0
M  V30 8 C -0.9135 -0.0932 0.0 0
M  V30 9 C -0.1045 -1.4945 0.0 0
M  V30 10 C 2.232 -3.0388 0.0 0
M  V30 11 O 1.232 -3.0388 0.0 0
M  V30 12 N -1.5826 -0.8364 0.0 0
M  V30 13 C -1.1214 0.8848 0.0 0
M  V30 14 N -1.0826 -1.7024 0.0 0
M  V30 15 C 2.8198 -3.8478 0.0 0
M  V30 16 O -0.3783 1.554 0.0 0
M  V30 17 N -2.0725 1.1939 0.0 0
M  V30 18 C -1.4894 -2.6159 0.0 0
M  V30 19 C 3.8143 -3.7433 0.0 0
M  V30 20 C 2.413 -4.7614 0.0 0
M  V30 21 C -2.4839 -2.7205 0.0 0
M  V30 22 C -0.9016 -3.4249 0.0 0
M  V30 23 C 4.4021 -4.5523 0.0 0
M  V30 24 C 3.0008 -5.5704 0.0 0
M  V30 25 C -2.8906 -3.634 0.0 0
M  V30 26 C -1.3083 -4.3385 0.0 0
M  V30 27 N 3.9954 -5.4658 0.0 0
M  V30 28 N 5.3966 -4.4478 0.0 0
M  V30 29 C -2.3028 -4.443 0.0 0
M  V30 30 C 5.8034 -3.5342 0.0 0
M  V30 31 C 6.7979 -3.4297 0.0 0
M  V30 32 C 7.6069 -2.8419 0.0 0
M  V30 33 C 7.7114 -3.8364 0.0 0
M  V30 END ATOM
M  V30 BEGIN BOND
M  V30 1 2 1 2
M  V30 2 1 2 3
M  V30 3 1 2 4
M  V30 4 1 3 5
M  V30 5 1 4 6
M  V30 6 2 4 7
M  V30 7 1 5 8
M  V30 8 2 5 9
M  V30 9 2 6 10
M  V30 10 1 7 11
M  V30 11 2 8 12
M  V30 12 1 8 13
M  V30 13 1 9 14
M  V30 14 1 10 15
M  V30 15 2 13 16
M  V30 16 1 13 17
M  V30 17 1 14 18
M  V30 18 2 15 19
M  V30 19 1 15 20
M  V30 20 2 18 21
M  V30 21 1 18 22
M  V30 22 1 19 23
M  V30 23 2 20 24
M  V30 24 1 21 25
M  V30 25 2 22 26
M  V30 26 2 23 27
M  V30 27 1 23 28
M  V30 28 2 25 29
M  V30 29 1 28 30
M  V30 30 1 30 31
M  V30 31 1 31 32
M  V30 32 1 31 33
M  V30 33 1 10 11
M  V30 34 1 12 14
M  V30 35 1 24 27
M  V30 36 1 26 29
M  V30 37 1 32 33
M  V30 END BOND
M  V30 END CTAB
M  END
>  <Molecule Name>
Compound 522

>  <Molecule Name 2>
Compound 522

>  <Compound ID>
168

>  <Name>


>  <Uniprot>
Q9NWZ3

>  <Target>
IRAK4

>  <Smiles>
NC(=O)C1=NN(C2=CC=CC=C2)C=C1NC(=O)C1=COC(C2=CC=NC(NCC3CC3)=C2)=N1

>  <Kd (nM)>


>  <Assay (Kd)>


>  <Ki (nM)>


>  <Assay (Ki)>


>  <IC50 (nM)>


>  <Assay (IC50)>


>  <EC50 (nM)>


>  <Assay (EC50)>


>  <Article DOI>


>  <Molecular Weight>
443.467

>  <Exact Mass>
443.1705875

>  <XLogP3>
2.89

>  <Heavy Atom Count>
33

>  <Ring Count>
5

>  <Hydrogen Bond Acceptor Count>
8

>  <Hydrogen Bond Donor Count>
3

>  <Rotatable Bond Count>
8

>  <Topological Polar Surface Area>
140.96

>  <Molecular Formula>
C23H21N7O3

>  <InChI>
InChI=1S/C23H21N7O3/c24-21(31)20-17(12-30(29-20)16-4-2-1-3-5-16)27-22(32)18-13-33-23(28-18)15-8-9-25-19(10-15)26-11-14-6-7-14/h1-5,8-10,12-14H,6-7,11H2,(H2,24,31)(H,25,26)(H,27,32)

>  <InChI Key>
RMGQAYYSKWDELF-UHFFFAOYSA-N

>  <BindingDB>


>  <PubChem>
68377822

>  <ChEMBL>


$$$$
169
Actelion Java MolfileCreator 2.0

  0  0  0  0  0  0              0 V3000
M  V30 BEGIN CTAB
M  V30 COUNTS 36 40 0 0 0
M  V30 BEGIN ATOM
M  V30 1 F 2.9763 -2.054 0.0 0
M  V30 2 C 3.7195 -1.3848 0.0 0
M  V30 3 F 4.6705 -1.6939 0.0 0
M  V30 4 C 3.5116 -0.4067 0.0 0
M  V30 5 N 4.1807 0.3364 0.0 0
M  V30 6 C 2.598 0.0 0.0 0
M  V30 7 N 3.6807 1.2024 0.0 0
M  V30 8 N 1.732 -0.5 0.0 0
M  V30 9 C 2.7026 0.9945 0.0 0
M  V30 10 C 4.0874 2.1159 0.0 0
M  V30 11 C 0.866 0.0 0.0 0
M  V30 12 C 5.082 2.2205 0.0 0
M  V30 13 C 3.4997 2.9249 0.0 0
M  V30 14 O 0.866 1.0 0.0 0
M  V30 15 C 0.0 -0.5 0.0 0
M  V30 16 C 5.4887 3.134 0.0 0
M  V30 17 C 3.9064 3.8385 0.0 0
M  V30 18 N -0.9135 -0.0932 0.0 0
M  V30 19 C -0.1045 -1.4945 0.0 0
M  V30 20 C 4.9009 3.943 0.0 0
M  V30 21 C -1.5826 -0.8364 0.0 0
M  V30 22 O -1.0826 -1.7024 0.0 0
M  V30 23 C 5.3076 4.8566 0.0 0
M  V30 24 C -2.5771 -0.7318 0.0 0
M  V30 25 O 6.3022 4.9611 0.0 0
M  V30 26 O 4.7199 5.6656 0.0 0
M  V30 27 C -2.9839 0.1816 0.0 0
M  V30 28 C -3.1649 -1.5408 0.0 0
M  V30 29 C -3.9784 0.2861 0.0 0
M  V30 30 C -4.1595 -1.4363 0.0 0
M  V30 31 N -4.5662 -0.5228 0.0 0
M  V30 32 N -4.3851 1.1997 0.0 0
M  V30 33 C -3.7974 2.0087 0.0 0
M  V30 34 C -4.2041 2.9223 0.0 0
M  V30 35 C -4.0996 3.9168 0.0 0
M  V30 36 C -5.0131 3.51 0.0 0
M  V30 END ATOM
M  V30 BEGIN BOND
M  V30 1 1 1 2
M  V30 2 1 2 3
M  V30 3 1 2 4
M  V30 4 2 4 5
M  V30 5 1 4 6
M  V30 6 1 5 7
M  V30 7 1 6 8
M  V30 8 2 6 9
M  V30 9 1 7 10
M  V30 10 1 8 11
M  V30 11 2 10 12
M  V30 12 1 10 13
M  V30 13 2 11 14
M  V30 14 1 11 15
M  V30 15 1 12 16
M  V30 16 2 13 17
M  V30 17 1 15 18
M  V30 18 2 15 19
M  V30 19 2 16 20
M  V30 20 2 18 21
M  V30 21 1 19 22
M  V30 22 1 20 23
M  V30 23 1 21 24
M  V30 24 2 23 25
M  V30 25 1 23 26
M  V30 26 2 24 27
M  V30 27 1 24 28
M  V30 28 1 27 29
M  V30 29 2 28 30
M  V30 30 2 29 31
M  V30 31 1 29 32
M  V30 32 1 32 33
M  V30 33 1 33 34
M  V30 34 1 34 35
M  V30 35 1 34 36
M  V30 36 1 7 9
M  V30 37 1 17 20
M  V30 38 1 21 22
M  V30 39 1 30 31
M  V30 40 1 35 36
M  V30 END BOND
M  V30 END CTAB
M  END
>  <Molecule Name>
Compound 523

>  <Molecule Name 2>
Compound 523

>  <Compound ID>
169

>  <Name>


>  <Uniprot>
Q9NWZ3

>  <Target>
IRAK4

>  <Smiles>
O=C(O)C1=CC=C(N2C=C(NC(=O)C3=COC(C4=CC=NC(NCC5CC5)=C4)=N3)C(C(F)F)=N2)C=C1

>  <Kd (nM)>


>  <Assay (Kd)>


>  <Ki (nM)>


>  <Assay (Ki)>


>  <IC50 (nM)>


>  <Assay (IC50)>


>  <EC50 (nM)>


>  <Assay (EC50)>


>  <Article DOI>


>  <Molecular Weight>
494.458

>  <Exact Mass>
494.1514096

>  <XLogP3>
3.31

>  <Heavy Atom Count>
36

>  <Ring Count>
5

>  <Hydrogen Bond Acceptor Count>
8

>  <Hydrogen Bond Donor Count>
3

>  <Rotatable Bond Count>
9

>  <Topological Polar Surface Area>
135.17

>  <Molecular Formula>
C24H20F2N6O4

>  <InChI>
InChI=1S/C24H20F2N6O4/c25-21(26)20-17(11-32(31-20)16-5-3-14(4-6-16)24(34)35)29-22(33)18-12-36-23(30-18)15-7-8-27-19(9-15)28-10-13-1-2-13/h3-9,11-13,21H,1-2,10H2,(H,27,28)(H,29,33)(H,34,35)

>  <InChI Key>
JHJVHWPYAYIRCQ-UHFFFAOYSA-N

>  <BindingDB>


>  <PubChem>
138694935

>  <ChEMBL>


$$$$
170
Actelion Java MolfileCreator 2.0

  0  0  0  0  0  0              0 V3000
M  V30 BEGIN CTAB
M  V30 COUNTS 37 40 0 0 0
M  V30 BEGIN ATOM
M  V30 1 F 2.098 0.866 0.0 0
M  V30 2 C 2.598 0.0 0.0 0
M  V30 3 F 3.4641 0.5 0.0 0
M  V30 4 F 3.098 -0.866 0.0 0
M  V30 5 C 1.732 -0.5 0.0 0
M  V30 6 N 0.866 0.0 0.0 0
M  V30 7 C 0.0 -0.5 0.0 0
M  V30 8 N -0.866 0.0 0.0 0
M  V30 9 C 0.0 -1.4999 0.0 0
M  V30 10 C -1.732 -0.4999 0.0 0
M  V30 11 C -0.866 -1.9999 0.0 0
M  V30 12 C -1.732 -1.4999 0.0 0
M  V30 13 C -0.866 -2.9999 0.0 0
M  V30 14 O -1.675 -3.5877 0.0 0
M  V30 15 N -0.057 -3.5877 0.0 0
M  V30 16 C -1.366 -4.5388 0.0 0
M  V30 17 C -0.366 -4.5388 0.0 0
M  V30 18 C 0.2217 -5.3478 0.0 0
M  V30 19 O 1.2162 -5.2433 0.0 0
M  V30 20 N -0.1849 -6.2614 0.0 0
M  V30 21 C 0.4028 -7.0704 0.0 0
M  V30 22 C 0.0937 -8.0214 0.0 0
M  V30 23 C 1.4028 -7.0704 0.0 0
M  V30 24 N 0.9028 -8.6092 0.0 0
M  V30 25 C -0.8572 -8.3304 0.0 0
M  V30 26 N 1.7118 -8.0214 0.0 0
M  V30 27 F -1.6004 -7.6613 0.0 0
M  V30 28 F -1.0651 -9.3086 0.0 0
M  V30 29 C 2.6628 -8.3304 0.0 0
M  V30 30 C 2.8707 -9.3086 0.0 0
M  V30 31 C 3.406 -7.6613 0.0 0
M  V30 32 C 3.8218 -9.6176 0.0 0
M  V30 33 C 4.357 -7.9703 0.0 0
M  V30 34 C 4.5649 -8.9485 0.0 0
M  V30 35 C 5.516 -9.2575 0.0 0
M  V30 36 O 5.7239 -10.2356 0.0 0
M  V30 37 O 6.2591 -8.5884 0.0 0
M  V30 END ATOM
M  V30 BEGIN BOND
M  V30 1 1 1 2
M  V30 2 1 2 3
M  V30 3 1 2 4
M  V30 4 1 2 5
M  V30 5 1 5 6
M  V30 6 1 6 7
M  V30 7 2 7 8
M  V30 8 1 7 9
M  V30 9 1 8 10
M  V30 10 2 9 11
M  V30 11 2 10 12
M  V30 12 1 11 13
M  V30 13 1 13 14
M  V30 14 2 13 15
M  V30 15 1 14 16
M  V30 16 1 15 17
M  V30 17 1 17 18
M  V30 18 2 18 19
M  V30 19 1 18 20
M  V30 20 1 20 21
M  V30 21 1 21 22
M  V30 22 2 21 23
M  V30 23 2 22 24
M  V30 24 1 22 25
M  V30 25 1 23 26
M  V30 26 1 25 27
M  V30 27 1 25 28
M  V30 28 1 26 29
M  V30 29 2 29 30
M  V30 30 1 29 31
M  V30 31 1 30 32
M  V30 32 2 31 33
M  V30 33 2 32 34
M  V30 34 1 34 35
M  V30 35 2 35 36
M  V30 36 1 35 37
M  V30 37 1 11 12
M  V30 38 2 16 17
M  V30 39 1 24 26
M  V30 40 1 33 34
M  V30 END BOND
M  V30 END CTAB
M  END
>  <Molecule Name>
Compound 524

>  <Molecule Name 2>
Compound 524

>  <Compound ID>
170

>  <Name>


>  <Uniprot>
Q9NWZ3

>  <Target>
IRAK4

>  <Smiles>
O=C(O)C1=CC=C(N2C=C(NC(=O)C3=COC(C4=CC=NC(NCC(F)(F)F)=C4)=N3)C(C(F)F)=N2)C=C1

>  <Kd (nM)>


>  <Assay (Kd)>


>  <Ki (nM)>


>  <Assay (Ki)>


>  <IC50 (nM)>


>  <Assay (IC50)>


>  <EC50 (nM)>


>  <Assay (EC50)>


>  <Article DOI>


>  <Molecular Weight>
522.39

>  <Exact Mass>
522.1074941

>  <XLogP3>
3.68

>  <Heavy Atom Count>
37

>  <Ring Count>
4

>  <Hydrogen Bond Acceptor Count>
8

>  <Hydrogen Bond Donor Count>
3

>  <Rotatable Bond Count>
8

>  <Topological Polar Surface Area>
135.17

>  <Molecular Formula>
C22H15F5N6O4

>  <InChI>
InChI=1S/C22H15F5N6O4/c23-18(24)17-14(8-33(32-17)13-3-1-11(2-4-13)21(35)36)30-19(34)15-9-37-20(31-15)12-5-6-28-16(7-12)29-10-22(25,26)27/h1-9,18H,10H2,(H,28,29)(H,30,34)(H,35,36)

>  <InChI Key>
YSQDJEZWAJXZGQ-UHFFFAOYSA-N

>  <BindingDB>


>  <PubChem>
138696042

>  <ChEMBL>


$$$$
171
Actelion Java MolfileCreator 2.0

  0  0  0  0  0  0              0 V3000
M  V30 BEGIN CTAB
M  V30 COUNTS 31 34 0 0 0
M  V30 BEGIN ATOM
M  V30 1 O 12.8483 -1.4928 0.0 0
M  V30 2 C 12.2382 -0.1225 0.0 0
M  V30 3 O 13.1199 1.0909 0.0 0
M  V30 4 C 10.7464 0.0342 0.0 0
M  V30 5 C 10.1363 1.4045 0.0 0
M  V30 6 C 9.8647 -1.1792 0.0 0
M  V30 7 C 8.6445 1.5613 0.0 0
M  V30 8 C 8.373 -1.0224 0.0 0
M  V30 9 C 7.7629 0.3478 0.0 0
M  V30 10 N 6.2711 0.5046 0.0 0
M  V30 11 N 5.5211 1.8036 0.0 0
M  V30 12 C 5.2674 -0.6101 0.0 0
M  V30 13 C 4.0539 1.4917 0.0 0
M  V30 14 C 3.8971 0.0 0.0 0
M  V30 15 C 2.9391 2.4954 0.0 0
M  V30 16 N 2.598 -0.75 0.0 0
M  V30 17 O 3.251 3.9627 0.0 0
M  V30 18 N 1.5126 2.0319 0.0 0
M  V30 19 C 2.598 -2.25 0.0 0
M  V30 20 O 3.8971 -3.0 0.0 0
M  V30 21 C 1.299 -3.0 0.0 0
M  V30 22 N 1.1422 -4.4917 0.0 0
M  V30 23 C -0.0712 -2.3898 0.0 0
M  V30 24 C -0.3249 -4.8036 0.0 0
M  V30 25 O -1.0749 -3.5046 0.0 0
M  V30 26 C -0.935 -6.1739 0.0 0
M  V30 27 C -0.0534 -7.3874 0.0 0
M  V30 28 C -2.4268 -6.3307 0.0 0
M  V30 29 C -0.6635 -8.7578 0.0 0
M  V30 30 C -3.0369 -7.701 0.0 0
M  V30 31 N -2.1552 -8.9146 0.0 0
M  V30 END ATOM
M  V30 BEGIN BOND
M  V30 1 2 1 2
M  V30 2 1 2 3
M  V30 3 1 2 4
M  V30 4 2 4 5
M  V30 5 1 4 6
M  V30 6 1 5 7
M  V30 7 2 6 8
M  V30 8 2 7 9
M  V30 9 1 9 10
M  V30 10 1 10 11
M  V30 11 1 10 12
M  V30 12 2 11 13
M  V30 13 2 12 14
M  V30 14 1 13 15
M  V30 15 1 14 16
M  V30 16 2 15 17
M  V30 17 1 15 18
M  V30 18 1 16 19
M  V30 19 2 19 20
M  V30 20 1 19 21
M  V30 21 1 21 22
M  V30 22 2 21 23
M  V30 23 2 22 24
M  V30 24 1 23 25
M  V30 25 1 24 26
M  V30 26 2 26 27
M  V30 27 1 26 28
M  V30 28 1 27 29
M  V30 29 2 28 30
M  V30 30 2 29 31
M  V30 31 1 8 9
M  V30 32 1 13 14
M  V30 33 1 24 25
M  V30 34 1 30 31
M  V30 END BOND
M  V30 END CTAB
M  END
>  <Molecule Name>
Compound 525

>  <Molecule Name 2>
Compound 525

>  <Compound ID>
171

>  <Name>


>  <Uniprot>
Q9NWZ3

>  <Target>
IRAK4

>  <Smiles>
NC(=O)C1=NN(C2=CC=C(C(=O)O)C=C2)C=C1NC(=O)C1=COC(C2=CC=NC=C2)=N1

>  <Kd (nM)>


>  <Assay (Kd)>


>  <Ki (nM)>


>  <Assay (Ki)>


>  <IC50 (nM)>


>  <Assay (IC50)>


>  <EC50 (nM)>


>  <Assay (EC50)>


>  <Article DOI>


>  <Molecular Weight>
418.369

>  <Exact Mass>
418.1025675

>  <XLogP3>
1.35

>  <Heavy Atom Count>
31

>  <Ring Count>
4

>  <Hydrogen Bond Acceptor Count>
8

>  <Hydrogen Bond Donor Count>
3

>  <Rotatable Bond Count>
6

>  <Topological Polar Surface Area>
166.23

>  <Molecular Formula>
C20H14N6O5

>  <InChI>
InChI=1S/C20H14N6O5/c21-17(27)16-14(9-26(25-16)13-3-1-12(2-4-13)20(29)30)23-18(28)15-10-31-19(24-15)11-5-7-22-8-6-11/h1-10H,(H2,21,27)(H,23,28)(H,29,30)

>  <InChI Key>
HSZVOHYCNGRTDZ-UHFFFAOYSA-N

>  <BindingDB>


>  <PubChem>
138694550

>  <ChEMBL>


$$$$
172
Actelion Java MolfileCreator 2.0

  0  0  0  0  0  0              0 V3000
M  V30 BEGIN CTAB
M  V30 COUNTS 32 35 0 0 0
M  V30 BEGIN ATOM
M  V30 1 F 3.8301 0.1339 0.0 0
M  V30 2 C 4.3301 0.9999 0.0 0
M  V30 3 F 5.1961 0.4999 0.0 0
M  V30 4 F 4.8301 1.866 0.0 0
M  V30 5 C 3.4641 1.4999 0.0 0
M  V30 6 C 2.598 0.9999 0.0 0
M  V30 7 C 3.4641 2.4999 0.0 0
M  V30 8 C 1.732 1.4999 0.0 0
M  V30 9 C 2.598 3.0 0.0 0
M  V30 10 C 0.866 0.9999 0.0 0
M  V30 11 C 1.732 2.4999 0.0 0
M  V30 12 O 0.0 1.5 0.0 0
M  V30 13 N 0.866 0.0 0.0 0
M  V30 14 C 0.0 -0.5 0.0 0
M  V30 15 N -0.9135 -0.0932 0.0 0
M  V30 16 N -0.1045 -1.4945 0.0 0
M  V30 17 C -1.5826 -0.8364 0.0 0
M  V30 18 C -1.0826 -1.7024 0.0 0
M  V30 19 C 0.6386 -2.1636 0.0 0 CFG=1
M  V30 20 C -2.5826 -0.8364 0.0 0
M  V30 21 C -1.5826 -2.5684 0.0 0
M  V30 22 C 0.4307 -3.1418 0.0 0
M  V30 23 C 1.5896 -1.8546 0.0 0
M  V30 24 C -3.0826 -1.7024 0.0 0
M  V30 25 C -2.5826 -2.5684 0.0 0
M  V30 26 C 1.1738 -3.8109 0.0 0
M  V30 27 C 2.3328 -2.5237 0.0 0
M  V30 28 C -3.0826 -3.4344 0.0 0
M  V30 29 C 2.1249 -3.5019 0.0 0 CFG=2
M  V30 30 O -2.5826 -4.3005 0.0 0
M  V30 31 C 2.868 -4.171 0.0 0
M  V30 32 O 3.8191 -3.862 0.0 0
M  V30 END ATOM
M  V30 BEGIN BOND
M  V30 1 1 1 2
M  V30 2 1 2 3
M  V30 3 1 2 4
M  V30 4 1 2 5
M  V30 5 2 5 6
M  V30 6 1 5 7
M  V30 7 1 6 8
M  V30 8 2 7 9
M  V30 9 1 8 10
M  V30 10 2 8 11
M  V30 11 2 10 12
M  V30 12 1 10 13
M  V30 13 1 13 14
M  V30 14 2 14 15
M  V30 15 1 14 16
M  V30 16 1 15 17
M  V30 17 1 16 18
M  V30 18 1 19 16 CFG=3
M  V30 19 1 17 20
M  V30 20 1 18 21
M  V30 21 1 19 22
M  V30 22 1 19 23
M  V30 23 2 20 24
M  V30 24 2 21 25
M  V30 25 1 22 26
M  V30 26 1 23 27
M  V30 27 1 25 28
M  V30 28 1 29 26
M  V30 29 1 28 30
M  V30 30 1 29 31 CFG=3
M  V30 31 1 31 32
M  V30 32 1 9 11
M  V30 33 2 17 18
M  V30 34 1 24 25
M  V30 35 1 27 29
M  V30 END BOND
M  V30 BEGIN COLLECTION
M  V30 MDLV30/STEABS ATOMS=(2 19 29)
M  V30 END COLLECTION
M  V30 END CTAB
M  END
>  <Molecule Name>
Compound 526

>  <Molecule Name 2>
Compound 526

>  <Compound ID>
172

>  <Name>


>  <Uniprot>
Q9NWZ3

>  <Target>
IRAK4

>  <Smiles>
O=C(NC1=NC2=CC=C(CO)C=C2N1[C@H]1CC[C@@H](CO)CC1)C1=CC=CC(C(F)(F)F)=C1

>  <Kd (nM)>


>  <Assay (Kd)>


>  <Ki (nM)>
0.48

>  <Assay (Ki)>
Ki was tested by the ELISA assay

>  <IC50 (nM)>


>  <Assay (IC50)>


>  <EC50 (nM)>


>  <Assay (EC50)>


>  <Article DOI>
10.1016/j.bmcl.2015.10.060

>  <Molecular Weight>
447.457

>  <Exact Mass>
447.1769763

>  <XLogP3>
3.35

>  <Heavy Atom Count>
32

>  <Ring Count>
4

>  <Hydrogen Bond Acceptor Count>
5

>  <Hydrogen Bond Donor Count>
3

>  <Rotatable Bond Count>
5

>  <Topological Polar Surface Area>
87.38

>  <Molecular Formula>
C23H24F3N3O3

>  <InChI>
InChI=1S/C23H24F3N3O3/c24-23(25,26)17-3-1-2-16(11-17)21(32)28-22-27-19-9-6-15(13-31)10-20(19)29(22)18-7-4-14(12-30)5-8-18/h1-3,6,9-11,14,18,30-31H,4-5,7-8,12-13H2,(H,27,28,32)/t14-,18+

>  <InChI Key>
FZAQHOQVGPMYDL-UJKQEGAGSA-N

>  <BindingDB>
50499205

>  <PubChem>
10114595

>  <ChEMBL>
CHEMBL3734814

$$$$
173
Actelion Java MolfileCreator 2.0

  0  0  0  0  0  0              0 V3000
M  V30 BEGIN CTAB
M  V30 COUNTS 30 33 0 0 0
M  V30 BEGIN ATOM
M  V30 1 F 2.4641 2.5 0.0 0
M  V30 2 C 3.4641 2.5 0.0 0
M  V30 3 F 3.4641 3.5 0.0 0
M  V30 4 F 4.4641 2.5 0.0 0
M  V30 5 C 3.4641 1.5 0.0 0
M  V30 6 N 2.598 1.0 0.0 0
M  V30 7 C 4.3301 1.0 0.0 0
M  V30 8 C 2.598 0.0 0.0 0
M  V30 9 C 4.3301 0.0 0.0 0
M  V30 10 C 1.732 -0.5 0.0 0
M  V30 11 C 3.4641 -0.4999 0.0 0
M  V30 12 O 1.732 -1.5 0.0 0
M  V30 13 N 0.866 0.0 0.0 0
M  V30 14 C 0.0 -0.5 0.0 0
M  V30 15 C -0.866 0.0 0.0 0
M  V30 16 C 0.0 -1.4999 0.0 0
M  V30 17 O -0.866 1.0 0.0 0
M  V30 18 C -1.732 -0.4999 0.0 0
M  V30 19 C -0.866 -1.9999 0.0 0
M  V30 20 C -1.732 1.5 0.0 0
M  V30 21 C -1.732 -1.4999 0.0 0
M  V30 22 C -1.0739 -2.9781 0.0 0
M  V30 23 N -2.4751 -2.1691 0.0 0
M  V30 24 N -2.0684 -3.0826 0.0 0
M  V30 25 C -2.5684 -3.9487 0.0 0
M  V30 26 C -3.5684 -3.9487 0.0 0
M  V30 27 C -2.0684 -4.8147 0.0 0
M  V30 28 C -4.0684 -4.8147 0.0 0
M  V30 29 C -2.5684 -5.6807 0.0 0
M  V30 30 N -3.5684 -5.6807 0.0 0
M  V30 END ATOM
M  V30 BEGIN BOND
M  V30 1 1 1 2
M  V30 2 1 2 3
M  V30 3 1 2 4
M  V30 4 1 2 5
M  V30 5 2 5 6
M  V30 6 1 5 7
M  V30 7 1 6 8
M  V30 8 2 7 9
M  V30 9 1 8 10
M  V30 10 2 8 11
M  V30 11 2 10 12
M  V30 12 1 10 13
M  V30 13 1 13 14
M  V30 14 1 14 15
M  V30 15 2 14 16
M  V30 16 1 15 17
M  V30 17 2 15 18
M  V30 18 1 16 19
M  V30 19 1 17 20
M  V30 20 1 18 21
M  V30 21 2 19 22
M  V30 22 2 21 23
M  V30 23 1 22 24
M  V30 24 1 24 25
M  V30 25 1 25 26
M  V30 26 1 25 27
M  V30 27 1 26 28
M  V30 28 1 27 29
M  V30 29 1 28 30
M  V30 30 1 9 11
M  V30 31 1 19 21
M  V30 32 1 23 24
M  V30 33 1 29 30
M  V30 END BOND
M  V30 END CTAB
M  END
>  <Molecule Name>
Compound 527

>  <Molecule Name 2>
Compound 527

>  <Compound ID>
173

>  <Name>


>  <Uniprot>
Q9NWZ3

>  <Target>
IRAK4

>  <Smiles>
COC1=CC2=NN(C3CCNCC3)C=C2C=C1NC(=O)C1=CC=CC(C(F)(F)F)=N1

>  <Kd (nM)>


>  <Assay (Kd)>


>  <Ki (nM)>


>  <Assay (Ki)>


>  <IC50 (nM)>


>  <Assay (IC50)>


>  <EC50 (nM)>


>  <Assay (EC50)>


>  <Article DOI>


>  <Molecular Weight>
419.407

>  <Exact Mass>
419.1569095

>  <XLogP3>
2.59

>  <Heavy Atom Count>
30

>  <Ring Count>
4

>  <Hydrogen Bond Acceptor Count>
6

>  <Hydrogen Bond Donor Count>
2

>  <Rotatable Bond Count>
4

>  <Topological Polar Surface Area>
81.07

>  <Molecular Formula>
C20H20F3N5O2

>  <InChI>
InChI=1S/C20H20F3N5O2/c1-30-17-10-15-12(11-28(27-15)13-5-7-24-8-6-13)9-16(17)26-19(29)14-3-2-4-18(25-14)20(21,22)23/h2-4,9-11,13,24H,5-8H2,1H3,(H,26,29)

>  <InChI Key>
VKFRWIYGVBBMTK-UHFFFAOYSA-N

>  <BindingDB>


>  <PubChem>
137377454

>  <ChEMBL>


$$$$
174
Actelion Java MolfileCreator 2.0

  0  0  0  0  0  0              0 V3000
M  V30 BEGIN CTAB
M  V30 COUNTS 32 35 0 0 0
M  V30 BEGIN ATOM
M  V30 1 F 4.3301 -2.9999 0.0 0
M  V30 2 C 4.3301 -1.9999 0.0 0
M  V30 3 C 5.1961 -1.5 0.0 0
M  V30 4 C 3.4641 -1.5 0.0 0
M  V30 5 C 5.1961 -0.5 0.0 0
M  V30 6 C 6.0621 -2.0 0.0 0 CFG=1
M  V30 7 C 3.4641 -0.5 0.0 0
M  V30 8 F 6.0621 0.0 0.0 0
M  V30 9 C 4.3301 0.0 0.0 0
M  V30 10 N 6.9282 -1.5 0.0 0
M  V30 11 C 6.0621 -2.9999 0.0 0
M  V30 12 C 2.598 0.0 0.0 0
M  V30 13 C 7.7942 -2.0 0.0 0 CFG=1
M  V30 14 C 6.9282 -0.4999 0.0 0
M  V30 15 N 5.319 -3.6691 0.0 0
M  V30 16 C 6.9282 -3.5 0.0 0
M  V30 17 C 1.732 -0.5 0.0 0
M  V30 18 C 7.7942 -3.0 0.0 0
M  V30 19 C 8.6602 -1.5 0.0 0
M  V30 20 C 7.7942 0.0 0.0 0
M  V30 21 C 5.7257 -4.5826 0.0 0
M  V30 22 C 6.7202 -4.4781 0.0 0
M  V30 23 C 0.866 0.0 0.0 0
M  V30 24 F 8.2942 -0.866 0.0 0
M  V30 25 C 8.6602 0.5 0.0 0
M  V30 26 C 7.2942 0.866 0.0 0
M  V30 27 C 5.319 -5.4962 0.0 0
M  V30 28 C 7.308 -5.2871 0.0 0
M  V30 29 O 0.866 1.0 0.0 0
M  V30 30 O 0.0 -0.5 0.0 0
M  V30 31 C 5.9068 -6.3052 0.0 0
M  V30 32 C 6.9013 -6.2007 0.0 0
M  V30 END ATOM
M  V30 BEGIN BOND
M  V30 1 1 1 2
M  V30 2 2 2 3
M  V30 3 1 2 4
M  V30 4 1 3 5
M  V30 5 1 6 3 CFG=1
M  V30 6 2 4 7
M  V30 7 1 5 8
M  V30 8 2 5 9
M  V30 9 1 6 10
M  V30 10 1 6 11
M  V30 11 1 7 12
M  V30 12 1 13 10
M  V30 13 1 10 14
M  V30 14 1 11 15
M  V30 15 2 11 16
M  V30 16 2 12 17
M  V30 17 1 13 18
M  V30 18 1 13 19 CFG=3
M  V30 19 1 14 20
M  V30 20 1 15 21
M  V30 21 1 16 22
M  V30 22 1 17 23
M  V30 23 1 20 24
M  V30 24 1 20 25
M  V30 25 1 20 26
M  V30 26 1 21 27
M  V30 27 1 22 28
M  V30 28 2 23 29
M  V30 29 1 23 30
M  V30 30 2 27 31
M  V30 31 2 28 32
M  V30 32 1 7 9
M  V30 33 1 16 18
M  V30 34 2 21 22
M  V30 35 1 31 32
M  V30 END BOND
M  V30 BEGIN COLLECTION
M  V30 MDLV30/STEABS ATOMS=(2 6 13)
M  V30 END COLLECTION
M  V30 END CTAB
M  END
>  <Molecule Name>
Compound 528

>  <Molecule Name 2>
Compound 528

>  <Compound ID>
174

>  <Name>
AZD9496

>  <Uniprot>
P03372

>  <Target>
ER

>  <Smiles>
C[C@@H]1CC2=C([NH]C3=CC=CC=C23)[C@@H](C2=C(F)C=C(/C=C/C(=O)O)C=C2F)N1CC(C)(C)F

>  <Kd (nM)>


>  <Assay (Kd)>


>  <Ki (nM)>


>  <Assay (Ki)>


>  <IC50 (nM)>
0.676

>  <Assay (IC50)>
IC50 of ER

>  <EC50 (nM)>


>  <Assay (EC50)>


>  <Article DOI>
10.1021/acs.jmedchem.5b00984

>  <Molecular Weight>
442.481

>  <Exact Mass>
442.1868127

>  <XLogP3>
2.92

>  <Heavy Atom Count>
32

>  <Ring Count>
4

>  <Hydrogen Bond Acceptor Count>
2

>  <Hydrogen Bond Donor Count>
2

>  <Rotatable Bond Count>
5

>  <Topological Polar Surface Area>
56.33

>  <Molecular Formula>
C25H25F3N2O2

>  <InChI>
InChI=1S/C25H25F3N2O2/c1-14-10-17-16-6-4-5-7-20(16)29-23(17)24(30(14)13-25(2,3)28)22-18(26)11-15(12-19(22)27)8-9-21(31)32/h4-9,11-12,14,24,29H,10,13H2,1-3H3,(H,31,32)/b9-8+/t14-,24-/m1/s1

>  <InChI Key>
DFBDRVGWBHBJNR-BBNFHIFMSA-N

>  <BindingDB>
50125052

>  <PubChem>
86287635

>  <ChEMBL>
CHEMBL3623004

$$$$
175
Actelion Java MolfileCreator 2.0

  0  0  0  0  0  0              0 V3000
M  V30 BEGIN CTAB
M  V30 COUNTS 37 42 0 0 0
M  V30 BEGIN ATOM
M  V30 1 S 4.3776 -0.0932 0.0 0
M  V30 2 C 3.4641 -0.5 0.0 0
M  V30 3 C 5.0467 -0.8364 0.0 0
M  V30 4 N 3.5686 -1.4945 0.0 0
M  V30 5 N 2.598 0.0 0.0 0
M  V30 6 C 4.5467 -1.7024 0.0 0
M  V30 7 C 1.732 -0.5 0.0 0
M  V30 8 O 1.732 -1.5 0.0 0
M  V30 9 C 0.866 0.0 0.0 0 CFG=2
M  V30 10 N 0.866 1.0 0.0 0
M  V30 11 C 0.0 -0.5 0.0 0
M  V30 12 C 1.675 1.5877 0.0 0
M  V30 13 C 0.057 1.5877 0.0 0
M  V30 14 C -0.866 0.0 0.0 0
M  V30 15 C 0.0 -1.4999 0.0 0
M  V30 16 O 2.626 1.2787 0.0 0
M  V30 17 C 1.366 2.5388 0.0 0
M  V30 18 C 0.366 2.5388 0.0 0
M  V30 19 C -1.732 -0.4999 0.0 0
M  V30 20 C -0.866 -1.9999 0.0 0
M  V30 21 C 1.866 3.4048 0.0 0
M  V30 22 C -0.1339 3.4048 0.0 0
M  V30 23 C -1.732 -1.4999 0.0 0
M  V30 24 C 1.366 4.2708 0.0 0
M  V30 25 C 0.366 4.2708 0.0 0
M  V30 26 C 1.866 5.1369 0.0 0
M  V30 27 C 2.866 5.1369 0.0 0
M  V30 28 C 1.366 6.0029 0.0 0
M  V30 29 C 3.366 6.0029 0.0 0
M  V30 30 C 1.866 6.8689 0.0 0
M  V30 31 C 2.866 6.8689 0.0 0
M  V30 32 N 3.366 7.7349 0.0 0
M  V30 33 C 4.366 7.7349 0.0 0
M  V30 34 C 2.866 8.601 0.0 0
M  V30 35 C 4.866 8.601 0.0 0
M  V30 36 C 3.366 9.467 0.0 0
M  V30 37 N 4.366 9.467 0.0 0
M  V30 END ATOM
M  V30 BEGIN BOND
M  V30 1 1 1 2
M  V30 2 1 1 3
M  V30 3 2 2 4
M  V30 4 1 2 5
M  V30 5 2 3 6
M  V30 6 1 5 7
M  V30 7 2 7 8
M  V30 8 1 9 7
M  V30 9 1 9 10 CFG=1
M  V30 10 1 9 11
M  V30 11 1 10 12
M  V30 12 1 10 13
M  V30 13 2 11 14
M  V30 14 1 11 15
M  V30 15 2 12 16
M  V30 16 1 12 17
M  V30 17 1 13 18
M  V30 18 1 14 19
M  V30 19 2 15 20
M  V30 20 1 17 21
M  V30 21 1 18 22
M  V30 22 2 19 23
M  V30 23 2 21 24
M  V30 24 2 22 25
M  V30 25 1 24 26
M  V30 26 2 26 27
M  V30 27 1 26 28
M  V30 28 1 27 29
M  V30 29 2 28 30
M  V30 30 2 29 31
M  V30 31 1 31 32
M  V30 32 1 32 33
M  V30 33 1 32 34
M  V30 34 1 33 35
M  V30 35 1 34 36
M  V30 36 1 35 37
M  V30 37 1 4 6
M  V30 38 2 17 18
M  V30 39 1 20 23
M  V30 40 1 24 25
M  V30 41 1 30 31
M  V30 42 1 36 37
M  V30 END BOND
M  V30 BEGIN COLLECTION
M  V30 MDLV30/STERAC1 ATOMS=(1 9)
M  V30 END COLLECTION
M  V30 END CTAB
M  END
>  <Molecule Name>
Compound 529

>  <Molecule Name 2>
Compound 529

>  <Compound ID>
175

>  <Name>


>  <Uniprot>
P00533

>  <Target>
EGFR

>  <Smiles>
O=C(NC1=NC=CS1)C(C1=CC=CC=C1)N1CC2=CC=C(C3=CC=C(N4CCNCC4)C=C3)C=C2C1=O

>  <Kd (nM)>


>  <Assay (Kd)>


>  <Ki (nM)>


>  <Assay (Ki)>


>  <IC50 (nM)>


>  <Assay (IC50)>


>  <EC50 (nM)>


>  <Assay (EC50)>


>  <Article DOI>


>  <Molecular Weight>
509.635

>  <Exact Mass>
509.1885461

>  <XLogP3>
4.01

>  <Heavy Atom Count>
37

>  <Ring Count>
6

>  <Hydrogen Bond Acceptor Count>
6

>  <Hydrogen Bond Donor Count>
2

>  <Rotatable Bond Count>
6

>  <Topological Polar Surface Area>
77.57

>  <Molecular Formula>
C29H27N5O2S

>  <InChI>
InChI=1S/C29H27N5O2S/c35-27(32-29-31-14-17-37-29)26(21-4-2-1-3-5-21)34-19-23-7-6-22(18-25(23)28(34)36)20-8-10-24(11-9-20)33-15-12-30-13-16-33/h1-11,14,17-18,26,30H,12-13,15-16,19H2,(H,31,32,35)

>  <InChI Key>
QXFMIOWJOJZIRH-UHFFFAOYSA-N

>  <BindingDB>


>  <PubChem>
135351574

>  <ChEMBL>


$$$$
176
Actelion Java MolfileCreator 2.0

  0  0  0  0  0  0              0 V3000
M  V30 BEGIN CTAB
M  V30 COUNTS 37 42 0 0 0
M  V30 BEGIN ATOM
M  V30 1 S 4.3776 -0.0932 0.0 0
M  V30 2 C 3.4641 -0.5 0.0 0
M  V30 3 C 5.0467 -0.8364 0.0 0
M  V30 4 N 3.5686 -1.4945 0.0 0
M  V30 5 N 2.598 0.0 0.0 0
M  V30 6 C 4.5467 -1.7024 0.0 0
M  V30 7 C 1.732 -0.5 0.0 0
M  V30 8 O 1.732 -1.5 0.0 0
M  V30 9 C 0.866 0.0 0.0 0 CFG=2
M  V30 10 N 0.866 1.0 0.0 0
M  V30 11 C 0.0 -0.5 0.0 0
M  V30 12 C 1.675 1.5877 0.0 0
M  V30 13 C 0.057 1.5877 0.0 0
M  V30 14 C -0.866 0.0 0.0 0
M  V30 15 C 0.0 -1.4999 0.0 0
M  V30 16 O 2.626 1.2787 0.0 0
M  V30 17 C 1.366 2.5388 0.0 0
M  V30 18 C 0.366 2.5388 0.0 0
M  V30 19 C -1.732 -0.4999 0.0 0
M  V30 20 C -0.866 -1.9999 0.0 0
M  V30 21 C 1.866 3.4048 0.0 0
M  V30 22 C -0.1339 3.4048 0.0 0
M  V30 23 C -1.732 -1.4999 0.0 0
M  V30 24 C 1.366 4.2708 0.0 0
M  V30 25 C 0.366 4.2708 0.0 0
M  V30 26 C 1.866 5.1369 0.0 0
M  V30 27 C 2.866 5.1369 0.0 0
M  V30 28 C 1.366 6.0029 0.0 0
M  V30 29 N 3.366 6.0029 0.0 0
M  V30 30 C 1.866 6.8689 0.0 0
M  V30 31 C 2.866 6.8689 0.0 0
M  V30 32 N 3.366 7.7349 0.0 0
M  V30 33 C 4.366 7.7349 0.0 0
M  V30 34 C 2.866 8.601 0.0 0
M  V30 35 C 4.866 8.601 0.0 0
M  V30 36 C 3.366 9.467 0.0 0
M  V30 37 N 4.366 9.467 0.0 0
M  V30 END ATOM
M  V30 BEGIN BOND
M  V30 1 1 1 2
M  V30 2 1 1 3
M  V30 3 2 2 4
M  V30 4 1 2 5
M  V30 5 2 3 6
M  V30 6 1 5 7
M  V30 7 2 7 8
M  V30 8 1 9 7
M  V30 9 1 9 10 CFG=1
M  V30 10 1 9 11
M  V30 11 1 10 12
M  V30 12 1 10 13
M  V30 13 2 11 14
M  V30 14 1 11 15
M  V30 15 2 12 16
M  V30 16 1 12 17
M  V30 17 1 13 18
M  V30 18 1 14 19
M  V30 19 2 15 20
M  V30 20 1 17 21
M  V30 21 1 18 22
M  V30 22 2 19 23
M  V30 23 2 21 24
M  V30 24 2 22 25
M  V30 25 1 24 26
M  V30 26 2 26 27
M  V30 27 1 26 28
M  V30 28 1 27 29
M  V30 29 2 28 30
M  V30 30 2 29 31
M  V30 31 1 31 32
M  V30 32 1 32 33
M  V30 33 1 32 34
M  V30 34 1 33 35
M  V30 35 1 34 36
M  V30 36 1 35 37
M  V30 37 1 4 6
M  V30 38 2 17 18
M  V30 39 1 20 23
M  V30 40 1 24 25
M  V30 41 1 30 31
M  V30 42 1 36 37
M  V30 END BOND
M  V30 BEGIN COLLECTION
M  V30 MDLV30/STERAC1 ATOMS=(1 9)
M  V30 END COLLECTION
M  V30 END CTAB
M  END
>  <Molecule Name>
Compound 530

>  <Molecule Name 2>
Compound 530

>  <Compound ID>
176

>  <Name>
JBJ-07-149

>  <Uniprot>
P00533

>  <Target>
EGFR

>  <Smiles>
O=C(NC1=NC=CS1)C(C1=CC=CC=C1)N1CC2=CC=C(C3=CC=C(N4CCNCC4)N=C3)C=C2C1=O

>  <Kd (nM)>


>  <Assay (Kd)>


>  <Ki (nM)>


>  <Assay (Ki)>


>  <IC50 (nM)>
1.1

>  <Assay (IC50)>
IC50 of L858R/T790M EGFR was assessed using HTRF assay

>  <EC50 (nM)>


>  <Assay (EC50)>


>  <Article DOI>
10.1002/anie.202003500

>  <Molecular Weight>
510.623

>  <Exact Mass>
510.1837951

>  <XLogP3>
3.27

>  <Heavy Atom Count>
37

>  <Ring Count>
6

>  <Hydrogen Bond Acceptor Count>
7

>  <Hydrogen Bond Donor Count>
2

>  <Rotatable Bond Count>
6

>  <Topological Polar Surface Area>
90.46

>  <Molecular Formula>
C28H26N6O2S

>  <InChI>
InChI=1S/C28H26N6O2S/c35-26(32-28-30-12-15-37-28)25(19-4-2-1-3-5-19)34-18-22-7-6-20(16-23(22)27(34)36)21-8-9-24(31-17-21)33-13-10-29-11-14-33/h1-9,12,15-17,25,29H,10-11,13-14,18H2,(H,30,32,35)

>  <InChI Key>
HXPIITIHOKIXNN-UHFFFAOYSA-N

>  <BindingDB>


>  <PubChem>
138534234

>  <ChEMBL>


$$$$
177
Actelion Java MolfileCreator 2.0

  0  0  0  0  0  0              0 V3000
M  V30 BEGIN CTAB
M  V30 COUNTS 33 37 0 0 0
M  V30 BEGIN ATOM
M  V30 1 Cl 6.9282 -1.5 0.0 0
M  V30 2 C 6.9282 -0.4999 0.0 0
M  V30 3 C 7.7942 0.0 0.0 0
M  V30 4 C 6.0621 0.0 0.0 0
M  V30 5 C 7.7942 1.0 0.0 0
M  V30 6 C 8.6602 -0.4999 0.0 0
M  V30 7 C 6.0621 1.0 0.0 0
M  V30 8 F 8.6602 1.5 0.0 0
M  V30 9 C 6.9282 1.5 0.0 0
M  V30 10 C 8.6602 -1.5 0.0 0
M  V30 11 C 9.5262 0.0 0.0 0
M  V30 12 C 5.1961 1.5 0.0 0
M  V30 13 N 6.9282 2.5 0.0 0
M  V30 14 C 9.5262 -2.0 0.0 0
M  V30 15 C 7.7942 -2.0 0.0 0
M  V30 16 C 10.3923 -0.5 0.0 0
M  V30 17 N 5.1961 2.5 0.0 0
M  V30 18 N 4.3301 1.0 0.0 0
M  V30 19 C 6.0621 3.0 0.0 0
M  V30 20 C 10.3923 -1.4999 0.0 0
M  V30 21 C 9.5262 -3.0 0.0 0
M  V30 22 C 7.7942 -2.9999 0.0 0
M  V30 23 O 11.2583 0.0 0.0 0
M  V30 24 C 3.4641 1.5 0.0 0
M  V30 25 C 4.3301 0.0 0.0 0
M  V30 26 C 8.6602 -3.5 0.0 0
M  V30 27 C 2.598 0.9999 0.0 0
M  V30 28 C 3.4641 -0.4999 0.0 0
M  V30 29 N 2.598 0.0 0.0 0
M  V30 30 C 1.732 -0.5 0.0 0
M  V30 31 O 1.732 -1.5 0.0 0
M  V30 32 C 0.866 0.0 0.0 0
M  V30 33 C 0.0 -0.5 0.0 0
M  V30 END ATOM
M  V30 BEGIN BOND
M  V30 1 1 1 2
M  V30 2 1 3 2 CFG=1
M  V30 3 2 2 4
M  V30 4 2 3 5
M  V30 5 1 3 6
M  V30 6 1 4 7
M  V30 7 1 5 8
M  V30 8 1 5 9
M  V30 9 1 6 10
M  V30 10 2 6 11
M  V30 11 2 7 12
M  V30 12 2 9 13
M  V30 13 1 10 14
M  V30 14 2 10 15
M  V30 15 1 11 16
M  V30 16 1 12 17
M  V30 17 1 12 18
M  V30 18 1 13 19
M  V30 19 1 14 20
M  V30 20 2 14 21
M  V30 21 1 15 22
M  V30 22 1 16 23
M  V30 23 1 18 24
M  V30 24 1 18 25
M  V30 25 1 21 26
M  V30 26 1 24 27
M  V30 27 1 25 28
M  V30 28 1 27 29
M  V30 29 1 29 30
M  V30 30 2 30 31
M  V30 31 1 30 32
M  V30 32 1 32 33
M  V30 33 1 7 9
M  V30 34 2 16 20
M  V30 35 2 17 19
M  V30 36 2 22 26
M  V30 37 1 28 29
M  V30 END BOND
M  V30 BEGIN COLLECTION
M  V30 MDLV30/STERAC1 BONDS=(1 5)
M  V30 END COLLECTION
M  V30 END CTAB
M  END
>  <Molecule Name>
Compound 531

>  <Molecule Name 2>
Compound 531

>  <Compound ID>
177

>  <Name>


>  <Uniprot>
P01116

>  <Target>
KRAS

>  <Smiles>
CCC(=O)N1CCN(C2=NC=NC3=C(F)C(C4=CC(O)=CC5=CC=CC=C45)=C(Cl)C=C23)CC1

>  <Kd (nM)>


>  <Assay (Kd)>


>  <Ki (nM)>


>  <Assay (Ki)>


>  <IC50 (nM)>


>  <Assay (IC50)>


>  <EC50 (nM)>


>  <Assay (EC50)>


>  <Article DOI>


>  <Molecular Weight>
464.928

>  <Exact Mass>
464.1415318

>  <XLogP3>
4.99

>  <Heavy Atom Count>
33

>  <Ring Count>
5

>  <Hydrogen Bond Acceptor Count>
5

>  <Hydrogen Bond Donor Count>
1

>  <Rotatable Bond Count>
3

>  <Topological Polar Surface Area>
69.56

>  <Molecular Formula>
C25H22ClFN4O2

>  <InChI>
InChI=1S/C25H22ClFN4O2/c1-2-21(33)30-7-9-31(10-8-30)25-19-13-20(26)22(23(27)24(19)28-14-29-25)18-12-16(32)11-15-5-3-4-6-17(15)18/h3-6,11-14,32H,2,7-10H2,1H3

>  <InChI Key>
CWHKFUMZXCHDNR-UHFFFAOYSA-N

>  <BindingDB>


>  <PubChem>
130377686

>  <ChEMBL>


$$$$
178
Actelion Java MolfileCreator 2.0

  0  0  0  0  0  0              0 V3000
M  V30 BEGIN CTAB
M  V30 COUNTS 24 26 0 0 0
M  V30 BEGIN ATOM
M  V30 1 Cl 3.8971 1.5 0.0 0
M  V30 2 C 3.8971 0.0 0.0 0
M  V30 3 C 2.598 -0.75 0.0 0
M  V30 4 C 5.1961 -0.75 0.0 0
M  V30 5 S 1.299 0.0 0.0 0
M  V30 6 C 2.598 -2.25 0.0 0
M  V30 7 N 6.4952 0.0 0.0 0
M  V30 8 C 5.1961 -2.25 0.0 0
M  V30 9 C 0.0 -0.75 0.0 0
M  V30 10 C 3.8971 -3.0 0.0 0
M  V30 11 N -1.299 0.0 0.0 0
M  V30 12 C 0.0 -2.25 0.0 0
M  V30 13 C -2.598 -0.75 0.0 0
M  V30 14 N -1.299 -3.0 0.0 0
M  V30 15 N 1.299 -3.0 0.0 0
M  V30 16 C -2.598 -2.25 0.0 0
M  V30 17 N -3.8971 -3.0 0.0 0
M  V30 18 C -5.1961 -2.25 0.0 0
M  V30 19 C -3.8971 -4.5 0.0 0
M  V30 20 C -6.4952 -3.0 0.0 0
M  V30 21 C -5.1961 -5.25 0.0 0
M  V30 22 C -6.4952 -4.5 0.0 0
M  V30 23 N -7.9951 -4.4999 0.0 0
M  V30 24 C -7.2451 -5.799 0.0 0
M  V30 END ATOM
M  V30 BEGIN BOND
M  V30 1 1 1 2
M  V30 2 2 2 3
M  V30 3 1 2 4
M  V30 4 1 3 5
M  V30 5 1 3 6
M  V30 6 1 4 7
M  V30 7 2 4 8
M  V30 8 1 5 9
M  V30 9 2 6 10
M  V30 10 2 9 11
M  V30 11 1 9 12
M  V30 12 1 11 13
M  V30 13 2 12 14
M  V30 14 1 12 15
M  V30 15 2 13 16
M  V30 16 1 16 17
M  V30 17 1 17 18
M  V30 18 1 17 19
M  V30 19 1 18 20
M  V30 20 1 19 21
M  V30 21 1 20 22
M  V30 22 1 22 23
M  V30 23 1 22 24
M  V30 24 1 8 10
M  V30 25 1 14 16
M  V30 26 1 21 22
M  V30 END BOND
M  V30 END CTAB
M  END
>  <Molecule Name>
Compound 532

>  <Molecule Name 2>
Compound 532

>  <Compound ID>
178

>  <Name>


>  <Uniprot>
Q06124

>  <Target>
SHP2

>  <Smiles>
CC1(N)CCN(C2=CN=C(SC3=CC=CC(N)=C3Cl)C(N)=N2)CC1

>  <Kd (nM)>


>  <Assay (Kd)>


>  <Ki (nM)>


>  <Assay (Ki)>


>  <IC50 (nM)>
76.2

>  <Assay (IC50)>
Allosteric inhibition of SHP2

>  <EC50 (nM)>


>  <Assay (EC50)>


>  <Article DOI>
10.1021/acs.jmedchem.0c00471

>  <Molecular Weight>
364.906

>  <Exact Mass>
364.1236934

>  <XLogP3>
2.04

>  <Heavy Atom Count>
24

>  <Ring Count>
3

>  <Hydrogen Bond Acceptor Count>
7

>  <Hydrogen Bond Donor Count>
3

>  <Rotatable Bond Count>
3

>  <Topological Polar Surface Area>
107.08

>  <Molecular Formula>
C16H21ClN6S

>  <InChI>
InChI=1S/C16H21ClN6S/c1-16(20)5-7-23(8-6-16)12-9-21-15(14(19)22-12)24-11-4-2-3-10(18)13(11)17/h2-4,9H,5-8,18,20H2,1H3,(H2,19,22)

>  <InChI Key>
WNFIWADQGMQPQN-UHFFFAOYSA-N

>  <BindingDB>
392311

>  <PubChem>
118239524

>  <ChEMBL>


$$$$
179
Actelion Java MolfileCreator 2.0

  0  0  0  0  0  0              0 V3000
M  V30 BEGIN CTAB
M  V30 COUNTS 35 38 0 0 0
M  V30 BEGIN ATOM
M  V30 1 S 0.866 3.9999 0.0 0
M  V30 2 O -0.1339 3.9999 0.0 0
M  V30 3 O 1.866 4.0 0.0 0
M  V30 4 N 0.866 3.0 0.0 0
M  V30 5 C 0.866 4.9999 0.0 0
M  V30 6 C 1.732 2.4999 0.0 0
M  V30 7 C 0.0 2.4999 0.0 0
M  V30 8 N 2.598 2.9999 0.0 0
M  V30 9 C 1.732 1.4999 0.0 0
M  V30 10 C 3.4641 2.4999 0.0 0
M  V30 11 C 2.598 0.9999 0.0 0
M  V30 12 C 0.866 0.9999 0.0 0
M  V30 13 C 3.4641 1.4999 0.0 0
M  V30 14 N 0.866 0.0 0.0 0
M  V30 15 C 0.0 -0.5 0.0 0
M  V30 16 N -0.866 0.0 0.0 0
M  V30 17 C 0.0 -1.4999 0.0 0
M  V30 18 C -1.732 -0.4999 0.0 0
M  V30 19 C -0.866 -1.9999 0.0 0
M  V30 20 C 0.866 -2.0 0.0 0
M  V30 21 N -1.732 -1.4999 0.0 0
M  V30 22 N -2.598 0.0 0.0 0
M  V30 23 F 1.366 -1.1339 0.0 0
M  V30 24 F 1.732 -2.5 0.0 0
M  V30 25 F 0.366 -2.866 0.0 0
M  V30 26 C -3.4641 -0.4999 0.0 0
M  V30 27 C -3.4641 -1.4999 0.0 0
M  V30 28 C -4.3301 0.0 0.0 0
M  V30 29 C -4.3301 -1.9999 0.0 0
M  V30 30 C -5.1961 -0.4999 0.0 0
M  V30 31 C -5.1961 -1.4999 0.0 0
M  V30 32 C -4.538 -2.9781 0.0 0
M  V30 33 N -5.9392 -2.1691 0.0 0
M  V30 34 C -5.5325 -3.0826 0.0 0
M  V30 35 O -6.0325 -3.9487 0.0 0
M  V30 END ATOM
M  V30 BEGIN BOND
M  V30 1 2 1 2
M  V30 2 2 1 3
M  V30 3 1 1 4
M  V30 4 1 1 5
M  V30 5 1 4 6
M  V30 6 1 4 7
M  V30 7 2 6 8
M  V30 8 1 6 9
M  V30 9 1 8 10
M  V30 10 2 9 11
M  V30 11 1 9 12
M  V30 12 2 10 13
M  V30 13 1 12 14
M  V30 14 1 14 15
M  V30 15 2 15 16
M  V30 16 1 15 17
M  V30 17 1 16 18
M  V30 18 2 17 19
M  V30 19 1 17 20
M  V30 20 2 18 21
M  V30 21 1 18 22
M  V30 22 1 20 23
M  V30 23 1 20 24
M  V30 24 1 20 25
M  V30 25 1 22 26
M  V30 26 2 26 27
M  V30 27 1 26 28
M  V30 28 1 27 29
M  V30 29 2 28 30
M  V30 30 2 29 31
M  V30 31 1 29 32
M  V30 32 1 31 33
M  V30 33 1 32 34
M  V30 34 2 34 35
M  V30 35 1 11 13
M  V30 36 1 19 21
M  V30 37 1 30 31
M  V30 38 1 33 34
M  V30 END BOND
M  V30 END CTAB
M  END
>  <Molecule Name>
Compound 533

>  <Molecule Name 2>
Compound 533

>  <Compound ID>
179

>  <Name>
PF-562271

>  <Uniprot>
Q05397

>  <Target>
FAK

>  <Smiles>
CN(C1=NC=CC=C1CNC1=NC(NC2=CC=C3NC(=O)CC3=C2)=NC=C1C(F)(F)F)S(C)(=O)=O

>  <Kd (nM)>


>  <Assay (Kd)>


>  <Ki (nM)>


>  <Assay (Ki)>


>  <IC50 (nM)>
1.5

>  <Assay (IC50)>
Inhibition of FAK

>  <EC50 (nM)>


>  <Assay (EC50)>


>  <Article DOI>
10.1021/jm9018756

>  <Molecular Weight>
507.498

>  <Exact Mass>
507.1300432

>  <XLogP3>
2.04

>  <Heavy Atom Count>
35

>  <Ring Count>
4

>  <Hydrogen Bond Acceptor Count>
8

>  <Hydrogen Bond Donor Count>
3

>  <Rotatable Bond Count>
7

>  <Topological Polar Surface Area>
129.21

>  <Molecular Formula>
C21H20F3N7O3S

>  <InChI>
InChI=1S/C21H20F3N7O3S/c1-31(35(2,33)34)19-12(4-3-7-25-19)10-26-18-15(21(22,23)24)11-27-20(30-18)28-14-5-6-16-13(8-14)9-17(32)29-16/h3-8,11H,9-10H2,1-2H3,(H,29,32)(H2,26,27,28,30)

>  <InChI Key>
MZDKLVOWGIOKTN-UHFFFAOYSA-N

>  <BindingDB>
50318884

>  <PubChem>
11713159

>  <ChEMBL>
CHEMBL1084546

$$$$
180
Actelion Java MolfileCreator 2.0

  0  0  0  0  0  0              0 V3000
M  V30 BEGIN CTAB
M  V30 COUNTS 39 44 0 0 0
M  V30 BEGIN ATOM
M  V30 1 S 4.3776 -0.0932 0.0 0
M  V30 2 C 3.4641 -0.5 0.0 0
M  V30 3 C 5.0467 -0.8364 0.0 0
M  V30 4 N 3.5686 -1.4945 0.0 0
M  V30 5 N 2.598 0.0 0.0 0
M  V30 6 C 4.5467 -1.7024 0.0 0
M  V30 7 C 1.732 -0.5 0.0 0
M  V30 8 O 1.732 -1.5 0.0 0
M  V30 9 C 0.866 0.0 0.0 0 CFG=2
M  V30 10 N 0.866 1.0 0.0 0
M  V30 11 C 0.0 -0.5 0.0 0
M  V30 12 C 1.675 1.5877 0.0 0
M  V30 13 C 0.057 1.5877 0.0 0
M  V30 14 C -0.866 0.0 0.0 0
M  V30 15 C 0.0 -1.4999 0.0 0
M  V30 16 O 2.626 1.2787 0.0 0
M  V30 17 C 1.366 2.5388 0.0 0
M  V30 18 C 0.366 2.5388 0.0 0
M  V30 19 O -0.866 1.0 0.0 0
M  V30 20 C -1.732 -0.4999 0.0 0
M  V30 21 C -0.866 -1.9999 0.0 0
M  V30 22 C 1.866 3.4048 0.0 0
M  V30 23 C -0.1339 3.4048 0.0 0
M  V30 24 C -1.732 -1.4999 0.0 0
M  V30 25 F -0.866 -2.9999 0.0 0
M  V30 26 C 1.366 4.2708 0.0 0
M  V30 27 C 0.366 4.2708 0.0 0
M  V30 28 C 1.866 5.1369 0.0 0
M  V30 29 C 2.866 5.1369 0.0 0
M  V30 30 C 1.366 6.0029 0.0 0
M  V30 31 C 3.366 6.0029 0.0 0
M  V30 32 C 1.866 6.8689 0.0 0
M  V30 33 C 2.866 6.8689 0.0 0
M  V30 34 N 3.366 7.7349 0.0 0
M  V30 35 C 4.366 7.7349 0.0 0
M  V30 36 C 2.866 8.601 0.0 0
M  V30 37 C 4.866 8.601 0.0 0
M  V30 38 C 3.366 9.467 0.0 0
M  V30 39 N 4.366 9.467 0.0 0
M  V30 END ATOM
M  V30 BEGIN BOND
M  V30 1 1 1 2
M  V30 2 1 1 3
M  V30 3 2 2 4
M  V30 4 1 2 5
M  V30 5 2 3 6
M  V30 6 1 5 7
M  V30 7 2 7 8
M  V30 8 1 9 7
M  V30 9 1 9 10 CFG=1
M  V30 10 1 9 11
M  V30 11 1 10 12
M  V30 12 1 10 13
M  V30 13 2 11 14
M  V30 14 1 11 15
M  V30 15 2 12 16
M  V30 16 1 12 17
M  V30 17 1 13 18
M  V30 18 1 14 19
M  V30 19 1 14 20
M  V30 20 2 15 21
M  V30 21 1 17 22
M  V30 22 1 18 23
M  V30 23 2 20 24
M  V30 24 1 21 25
M  V30 25 2 22 26
M  V30 26 2 23 27
M  V30 27 1 26 28
M  V30 28 2 28 29
M  V30 29 1 28 30
M  V30 30 1 29 31
M  V30 31 2 30 32
M  V30 32 2 31 33
M  V30 33 1 33 34
M  V30 34 1 34 35
M  V30 35 1 34 36
M  V30 36 1 35 37
M  V30 37 1 36 38
M  V30 38 1 37 39
M  V30 39 1 4 6
M  V30 40 2 17 18
M  V30 41 1 21 24
M  V30 42 1 26 27
M  V30 43 1 32 33
M  V30 44 1 38 39
M  V30 END BOND
M  V30 BEGIN COLLECTION
M  V30 MDLV30/STERAC1 ATOMS=(1 9)
M  V30 END COLLECTION
M  V30 END CTAB
M  END
>  <Molecule Name>
Compound 534

>  <Molecule Name 2>
Compound 534

>  <Compound ID>
180

>  <Name>
JBJ-04-125-02

>  <Uniprot>
P00533

>  <Target>
EGFR

>  <Smiles>
O=C(NC1=NC=CS1)C(C1=CC(F)=CC=C1O)N1CC2=CC=C(C3=CC=C(N4CCNCC4)C=C3)C=C2C1=O

>  <Kd (nM)>


>  <Assay (Kd)>


>  <Ki (nM)>


>  <Assay (Ki)>


>  <IC50 (nM)>
0.26

>  <Assay (IC50)>
IC50 of L858R/T790M EGFR was assessed using HTRF assay

>  <EC50 (nM)>


>  <Assay (EC50)>


>  <Article DOI>
10.1158/2159-8290.CD-18-0903

>  <Molecular Weight>
543.624

>  <Exact Mass>
543.1740389

>  <XLogP3>
3.76

>  <Heavy Atom Count>
39

>  <Ring Count>
6

>  <Hydrogen Bond Acceptor Count>
7

>  <Hydrogen Bond Donor Count>
3

>  <Rotatable Bond Count>
6

>  <Topological Polar Surface Area>
97.8

>  <Molecular Formula>
C29H26FN5O3S

>  <InChI>
InChI=1S/C29H26FN5O3S/c30-21-5-8-25(36)24(16-21)26(27(37)33-29-32-11-14-39-29)35-17-20-2-1-19(15-23(20)28(35)38)18-3-6-22(7-4-18)34-12-9-31-10-13-34/h1-8,11,14-16,26,31,36H,9-10,12-13,17H2,(H,32,33,37)

>  <InChI Key>
VHQVOTINPRYDAO-UHFFFAOYSA-N

>  <BindingDB>


>  <PubChem>
132020316

>  <ChEMBL>


$$$$
181
Actelion Java MolfileCreator 2.0

  0  0  0  0  0  0              0 V3000
M  V30 BEGIN CTAB
M  V30 COUNTS 39 44 0 0 0
M  V30 BEGIN ATOM
M  V30 1 S 4.3776 -0.0932 0.0 0
M  V30 2 C 3.4641 -0.5 0.0 0
M  V30 3 C 5.0467 -0.8364 0.0 0
M  V30 4 N 3.5686 -1.4945 0.0 0
M  V30 5 N 2.598 0.0 0.0 0
M  V30 6 C 4.5467 -1.7024 0.0 0
M  V30 7 C 1.732 -0.5 0.0 0
M  V30 8 O 1.732 -1.5 0.0 0
M  V30 9 C 0.866 0.0 0.0 0 CFG=2
M  V30 10 N 0.866 1.0 0.0 0
M  V30 11 C 0.0 -0.5 0.0 0
M  V30 12 C 1.675 1.5877 0.0 0
M  V30 13 C 0.057 1.5877 0.0 0
M  V30 14 C -0.866 0.0 0.0 0
M  V30 15 C 0.0 -1.4999 0.0 0
M  V30 16 O 2.626 1.2787 0.0 0
M  V30 17 C 1.366 2.5388 0.0 0
M  V30 18 C 0.366 2.5388 0.0 0
M  V30 19 F -0.866 1.0 0.0 0
M  V30 20 C -1.732 -0.4999 0.0 0
M  V30 21 C -0.866 -1.9999 0.0 0
M  V30 22 C 1.866 3.4048 0.0 0
M  V30 23 C -0.1339 3.4048 0.0 0
M  V30 24 C -1.732 -1.4999 0.0 0
M  V30 25 F -0.866 -2.9999 0.0 0
M  V30 26 C 1.366 4.2708 0.0 0
M  V30 27 C 0.366 4.2708 0.0 0
M  V30 28 C 1.866 5.1369 0.0 0
M  V30 29 C 2.866 5.1369 0.0 0
M  V30 30 C 1.366 6.0029 0.0 0
M  V30 31 C 3.366 6.0029 0.0 0
M  V30 32 C 1.866 6.8689 0.0 0
M  V30 33 C 2.866 6.8689 0.0 0
M  V30 34 N 3.366 7.7349 0.0 0
M  V30 35 C 4.366 7.7349 0.0 0
M  V30 36 C 2.866 8.601 0.0 0
M  V30 37 C 4.866 8.601 0.0 0
M  V30 38 C 3.366 9.467 0.0 0
M  V30 39 N 4.366 9.467 0.0 0
M  V30 END ATOM
M  V30 BEGIN BOND
M  V30 1 1 1 2
M  V30 2 1 1 3
M  V30 3 2 2 4
M  V30 4 1 2 5
M  V30 5 2 3 6
M  V30 6 1 5 7
M  V30 7 2 7 8
M  V30 8 1 9 7
M  V30 9 1 9 10 CFG=1
M  V30 10 1 9 11
M  V30 11 1 10 12
M  V30 12 1 10 13
M  V30 13 2 11 14
M  V30 14 1 11 15
M  V30 15 2 12 16
M  V30 16 1 12 17
M  V30 17 1 13 18
M  V30 18 1 14 19
M  V30 19 1 14 20
M  V30 20 2 15 21
M  V30 21 1 17 22
M  V30 22 1 18 23
M  V30 23 2 20 24
M  V30 24 1 21 25
M  V30 25 2 22 26
M  V30 26 2 23 27
M  V30 27 1 26 28
M  V30 28 2 28 29
M  V30 29 1 28 30
M  V30 30 1 29 31
M  V30 31 2 30 32
M  V30 32 2 31 33
M  V30 33 1 33 34
M  V30 34 1 34 35
M  V30 35 1 34 36
M  V30 36 1 35 37
M  V30 37 1 36 38
M  V30 38 1 37 39
M  V30 39 1 4 6
M  V30 40 2 17 18
M  V30 41 1 21 24
M  V30 42 1 26 27
M  V30 43 1 32 33
M  V30 44 1 38 39
M  V30 END BOND
M  V30 BEGIN COLLECTION
M  V30 MDLV30/STERAC1 ATOMS=(1 9)
M  V30 END COLLECTION
M  V30 END CTAB
M  END
>  <Molecule Name>
Compound 535

>  <Molecule Name 2>
Compound 535

>  <Compound ID>
181

>  <Name>


>  <Uniprot>
P00533

>  <Target>
EGFR

>  <Smiles>
O=C(NC1=NC=CS1)C(C1=CC(F)=CC=C1F)N1CC2=CC=C(C3=CC=C(N4CCNCC4)C=C3)C=C2C1=O

>  <Kd (nM)>


>  <Assay (Kd)>


>  <Ki (nM)>


>  <Assay (Ki)>


>  <IC50 (nM)>


>  <Assay (IC50)>


>  <EC50 (nM)>


>  <Assay (EC50)>


>  <Article DOI>


>  <Molecular Weight>
545.615

>  <Exact Mass>
545.1697025

>  <XLogP3>
4.21

>  <Heavy Atom Count>
39

>  <Ring Count>
6

>  <Hydrogen Bond Acceptor Count>
6

>  <Hydrogen Bond Donor Count>
2

>  <Rotatable Bond Count>
6

>  <Topological Polar Surface Area>
77.57

>  <Molecular Formula>
C29H25F2N5O2S

>  <InChI>
InChI=1S/C29H25F2N5O2S/c30-21-5-8-25(31)24(16-21)26(27(37)34-29-33-11-14-39-29)36-17-20-2-1-19(15-23(20)28(36)38)18-3-6-22(7-4-18)35-12-9-32-10-13-35/h1-8,11,14-16,26,32H,9-10,12-13,17H2,(H,33,34,37)

>  <InChI Key>
ZSCZIAGGEVDOOK-UHFFFAOYSA-N

>  <BindingDB>


>  <PubChem>
124173778

>  <ChEMBL>


$$$$
182
Actelion Java MolfileCreator 2.0

  0  0  0  0  0  0              0 V3000
M  V30 BEGIN CTAB
M  V30 COUNTS 28 30 0 0 0
M  V30 BEGIN ATOM
M  V30 1 F 3.9641 0.366 0.0 0
M  V30 2 C 3.4641 -0.5 0.0 0
M  V30 3 F 4.3301 -1.0 0.0 0
M  V30 4 F 2.9641 -1.366 0.0 0
M  V30 5 C 2.598 0.0 0.0 0
M  V30 6 C 2.598 0.9999 0.0 0
M  V30 7 C 1.732 -0.4999 0.0 0
M  V30 8 C 3.4641 1.4999 0.0 0
M  V30 9 C 1.732 1.4999 0.0 0
M  V30 10 C 0.866 0.0 0.0 0
M  V30 11 N 4.3301 1.9999 0.0 0
M  V30 12 C 0.866 1.0 0.0 0
M  V30 13 N 0.0 -0.5 0.0 0
M  V30 14 C -0.9135 -0.0932 0.0 0
M  V30 15 C -0.1045 -1.4945 0.0 0
M  V30 16 O -1.1214 0.8848 0.0 0
M  V30 17 N -1.5826 -0.8364 0.0 0
M  V30 18 O 0.6386 -2.1636 0.0 0
M  V30 19 C -1.0826 -1.7024 0.0 0 CFG=2
M  V30 20 C -2.5771 -0.7318 0.0 0
M  V30 21 C -1.4894 -2.6159 0.0 0
M  V30 22 C -2.0813 -1.7547 0.0 0
M  V30 23 C -2.4839 -2.7205 0.0 0
M  V30 24 C -0.9016 -3.4249 0.0 0
M  V30 25 C -2.8906 -3.634 0.0 0
M  V30 26 C -1.3083 -4.3385 0.0 0
M  V30 27 C -2.3028 -4.443 0.0 0
M  V30 28 O -2.7096 -5.3566 0.0 0
M  V30 END ATOM
M  V30 BEGIN BOND
M  V30 1 1 1 2
M  V30 2 1 2 3
M  V30 3 1 2 4
M  V30 4 1 2 5
M  V30 5 2 5 6
M  V30 6 1 5 7
M  V30 7 1 6 8
M  V30 8 1 6 9
M  V30 9 2 7 10
M  V30 10 3 8 11
M  V30 11 2 9 12
M  V30 12 1 10 13
M  V30 13 1 13 14
M  V30 14 1 13 15
M  V30 15 2 14 16
M  V30 16 1 14 17
M  V30 17 2 15 18
M  V30 18 1 19 15
M  V30 19 1 17 20
M  V30 20 1 19 21
M  V30 21 1 19 22 CFG=3
M  V30 22 2 21 23
M  V30 23 1 21 24
M  V30 24 1 23 25
M  V30 25 2 24 26
M  V30 26 2 25 27
M  V30 27 1 27 28
M  V30 28 1 10 12
M  V30 29 1 17 19
M  V30 30 1 26 27
M  V30 END BOND
M  V30 BEGIN COLLECTION
M  V30 MDLV30/STERAC1 ATOMS=(1 19)
M  V30 END COLLECTION
M  V30 END CTAB
M  END
>  <Molecule Name>
Compound 536

>  <Molecule Name 2>
Compound 536

>  <Compound ID>
182

>  <Name>


>  <Uniprot>
P10275

>  <Target>
AR

>  <Smiles>
CN1C(=O)N(C2=CC=C(C#N)C(C(F)(F)F)=C2)C(=O)C1(C)C1=CC=C(O)C=C1

>  <Kd (nM)>


>  <Assay (Kd)>


>  <Ki (nM)>


>  <Assay (Ki)>


>  <IC50 (nM)>


>  <Assay (IC50)>


>  <EC50 (nM)>
1.6

>  <Assay (EC50)>
Inhibit transcriptional activity of AR

>  <Article DOI>
10.1021/jm300249m

>  <Molecular Weight>
389.333

>  <Exact Mass>
389.098726

>  <XLogP3>
3.01

>  <Heavy Atom Count>
28

>  <Ring Count>
3

>  <Hydrogen Bond Acceptor Count>
4

>  <Hydrogen Bond Donor Count>
1

>  <Rotatable Bond Count>
2

>  <Topological Polar Surface Area>
84.64

>  <Molecular Formula>
C19H14F3N3O3

>  <InChI>
InChI=1S/C19H14F3N3O3/c1-18(12-4-7-14(26)8-5-12)16(27)25(17(28)24(18)2)13-6-3-11(10-23)15(9-13)19(20,21)22/h3-9,26H,1-2H3

>  <InChI Key>
IHPVXUVRRPAUIQ-UHFFFAOYSA-N

>  <BindingDB>
50398195

>  <PubChem>
24812199

>  <ChEMBL>
CHEMBL2177236

$$$$
183
Actelion Java MolfileCreator 2.0

  0  0  0  0  0  0              0 V3000
M  V30 BEGIN CTAB
M  V30 COUNTS 31 33 0 0 0
M  V30 BEGIN ATOM
M  V30 1 F 11.1313 -2.6893 0.0 0
M  V30 2 C 9.6313 -2.6893 0.0 0
M  V30 3 F 9.6313 -4.1893 0.0 0
M  V30 4 F 8.1313 -2.6893 0.0 0
M  V30 5 C 9.6313 -1.1893 0.0 0
M  V30 6 C 10.9304 -0.4393 0.0 0
M  V30 7 C 8.3323 -0.4393 0.0 0
M  V30 8 C 12.2294 -1.1893 0.0 0
M  V30 9 C 10.9304 1.0606 0.0 0
M  V30 10 C 8.3323 1.0606 0.0 0
M  V30 11 N 13.5284 -1.9393 0.0 0
M  V30 12 C 9.6313 1.8106 0.0 0
M  V30 13 O 7.0332 1.8106 0.0 0
M  V30 14 C 5.7342 1.0606 0.0 0 CFG=1
M  V30 15 C 4.2853 1.4488 0.0 0
M  V30 16 C 5.346 -0.3882 0.0 0
M  V30 17 C 3.8971 0.0 0.0 0 CFG=1
M  V30 18 C 4.2853 2.9488 0.0 0
M  V30 19 C 2.9863 2.1988 0.0 0
M  V30 20 C 5.3459 -1.8882 0.0 0
M  V30 21 C 6.645 -1.1381 0.0 0
M  V30 22 N 2.598 -0.75 0.0 0
M  V30 23 C 1.299 0.0 0.0 0
M  V30 24 O 1.299 1.5 0.0 0
M  V30 25 C 0.0 -0.75 0.0 0
M  V30 26 C -1.299 0.0 0.0 0
M  V30 27 C 0.0 -2.25 0.0 0
M  V30 28 C -2.598 -0.75 0.0 0
M  V30 29 C -1.299 -3.0 0.0 0
M  V30 30 C -2.598 -2.25 0.0 0
M  V30 31 O -3.8971 -3.0 0.0 0
M  V30 END ATOM
M  V30 BEGIN BOND
M  V30 1 1 1 2
M  V30 2 1 2 3
M  V30 3 1 2 4
M  V30 4 1 2 5
M  V30 5 2 5 6
M  V30 6 1 5 7
M  V30 7 1 6 8
M  V30 8 1 6 9
M  V30 9 2 7 10
M  V30 10 3 8 11
M  V30 11 2 9 12
M  V30 12 1 10 13
M  V30 13 1 14 13 CFG=3
M  V30 14 1 14 15
M  V30 15 1 14 16
M  V30 16 1 17 15
M  V30 17 1 15 18
M  V30 18 1 15 19
M  V30 19 1 16 20
M  V30 20 1 16 21
M  V30 21 1 17 22 CFG=1
M  V30 22 1 22 23
M  V30 23 2 23 24
M  V30 24 1 23 25
M  V30 25 2 25 26
M  V30 26 1 25 27
M  V30 27 1 26 28
M  V30 28 2 27 29
M  V30 29 2 28 30
M  V30 30 1 30 31
M  V30 31 1 10 12
M  V30 32 1 16 17
M  V30 33 1 29 30
M  V30 END BOND
M  V30 BEGIN COLLECTION
M  V30 MDLV30/STEABS ATOMS=(2 14 17)
M  V30 END COLLECTION
M  V30 END CTAB
M  END
>  <Molecule Name>
Compound 537

>  <Molecule Name 2>
Compound 537

>  <Compound ID>
183

>  <Name>


>  <Uniprot>
P10275

>  <Target>
AR

>  <Smiles>
CC1(C)[C@H](NC(=O)C2=CC=C(O)C=C2)C(C)(C)[C@H]1OC1=CC=C(C#N)C(C(F)(F)F)=C1

>  <Kd (nM)>


>  <Assay (Kd)>


>  <Ki (nM)>


>  <Assay (Ki)>


>  <IC50 (nM)>


>  <Assay (IC50)>


>  <EC50 (nM)>


>  <Assay (EC50)>


>  <Article DOI>


>  <Molecular Weight>
432.442

>  <Exact Mass>
432.1660773

>  <XLogP3>
5.4

>  <Heavy Atom Count>
31

>  <Ring Count>
3

>  <Hydrogen Bond Acceptor Count>
4

>  <Hydrogen Bond Donor Count>
2

>  <Rotatable Bond Count>
4

>  <Topological Polar Surface Area>
82.35

>  <Molecular Formula>
C23H23F3N2O3

>  <InChI>
InChI=1S/C23H23F3N2O3/c1-21(2)19(28-18(30)13-5-8-15(29)9-6-13)22(3,4)20(21)31-16-10-7-14(12-27)17(11-16)23(24,25)26/h5-11,19-20,29H,1-4H3,(H,28,30)/t19-,20-

>  <InChI Key>
QFVAWVWUDMGUES-MXVIHJGJSA-N

>  <BindingDB>


>  <PubChem>


>  <ChEMBL>


$$$$
184
Actelion Java MolfileCreator 2.0

  0  0  0  0  0  0              0 V3000
M  V30 BEGIN CTAB
M  V30 COUNTS 27 28 0 0 0
M  V30 BEGIN ATOM
M  V30 1 F 10.5932 -4.5 0.0 0
M  V30 2 C 9.0932 -4.5 0.0 0
M  V30 3 F 9.0932 -6.0 0.0 0
M  V30 4 F 7.5932 -4.5 0.0 0
M  V30 5 C 9.0932 -3.0 0.0 0
M  V30 6 C 10.3923 -2.25 0.0 0
M  V30 7 C 7.7942 -2.25 0.0 0
M  V30 8 C 11.6913 -3.0 0.0 0
M  V30 9 C 10.3923 -0.75 0.0 0
M  V30 10 C 7.7942 -0.75 0.0 0
M  V30 11 N 12.9904 -3.75 0.0 0
M  V30 12 C 9.0932 0.0 0.0 0
M  V30 13 N 6.4952 0.0 0.0 0
M  V30 14 C 5.1961 -0.75 0.0 0
M  V30 15 O 5.1961 -2.25 0.0 0
M  V30 16 C 3.8971 0.0 0.0 0 CFG=1
M  V30 17 O 4.6471 1.299 0.0 0
M  V30 18 C 2.598 -0.75 0.0 0
M  V30 19 C 3.1471 1.299 0.0 0
M  V30 20 O 1.299 0.0 0.0 0
M  V30 21 C 0.0 -0.75 0.0 0
M  V30 22 C -1.299 0.0 0.0 0
M  V30 23 C 0.0 -2.25 0.0 0
M  V30 24 C -2.598 -0.75 0.0 0
M  V30 25 C -1.299 -3.0 0.0 0
M  V30 26 C -2.598 -2.25 0.0 0
M  V30 27 O -3.8971 -3.0 0.0 0
M  V30 END ATOM
M  V30 BEGIN BOND
M  V30 1 1 1 2
M  V30 2 1 2 3
M  V30 3 1 2 4
M  V30 4 1 2 5
M  V30 5 2 5 6
M  V30 6 1 5 7
M  V30 7 1 6 8
M  V30 8 1 6 9
M  V30 9 2 7 10
M  V30 10 3 8 11
M  V30 11 2 9 12
M  V30 12 1 10 13
M  V30 13 1 13 14
M  V30 14 2 14 15
M  V30 15 1 16 14
M  V30 16 1 16 17 CFG=3
M  V30 17 1 16 18
M  V30 18 1 16 19
M  V30 19 1 18 20
M  V30 20 1 20 21
M  V30 21 2 21 22
M  V30 22 1 21 23
M  V30 23 1 22 24
M  V30 24 2 23 25
M  V30 25 2 24 26
M  V30 26 1 26 27
M  V30 27 1 10 12
M  V30 28 1 25 26
M  V30 END BOND
M  V30 BEGIN COLLECTION
M  V30 MDLV30/STERAC1 ATOMS=(1 16)
M  V30 END COLLECTION
M  V30 END CTAB
M  END
>  <Molecule Name>
Compound 538

>  <Molecule Name 2>
Compound 538

>  <Compound ID>
184

>  <Name>


>  <Uniprot>
P10275

>  <Target>
AR

>  <Smiles>
CC(O)(COC1=CC=C(O)C=C1)C(=O)NC1=CC=C(C#N)C(C(F)(F)F)=C1

>  <Kd (nM)>


>  <Assay (Kd)>


>  <Ki (nM)>


>  <Assay (Ki)>


>  <IC50 (nM)>


>  <Assay (IC50)>


>  <EC50 (nM)>


>  <Assay (EC50)>


>  <Article DOI>
10.1016/j.steroids.2011.08.005

>  <Molecular Weight>
380.322

>  <Exact Mass>
380.0983916

>  <XLogP3>
2.58

>  <Heavy Atom Count>
27

>  <Ring Count>
2

>  <Hydrogen Bond Acceptor Count>
5

>  <Hydrogen Bond Donor Count>
3

>  <Rotatable Bond Count>
5

>  <Topological Polar Surface Area>
102.58

>  <Molecular Formula>
C18H15F3N2O4

>  <InChI>
InChI=1S/C18H15F3N2O4/c1-17(26,10-27-14-6-4-13(24)5-7-14)16(25)23-12-3-2-11(9-22)15(8-12)18(19,20)21/h2-8,24,26H,10H2,1H3,(H,23,25)

>  <InChI Key>
UOXUMEPBIKRPOH-UHFFFAOYSA-N

>  <BindingDB>


>  <PubChem>
123256769

>  <ChEMBL>


$$$$
185
Actelion Java MolfileCreator 2.0

  0  0  0  0  0  0              0 V3000
M  V30 BEGIN CTAB
M  V30 COUNTS 17 19 0 0 0
M  V30 BEGIN ATOM
M  V30 1 S 7.8655 -2.3898 0.0 0
M  V30 2 C 6.4951 -3.0 0.0 0
M  V30 3 C 8.8692 -3.5046 0.0 0
M  V30 4 N 6.6519 -4.4917 0.0 0
M  V30 5 C 5.1961 -2.25 0.0 0
M  V30 6 C 8.1192 -4.8036 0.0 0
M  V30 7 C 10.3692 -3.5046 0.0 0
M  V30 8 C 5.1961 -0.75 0.0 0
M  V30 9 C 3.8971 -2.9999 0.0 0
M  V30 10 C 8.8692 -6.1026 0.0 0
M  V30 11 C 11.1192 -4.8036 0.0 0
M  V30 12 C 3.8971 0.0 0.0 0
M  V30 13 C 2.598 -2.25 0.0 0
M  V30 14 C 10.3692 -6.1026 0.0 0
M  V30 15 C 2.598 -0.75 0.0 0
M  V30 16 N 1.299 0.0 0.0 0
M  V30 17 C 0.0 -0.75 0.0 0
M  V30 END ATOM
M  V30 BEGIN BOND
M  V30 1 1 1 2
M  V30 2 1 1 3
M  V30 3 2 2 4
M  V30 4 1 2 5
M  V30 5 2 3 6
M  V30 6 1 3 7
M  V30 7 2 5 8
M  V30 8 1 5 9
M  V30 9 1 6 10
M  V30 10 2 7 11
M  V30 11 1 8 12
M  V30 12 2 9 13
M  V30 13 2 10 14
M  V30 14 2 12 15
M  V30 15 1 15 16
M  V30 16 1 16 17
M  V30 17 1 4 6
M  V30 18 1 11 14
M  V30 19 1 13 15
M  V30 END BOND
M  V30 END CTAB
M  END
>  <Molecule Name>
Compound 539

>  <Molecule Name 2>
Compound 539

>  <Compound ID>
185

>  <Name>
BTA-1

>  <Uniprot>
P37840

>  <Target>
Alpha-syn

>  <Smiles>
CNC1=CC=C(C2=NC3=CC=CC=C3S2)C=C1

>  <Kd (nM)>


>  <Assay (Kd)>


>  <Ki (nM)>


>  <Assay (Ki)>


>  <IC50 (nM)>


>  <Assay (IC50)>


>  <EC50 (nM)>


>  <Assay (EC50)>


>  <Article DOI>
10.1021/acsmedchemlett.0c00192

>  <Molecular Weight>
240.331

>  <Exact Mass>
240.0721194

>  <XLogP3>
4.24

>  <Heavy Atom Count>
17

>  <Ring Count>
3

>  <Hydrogen Bond Acceptor Count>
3

>  <Hydrogen Bond Donor Count>
1

>  <Rotatable Bond Count>
2

>  <Topological Polar Surface Area>
24.92

>  <Molecular Formula>
C14H12N2S

>  <InChI>
InChI=1S/C14H12N2S/c1-15-11-8-6-10(7-9-11)14-16-12-4-2-3-5-13(12)17-14/h2-9,15H,1H3

>  <InChI Key>
FHJRKGXJBXPBGA-UHFFFAOYSA-N

>  <BindingDB>
50109052

>  <PubChem>
9837643

>  <ChEMBL>
CHEMBL93334

$$$$
186
Actelion Java MolfileCreator 2.0

  0  0  0  0  0  0              0 V3000
M  V30 BEGIN CTAB
M  V30 COUNTS 29 32 0 0 0
M  V30 BEGIN ATOM
M  V30 1 O 9.0932 -4.5 0.0 0
M  V30 2 N 9.0932 -3.0 0.0 0 CHG=1
M  V30 3 O 10.3923 -2.25 0.0 0 CHG=-1
M  V30 4 C 7.7942 -2.2499 0.0 0
M  V30 5 C 7.7942 -0.75 0.0 0
M  V30 6 C 6.4951 -2.9999 0.0 0
M  V30 7 C 6.4951 0.0 0.0 0
M  V30 8 C 5.1961 -2.25 0.0 0
M  V30 9 C 5.1961 -0.75 0.0 0
M  V30 10 C 3.8971 0.0 0.0 0
M  V30 11 C 2.598 -0.75 0.0 0
M  V30 12 C 1.299 0.0 0.0 0
M  V30 13 C 0.0 -0.75 0.0 0
M  V30 14 C -1.3703 -0.1398 0.0 0
M  V30 15 C -0.1567 -2.2417 0.0 0
M  V30 16 O -1.6821 1.3273 0.0 0
M  V30 17 N -2.374 -1.2546 0.0 0
M  V30 18 C -1.624 -2.5536 0.0 0
M  V30 19 C 0.8469 -3.3565 0.0 0
M  V30 20 C -3.8657 -1.0978 0.0 0
M  V30 21 C -2.0875 -3.9802 0.0 0
M  V30 22 C 0.3833 -4.783 0.0 0
M  V30 23 C -4.7474 -2.3113 0.0 0
M  V30 24 C -1.0838 -5.0949 0.0 0
M  V30 25 C -6.2392 -2.1545 0.0 0
M  V30 26 C -4.1373 -3.6816 0.0 0
M  V30 27 C -7.1209 -3.368 0.0 0
M  V30 28 C -5.019 -4.8951 0.0 0
M  V30 29 C -6.5108 -4.7383 0.0 0
M  V30 END ATOM
M  V30 BEGIN BOND
M  V30 1 2 1 2
M  V30 2 1 2 3
M  V30 3 1 2 4
M  V30 4 2 4 5
M  V30 5 1 4 6
M  V30 6 1 5 7
M  V30 7 2 6 8
M  V30 8 2 7 9
M  V30 9 1 9 10
M  V30 10 2 10 11
M  V30 11 1 11 12
M  V30 12 2 12 13
M  V30 13 1 13 14
M  V30 14 1 13 15
M  V30 15 2 14 16
M  V30 16 1 14 17
M  V30 17 2 15 18
M  V30 18 1 15 19
M  V30 19 1 17 20
M  V30 20 1 18 21
M  V30 21 2 19 22
M  V30 22 1 20 23
M  V30 23 2 21 24
M  V30 24 2 23 25
M  V30 25 1 23 26
M  V30 26 1 25 27
M  V30 27 2 26 28
M  V30 28 2 27 29
M  V30 29 1 8 9
M  V30 30 1 17 18
M  V30 31 1 22 24
M  V30 32 1 28 29
M  V30 END BOND
M  V30 END CTAB
M  END
>  <Molecule Name>
Compound 540

>  <Molecule Name 2>
Compound 540

>  <Compound ID>
186

>  <Name>


>  <Uniprot>
P37840

>  <Target>
Alpha-syn

>  <Smiles>
O=C1/C(=C/C=C/C2=CC=C([N+](=O)[O-])C=C2)C2=CC=CC=C2N1CC1=CC=CC=C1

>  <Kd (nM)>


>  <Assay (Kd)>


>  <Ki (nM)>
193

>  <Assay (Ki)>
Displacement of Thio-T from recombinant alpha-synuclein expressed in Escherichia coli after 1.5 hrs by fluorescence assay

>  <IC50 (nM)>


>  <Assay (IC50)>


>  <EC50 (nM)>


>  <Assay (EC50)>


>  <Article DOI>
10.1021/acs.jmedchem.5b00571

>  <Molecular Weight>
382.419

>  <Exact Mass>
382.1317424

>  <XLogP3>
5.05

>  <Heavy Atom Count>
29

>  <Ring Count>
4

>  <Hydrogen Bond Acceptor Count>
3

>  <Hydrogen Bond Donor Count>
0

>  <Rotatable Bond Count>
5

>  <Topological Polar Surface Area>
63.45

>  <Molecular Formula>
C24H18N2O3

>  <InChI>
InChI=1S/C24H18N2O3/c27-24-22(11-6-9-18-13-15-20(16-14-18)26(28)29)21-10-4-5-12-23(21)25(24)17-19-7-2-1-3-8-19/h1-16H,17H2/b9-6+,22-11+

>  <InChI Key>
AQOPKQZDRIMOPX-HZFIRUDTSA-N

>  <BindingDB>
50103933

>  <PubChem>
122182271

>  <ChEMBL>
CHEMBL3593925

$$$$
187
Actelion Java MolfileCreator 2.0

  0  0  0  0  0  0              0 V3000
M  V30 BEGIN CTAB
M  V30 COUNTS 17 19 0 0 0
M  V30 BEGIN ATOM
M  V30 1 S 4.3301 0.0 0.0 0
M  V30 2 C 3.4641 -0.5 0.0 0
M  V30 3 C 5.1961 -0.5 0.0 0
M  V30 4 C 3.4641 -1.5 0.0 0
M  V30 5 C 2.598 0.0 0.0 0
M  V30 6 C 5.1961 -1.5 0.0 0
M  V30 7 C 6.0621 0.0 0.0 0
M  V30 8 N 4.3301 -2.0 0.0 0
M  V30 9 C 2.598 -2.0 0.0 0
M  V30 10 C 1.732 -0.5 0.0 0
M  V30 11 C 6.0621 -1.9999 0.0 0
M  V30 12 C 6.9282 -0.5 0.0 0
M  V30 13 C 1.732 -1.4999 0.0 0
M  V30 14 N 0.866 0.0 0.0 0 CHG=1
M  V30 15 C 6.9282 -1.5 0.0 0
M  V30 16 O 0.866 1.0 0.0 0
M  V30 17 O 0.0 -0.5 0.0 0 CHG=-1
M  V30 END ATOM
M  V30 BEGIN BOND
M  V30 1 1 1 2
M  V30 2 1 1 3
M  V30 3 2 2 4
M  V30 4 1 2 5
M  V30 5 2 3 6
M  V30 6 1 3 7
M  V30 7 1 4 8
M  V30 8 1 4 9
M  V30 9 2 5 10
M  V30 10 1 6 11
M  V30 11 2 7 12
M  V30 12 2 9 13
M  V30 13 1 10 14
M  V30 14 2 11 15
M  V30 15 2 14 16
M  V30 16 1 14 17
M  V30 17 1 6 8
M  V30 18 1 10 13
M  V30 19 1 12 15
M  V30 END BOND
M  V30 END CTAB
M  END
>  <Molecule Name>
Compound 541

>  <Molecule Name 2>
Compound 541

>  <Compound ID>
187

>  <Name>


>  <Uniprot>
P37840

>  <Target>
Alpha-syn

>  <Smiles>
O=[N+]([O-])C1=CC=C2NC3=CC=CC=C3SC2=C1

>  <Kd (nM)>


>  <Assay (Kd)>


>  <Ki (nM)>
116.5

>  <Assay (Ki)>
Ki was assessed by thioflavin T competition assay

>  <IC50 (nM)>
485

>  <Assay (IC50)>
IC50 was assessed by thioflavin T competition assay

>  <EC50 (nM)>


>  <Assay (EC50)>


>  <Article DOI>
10.1016/j.bmc.2012.06.023

>  <Molecular Weight>
244.275

>  <Exact Mass>
244.0306485

>  <XLogP3>
3.98

>  <Heavy Atom Count>
17

>  <Ring Count>
3

>  <Hydrogen Bond Acceptor Count>
4

>  <Hydrogen Bond Donor Count>
1

>  <Rotatable Bond Count>
1

>  <Topological Polar Surface Area>
55.17

>  <Molecular Formula>
C12H8N2O2S

>  <InChI>
InChI=1S/C12H8N2O2S/c15-14(16)8-5-6-10-12(7-8)17-11-4-2-1-3-9(11)13-10/h1-7,13H

>  <InChI Key>
CLXYGCPNHLXLPD-UHFFFAOYSA-N

>  <BindingDB>
50389291

>  <PubChem>
3838042

>  <ChEMBL>
CHEMBL1976750

$$$$
188
Actelion Java MolfileCreator 2.0

  0  0  0  0  0  0              0 V3000
M  V30 BEGIN CTAB
M  V30 COUNTS 41 46 0 0 0
M  V30 BEGIN ATOM
M  V30 1 F 6.3715 8.6247 0.0 0
M  V30 2 C 4.9043 8.3128 0.0 0
M  V30 3 C 3.9006 9.4275 0.0 0
M  V30 4 C 4.4407 6.8862 0.0 0
M  V30 5 C 2.4333 9.1156 0.0 0
M  V30 6 C 2.9735 6.5743 0.0 0
M  V30 7 F 1.4296 10.2304 0.0 0
M  V30 8 C 1.9698 7.6891 0.0 0
M  V30 9 C 2.51 5.1478 0.0 0
M  V30 10 C 3.5137 4.033 0.0 0
M  V30 11 C 3.0502 2.6065 0.0 0
M  V30 12 C 4.9809 4.3449 0.0 0
M  V30 13 C 4.0539 1.4917 0.0 0
M  V30 14 C 5.9846 3.2302 0.0 0
M  V30 15 C 3.8971 0.0 0.0 0
M  V30 16 C 5.5211 1.8036 0.0 0
M  V30 17 N 5.2674 -0.6101 0.0 0
M  V30 18 N 2.598 -0.75 0.0 0
M  V30 19 N 6.2711 0.5046 0.0 0
M  V30 20 C 1.299 0.0 0.0 0
M  V30 21 O 1.299 1.5 0.0 0
M  V30 22 C 0.0 -0.75 0.0 0
M  V30 23 C -1.299 0.0 0.0 0
M  V30 24 C 0.0 -2.2499 0.0 0
M  V30 25 N -1.299 1.5 0.0 0
M  V30 26 C -2.598 -0.7499 0.0 0
M  V30 27 C -1.299 -2.9999 0.0 0
M  V30 28 C -2.598 2.25 0.0 0
M  V30 29 C -2.598 -2.2499 0.0 0
M  V30 30 C -2.598 3.75 0.0 0
M  V30 31 C -3.8971 1.5 0.0 0
M  V30 32 N -3.8971 -2.9999 0.0 0
M  V30 33 C -3.8971 4.5 0.0 0
M  V30 34 C -5.1961 2.25 0.0 0
M  V30 35 C -5.1961 -2.2499 0.0 0
M  V30 36 C -3.8971 -4.4999 0.0 0
M  V30 37 O -5.1961 3.75 0.0 0
M  V30 38 C -6.4951 -2.9999 0.0 0
M  V30 39 C -5.1961 -5.2499 0.0 0
M  V30 40 N -6.4951 -4.4999 0.0 0
M  V30 41 C -7.7942 -5.2499 0.0 0
M  V30 END ATOM
M  V30 BEGIN BOND
M  V30 1 1 1 2
M  V30 2 2 2 3
M  V30 3 1 2 4
M  V30 4 1 3 5
M  V30 5 2 4 6
M  V30 6 1 5 7
M  V30 7 2 5 8
M  V30 8 1 6 9
M  V30 9 1 9 10
M  V30 10 2 10 11
M  V30 11 1 10 12
M  V30 12 1 11 13
M  V30 13 2 12 14
M  V30 14 1 13 15
M  V30 15 2 13 16
M  V30 16 2 15 17
M  V30 17 1 15 18
M  V30 18 1 16 19
M  V30 19 1 18 20
M  V30 20 2 20 21
M  V30 21 1 20 22
M  V30 22 2 22 23
M  V30 23 1 22 24
M  V30 24 1 23 25
M  V30 25 1 23 26
M  V30 26 2 24 27
M  V30 27 1 25 28
M  V30 28 2 26 29
M  V30 29 1 28 30
M  V30 30 1 28 31
M  V30 31 1 29 32
M  V30 32 1 30 33
M  V30 33 1 31 34
M  V30 34 1 32 35
M  V30 35 1 32 36
M  V30 36 1 33 37
M  V30 37 1 35 38
M  V30 38 1 36 39
M  V30 39 1 38 40
M  V30 40 1 40 41
M  V30 41 1 6 8
M  V30 42 1 14 16
M  V30 43 1 17 19
M  V30 44 1 27 29
M  V30 45 1 34 37
M  V30 46 1 39 40
M  V30 END BOND
M  V30 END CTAB
M  END
>  <Molecule Name>
Compound 542

>  <Molecule Name 2>
Compound 542

>  <Compound ID>
188

>  <Name>
Entrectinib

>  <Uniprot>
P04629

>  <Target>
TRKA

>  <Smiles>
CN1CCN(C2=CC=C(C(=O)NC3=N[NH]C4=CC=C(CC5=CC(F)=CC(F)=C5)C=C34)C(NC3CCOCC3)=C2)CC1

>  <Kd (nM)>


>  <Assay (Kd)>


>  <Ki (nM)>


>  <Assay (Ki)>


>  <IC50 (nM)>
1

>  <Assay (IC50)>
Inhibition of TrkC by selectscreen kinase assay

>  <EC50 (nM)>


>  <Assay (EC50)>


>  <Article DOI>
10.1021/acs.jmedchem.6b00064

>  <Molecular Weight>
560.649

>  <Exact Mass>
560.2711308

>  <XLogP3>
5.72

>  <Heavy Atom Count>
41

>  <Ring Count>
6

>  <Hydrogen Bond Acceptor Count>
6

>  <Hydrogen Bond Donor Count>
3

>  <Rotatable Bond Count>
7

>  <Topological Polar Surface Area>
85.52

>  <Molecular Formula>
C31H34F2N6O2

>  <InChI>
InChI=1S/C31H34F2N6O2/c1-38-8-10-39(11-9-38)25-3-4-26(29(19-25)34-24-6-12-41-13-7-24)31(40)35-30-27-17-20(2-5-28(27)36-37-30)14-21-15-22(32)18-23(33)16-21/h2-5,15-19,24,34H,6-14H2,1H3,(H2,35,36,37,40)

>  <InChI Key>
HAYYBYPASCDWEQ-UHFFFAOYSA-N

>  <BindingDB>
158154

>  <PubChem>
25141092

>  <ChEMBL>
CHEMBL1983268

$$$$
188
Actelion Java MolfileCreator 2.0

  0  0  0  0  0  0              0 V3000
M  V30 BEGIN CTAB
M  V30 COUNTS 41 46 0 0 0
M  V30 BEGIN ATOM
M  V30 1 F 6.3715 8.6247 0.0 0
M  V30 2 C 4.9043 8.3128 0.0 0
M  V30 3 C 3.9006 9.4275 0.0 0
M  V30 4 C 4.4407 6.8862 0.0 0
M  V30 5 C 2.4333 9.1156 0.0 0
M  V30 6 C 2.9735 6.5743 0.0 0
M  V30 7 F 1.4296 10.2304 0.0 0
M  V30 8 C 1.9698 7.6891 0.0 0
M  V30 9 C 2.51 5.1478 0.0 0
M  V30 10 C 3.5137 4.033 0.0 0
M  V30 11 C 3.0502 2.6065 0.0 0
M  V30 12 C 4.9809 4.3449 0.0 0
M  V30 13 C 4.0539 1.4917 0.0 0
M  V30 14 C 5.9846 3.2302 0.0 0
M  V30 15 C 3.8971 0.0 0.0 0
M  V30 16 C 5.5211 1.8036 0.0 0
M  V30 17 N 5.2674 -0.6101 0.0 0
M  V30 18 N 2.598 -0.75 0.0 0
M  V30 19 N 6.2711 0.5046 0.0 0
M  V30 20 C 1.299 0.0 0.0 0
M  V30 21 O 1.299 1.5 0.0 0
M  V30 22 C 0.0 -0.75 0.0 0
M  V30 23 C -1.299 0.0 0.0 0
M  V30 24 C 0.0 -2.2499 0.0 0
M  V30 25 N -1.299 1.5 0.0 0
M  V30 26 C -2.598 -0.7499 0.0 0
M  V30 27 C -1.299 -2.9999 0.0 0
M  V30 28 C -2.598 2.25 0.0 0
M  V30 29 C -2.598 -2.2499 0.0 0
M  V30 30 C -2.598 3.75 0.0 0
M  V30 31 C -3.8971 1.5 0.0 0
M  V30 32 N -3.8971 -2.9999 0.0 0
M  V30 33 C -3.8971 4.5 0.0 0
M  V30 34 C -5.1961 2.25 0.0 0
M  V30 35 C -5.1961 -2.2499 0.0 0
M  V30 36 C -3.8971 -4.4999 0.0 0
M  V30 37 O -5.1961 3.75 0.0 0
M  V30 38 C -6.4951 -2.9999 0.0 0
M  V30 39 C -5.1961 -5.2499 0.0 0
M  V30 40 N -6.4951 -4.4999 0.0 0
M  V30 41 C -7.7942 -5.2499 0.0 0
M  V30 END ATOM
M  V30 BEGIN BOND
M  V30 1 1 1 2
M  V30 2 2 2 3
M  V30 3 1 2 4
M  V30 4 1 3 5
M  V30 5 2 4 6
M  V30 6 1 5 7
M  V30 7 2 5 8
M  V30 8 1 6 9
M  V30 9 1 9 10
M  V30 10 2 10 11
M  V30 11 1 10 12
M  V30 12 1 11 13
M  V30 13 2 12 14
M  V30 14 1 13 15
M  V30 15 2 13 16
M  V30 16 2 15 17
M  V30 17 1 15 18
M  V30 18 1 16 19
M  V30 19 1 18 20
M  V30 20 2 20 21
M  V30 21 1 20 22
M  V30 22 2 22 23
M  V30 23 1 22 24
M  V30 24 1 23 25
M  V30 25 1 23 26
M  V30 26 2 24 27
M  V30 27 1 25 28
M  V30 28 2 26 29
M  V30 29 1 28 30
M  V30 30 1 28 31
M  V30 31 1 29 32
M  V30 32 1 30 33
M  V30 33 1 31 34
M  V30 34 1 32 35
M  V30 35 1 32 36
M  V30 36 1 33 37
M  V30 37 1 35 38
M  V30 38 1 36 39
M  V30 39 1 38 40
M  V30 40 1 40 41
M  V30 41 1 6 8
M  V30 42 1 14 16
M  V30 43 1 17 19
M  V30 44 1 27 29
M  V30 45 1 34 37
M  V30 46 1 39 40
M  V30 END BOND
M  V30 END CTAB
M  END
>  <Molecule Name>
Compound 543

>  <Molecule Name 2>
Compound 543

>  <Compound ID>
188

>  <Name>
Entrectinib

>  <Uniprot>
Q16620

>  <Target>
TRKB

>  <Smiles>
CN1CCN(C2=CC=C(C(=O)NC3=N[NH]C4=CC=C(CC5=CC(F)=CC(F)=C5)C=C34)C(NC3CCOCC3)=C2)CC1

>  <Kd (nM)>


>  <Assay (Kd)>


>  <Ki (nM)>


>  <Assay (Ki)>


>  <IC50 (nM)>
3

>  <Assay (IC50)>
Inhibition of TrkC by selectscreen kinase assay

>  <EC50 (nM)>


>  <Assay (EC50)>


>  <Article DOI>
10.1021/acs.jmedchem.6b00064

>  <Molecular Weight>
560.649

>  <Exact Mass>
560.2711308

>  <XLogP3>
5.72

>  <Heavy Atom Count>
41

>  <Ring Count>
6

>  <Hydrogen Bond Acceptor Count>
6

>  <Hydrogen Bond Donor Count>
3

>  <Rotatable Bond Count>
7

>  <Topological Polar Surface Area>
85.52

>  <Molecular Formula>
C31H34F2N6O2

>  <InChI>
InChI=1S/C31H34F2N6O2/c1-38-8-10-39(11-9-38)25-3-4-26(29(19-25)34-24-6-12-41-13-7-24)31(40)35-30-27-17-20(2-5-28(27)36-37-30)14-21-15-22(32)18-23(33)16-21/h2-5,15-19,24,34H,6-14H2,1H3,(H2,35,36,37,40)

>  <InChI Key>
HAYYBYPASCDWEQ-UHFFFAOYSA-N

>  <BindingDB>
158154

>  <PubChem>
25141092

>  <ChEMBL>
CHEMBL1983268

$$$$
188
Actelion Java MolfileCreator 2.0

  0  0  0  0  0  0              0 V3000
M  V30 BEGIN CTAB
M  V30 COUNTS 41 46 0 0 0
M  V30 BEGIN ATOM
M  V30 1 F 6.3715 8.6247 0.0 0
M  V30 2 C 4.9043 8.3128 0.0 0
M  V30 3 C 3.9006 9.4275 0.0 0
M  V30 4 C 4.4407 6.8862 0.0 0
M  V30 5 C 2.4333 9.1156 0.0 0
M  V30 6 C 2.9735 6.5743 0.0 0
M  V30 7 F 1.4296 10.2304 0.0 0
M  V30 8 C 1.9698 7.6891 0.0 0
M  V30 9 C 2.51 5.1478 0.0 0
M  V30 10 C 3.5137 4.033 0.0 0
M  V30 11 C 3.0502 2.6065 0.0 0
M  V30 12 C 4.9809 4.3449 0.0 0
M  V30 13 C 4.0539 1.4917 0.0 0
M  V30 14 C 5.9846 3.2302 0.0 0
M  V30 15 C 3.8971 0.0 0.0 0
M  V30 16 C 5.5211 1.8036 0.0 0
M  V30 17 N 5.2674 -0.6101 0.0 0
M  V30 18 N 2.598 -0.75 0.0 0
M  V30 19 N 6.2711 0.5046 0.0 0
M  V30 20 C 1.299 0.0 0.0 0
M  V30 21 O 1.299 1.5 0.0 0
M  V30 22 C 0.0 -0.75 0.0 0
M  V30 23 C -1.299 0.0 0.0 0
M  V30 24 C 0.0 -2.2499 0.0 0
M  V30 25 N -1.299 1.5 0.0 0
M  V30 26 C -2.598 -0.7499 0.0 0
M  V30 27 C -1.299 -2.9999 0.0 0
M  V30 28 C -2.598 2.25 0.0 0
M  V30 29 C -2.598 -2.2499 0.0 0
M  V30 30 C -2.598 3.75 0.0 0
M  V30 31 C -3.8971 1.5 0.0 0
M  V30 32 N -3.8971 -2.9999 0.0 0
M  V30 33 C -3.8971 4.5 0.0 0
M  V30 34 C -5.1961 2.25 0.0 0
M  V30 35 C -5.1961 -2.2499 0.0 0
M  V30 36 C -3.8971 -4.4999 0.0 0
M  V30 37 O -5.1961 3.75 0.0 0
M  V30 38 C -6.4951 -2.9999 0.0 0
M  V30 39 C -5.1961 -5.2499 0.0 0
M  V30 40 N -6.4951 -4.4999 0.0 0
M  V30 41 C -7.7942 -5.2499 0.0 0
M  V30 END ATOM
M  V30 BEGIN BOND
M  V30 1 1 1 2
M  V30 2 2 2 3
M  V30 3 1 2 4
M  V30 4 1 3 5
M  V30 5 2 4 6
M  V30 6 1 5 7
M  V30 7 2 5 8
M  V30 8 1 6 9
M  V30 9 1 9 10
M  V30 10 2 10 11
M  V30 11 1 10 12
M  V30 12 1 11 13
M  V30 13 2 12 14
M  V30 14 1 13 15
M  V30 15 2 13 16
M  V30 16 2 15 17
M  V30 17 1 15 18
M  V30 18 1 16 19
M  V30 19 1 18 20
M  V30 20 2 20 21
M  V30 21 1 20 22
M  V30 22 2 22 23
M  V30 23 1 22 24
M  V30 24 1 23 25
M  V30 25 1 23 26
M  V30 26 2 24 27
M  V30 27 1 25 28
M  V30 28 2 26 29
M  V30 29 1 28 30
M  V30 30 1 28 31
M  V30 31 1 29 32
M  V30 32 1 30 33
M  V30 33 1 31 34
M  V30 34 1 32 35
M  V30 35 1 32 36
M  V30 36 1 33 37
M  V30 37 1 35 38
M  V30 38 1 36 39
M  V30 39 1 38 40
M  V30 40 1 40 41
M  V30 41 1 6 8
M  V30 42 1 14 16
M  V30 43 1 17 19
M  V30 44 1 27 29
M  V30 45 1 34 37
M  V30 46 1 39 40
M  V30 END BOND
M  V30 END CTAB
M  END
>  <Molecule Name>
Compound 544

>  <Molecule Name 2>
Compound 544

>  <Compound ID>
188

>  <Name>
Entrectinib

>  <Uniprot>
Q16288

>  <Target>
TRKC

>  <Smiles>
CN1CCN(C2=CC=C(C(=O)NC3=N[NH]C4=CC=C(CC5=CC(F)=CC(F)=C5)C=C34)C(NC3CCOCC3)=C2)CC1

>  <Kd (nM)>


>  <Assay (Kd)>


>  <Ki (nM)>


>  <Assay (Ki)>


>  <IC50 (nM)>
5

>  <Assay (IC50)>
Inhibition of TrkC by selectscreen kinase assay

>  <EC50 (nM)>


>  <Assay (EC50)>


>  <Article DOI>
10.1021/acs.jmedchem.6b00064

>  <Molecular Weight>
560.649

>  <Exact Mass>
560.2711308

>  <XLogP3>
5.72

>  <Heavy Atom Count>
41

>  <Ring Count>
6

>  <Hydrogen Bond Acceptor Count>
6

>  <Hydrogen Bond Donor Count>
3

>  <Rotatable Bond Count>
7

>  <Topological Polar Surface Area>
85.52

>  <Molecular Formula>
C31H34F2N6O2

>  <InChI>
InChI=1S/C31H34F2N6O2/c1-38-8-10-39(11-9-38)25-3-4-26(29(19-25)34-24-6-12-41-13-7-24)31(40)35-30-27-17-20(2-5-28(27)36-37-30)14-21-15-22(32)18-23(33)16-21/h2-5,15-19,24,34H,6-14H2,1H3,(H2,35,36,37,40)

>  <InChI Key>
HAYYBYPASCDWEQ-UHFFFAOYSA-N

>  <BindingDB>
158154

>  <PubChem>
25141092

>  <ChEMBL>
CHEMBL1983268

$$$$
189
Actelion Java MolfileCreator 2.0

  0  0  0  0  0  0              0 V3000
M  V30 BEGIN CTAB
M  V30 COUNTS 40 46 0 0 0
M  V30 BEGIN ATOM
M  V30 1 F 1.732 2.4999 0.0 0
M  V30 2 C 1.732 1.4999 0.0 0
M  V30 3 C 0.866 1.0 0.0 0
M  V30 4 C 2.598 0.9999 0.0 0
M  V30 5 C 0.866 0.0 0.0 0
M  V30 6 C 2.598 0.0 0.0 0
M  V30 7 C 1.732 -0.5 0.0 0
M  V30 8 C 0.0 -0.5 0.0 0 CFG=2
M  V30 9 N -0.9135 -0.0932 0.0 0
M  V30 10 C -0.1045 -1.4945 0.0 0
M  V30 11 C -1.1214 0.8848 0.0 0
M  V30 12 C -1.5826 -0.8364 0.0 0
M  V30 13 C -1.0826 -1.7024 0.0 0
M  V30 14 N -2.0725 1.1939 0.0 0
M  V30 15 C -0.3783 1.554 0.0 0
M  V30 16 N -2.2804 2.172 0.0 0
M  V30 17 C -0.5862 2.5321 0.0 0
M  V30 18 C -1.5372 2.8411 0.0 0
M  V30 19 C -3.1464 2.672 0.0 0
M  V30 20 N -1.944 3.7547 0.0 0
M  V30 21 C -4.0599 2.2653 0.0 0
M  V30 22 C -2.9385 3.6501 0.0 0
M  V30 23 N -4.869 2.853 0.0 0
M  V30 24 C -4.1645 1.2707 0.0 0
M  V30 25 C -5.7825 2.4463 0.0 0
M  V30 26 C -5.078 0.864 0.0 0
M  V30 27 C -6.5915 3.0341 0.0 0
M  V30 28 C -5.887 1.4518 0.0 0
M  V30 29 C -6.487 4.0286 0.0 0
M  V30 30 C -7.5051 2.6274 0.0 0
M  V30 31 C -7.296 4.6164 0.0 0
M  V30 32 C -8.3141 3.2151 0.0 0
M  V30 33 N -8.2096 4.2097 0.0 0
M  V30 34 N -7.1915 5.6109 0.0 0
M  V30 35 C -6.2779 6.0177 0.0 0
M  V30 36 C -8.0005 6.1987 0.0 0
M  V30 37 C -6.1734 7.0122 0.0 0
M  V30 38 C -7.896 7.1932 0.0 0
M  V30 39 C -6.9824 7.6 0.0 0
M  V30 40 O -6.8779 8.5945 0.0 0
M  V30 END ATOM
M  V30 BEGIN BOND
M  V30 1 1 1 2
M  V30 2 2 2 3
M  V30 3 1 2 4
M  V30 4 1 3 5
M  V30 5 2 4 6
M  V30 6 2 5 7
M  V30 7 1 8 5 CFG=1
M  V30 8 1 8 9
M  V30 9 1 8 10
M  V30 10 1 9 11
M  V30 11 1 9 12
M  V30 12 1 10 13
M  V30 13 2 11 14
M  V30 14 1 11 15
M  V30 15 1 14 16
M  V30 16 2 15 17
M  V30 17 1 16 18
M  V30 18 1 16 19
M  V30 19 2 18 20
M  V30 20 1 19 21
M  V30 21 2 19 22
M  V30 22 2 21 23
M  V30 23 1 21 24
M  V30 24 1 23 25
M  V30 25 2 24 26
M  V30 26 1 25 27
M  V30 27 2 25 28
M  V30 28 2 27 29
M  V30 29 1 27 30
M  V30 30 1 29 31
M  V30 31 2 30 32
M  V30 32 2 31 33
M  V30 33 1 31 34
M  V30 34 1 34 35
M  V30 35 1 34 36
M  V30 36 1 35 37
M  V30 37 1 36 38
M  V30 38 1 37 39
M  V30 39 1 39 40
M  V30 40 1 6 7
M  V30 41 1 12 13
M  V30 42 1 17 18
M  V30 43 1 20 22
M  V30 44 1 26 28
M  V30 45 1 32 33
M  V30 46 1 38 39
M  V30 END BOND
M  V30 BEGIN COLLECTION
M  V30 MDLV30/STEABS ATOMS=(1 8)
M  V30 END COLLECTION
M  V30 END CTAB
M  END
>  <Molecule Name>
Compound 545

>  <Molecule Name 2>
Compound 545

>  <Compound ID>
189

>  <Name>
GNF-8625

>  <Uniprot>
P04629

>  <Target>
TRKA

>  <Smiles>
OC1CCN(C2=CC(C3=CC=CC(C4=CN=C5C=CC(N6CCC[C@@H]6C6=CC=CC(F)=C6)=NN45)=N3)=CC=N2)CC1

>  <Kd (nM)>
0.81

>  <Assay (Kd)>
Kd was assessed using the KINOMEscan assay

>  <Ki (nM)>


>  <Assay (Ki)>


>  <IC50 (nM)>


>  <Assay (IC50)>


>  <EC50 (nM)>


>  <Assay (EC50)>


>  <Article DOI>
10.1021/acs.jmedchem.0c01342

>  <Molecular Weight>
535.627

>  <Exact Mass>
535.2495868

>  <XLogP3>
4.45

>  <Heavy Atom Count>
40

>  <Ring Count>
7

>  <Hydrogen Bond Acceptor Count>
8

>  <Hydrogen Bond Donor Count>
1

>  <Rotatable Bond Count>
5

>  <Topological Polar Surface Area>
82.68

>  <Molecular Formula>
C31H30FN7O

>  <InChI>
InChI=1S/C31H30FN7O/c32-23-5-1-4-22(18-23)27-8-3-15-38(27)30-10-9-29-34-20-28(39(29)36-30)26-7-2-6-25(35-26)21-11-14-33-31(19-21)37-16-12-24(40)13-17-37/h1-2,4-7,9-11,14,18-20,24,27,40H,3,8,12-13,15-17H2/t27-/m1/s1

>  <InChI Key>
BLGCSOKKBWHJMB-HHHXNRCGSA-N

>  <BindingDB>


>  <PubChem>
58335500

>  <ChEMBL>


$$$$
189
Actelion Java MolfileCreator 2.0

  0  0  0  0  0  0              0 V3000
M  V30 BEGIN CTAB
M  V30 COUNTS 40 46 0 0 0
M  V30 BEGIN ATOM
M  V30 1 F 1.732 2.4999 0.0 0
M  V30 2 C 1.732 1.4999 0.0 0
M  V30 3 C 0.866 1.0 0.0 0
M  V30 4 C 2.598 0.9999 0.0 0
M  V30 5 C 0.866 0.0 0.0 0
M  V30 6 C 2.598 0.0 0.0 0
M  V30 7 C 1.732 -0.5 0.0 0
M  V30 8 C 0.0 -0.5 0.0 0 CFG=2
M  V30 9 N -0.9135 -0.0932 0.0 0
M  V30 10 C -0.1045 -1.4945 0.0 0
M  V30 11 C -1.1214 0.8848 0.0 0
M  V30 12 C -1.5826 -0.8364 0.0 0
M  V30 13 C -1.0826 -1.7024 0.0 0
M  V30 14 N -2.0725 1.1939 0.0 0
M  V30 15 C -0.3783 1.554 0.0 0
M  V30 16 N -2.2804 2.172 0.0 0
M  V30 17 C -0.5862 2.5321 0.0 0
M  V30 18 C -1.5372 2.8411 0.0 0
M  V30 19 C -3.1464 2.672 0.0 0
M  V30 20 N -1.944 3.7547 0.0 0
M  V30 21 C -4.0599 2.2653 0.0 0
M  V30 22 C -2.9385 3.6501 0.0 0
M  V30 23 N -4.869 2.853 0.0 0
M  V30 24 C -4.1645 1.2707 0.0 0
M  V30 25 C -5.7825 2.4463 0.0 0
M  V30 26 C -5.078 0.864 0.0 0
M  V30 27 C -6.5915 3.0341 0.0 0
M  V30 28 C -5.887 1.4518 0.0 0
M  V30 29 C -6.487 4.0286 0.0 0
M  V30 30 C -7.5051 2.6274 0.0 0
M  V30 31 C -7.296 4.6164 0.0 0
M  V30 32 C -8.3141 3.2151 0.0 0
M  V30 33 N -8.2096 4.2097 0.0 0
M  V30 34 N -7.1915 5.6109 0.0 0
M  V30 35 C -6.2779 6.0177 0.0 0
M  V30 36 C -8.0005 6.1987 0.0 0
M  V30 37 C -6.1734 7.0122 0.0 0
M  V30 38 C -7.896 7.1932 0.0 0
M  V30 39 C -6.9824 7.6 0.0 0
M  V30 40 O -6.8779 8.5945 0.0 0
M  V30 END ATOM
M  V30 BEGIN BOND
M  V30 1 1 1 2
M  V30 2 2 2 3
M  V30 3 1 2 4
M  V30 4 1 3 5
M  V30 5 2 4 6
M  V30 6 2 5 7
M  V30 7 1 8 5 CFG=1
M  V30 8 1 8 9
M  V30 9 1 8 10
M  V30 10 1 9 11
M  V30 11 1 9 12
M  V30 12 1 10 13
M  V30 13 2 11 14
M  V30 14 1 11 15
M  V30 15 1 14 16
M  V30 16 2 15 17
M  V30 17 1 16 18
M  V30 18 1 16 19
M  V30 19 2 18 20
M  V30 20 1 19 21
M  V30 21 2 19 22
M  V30 22 2 21 23
M  V30 23 1 21 24
M  V30 24 1 23 25
M  V30 25 2 24 26
M  V30 26 1 25 27
M  V30 27 2 25 28
M  V30 28 2 27 29
M  V30 29 1 27 30
M  V30 30 1 29 31
M  V30 31 2 30 32
M  V30 32 2 31 33
M  V30 33 1 31 34
M  V30 34 1 34 35
M  V30 35 1 34 36
M  V30 36 1 35 37
M  V30 37 1 36 38
M  V30 38 1 37 39
M  V30 39 1 39 40
M  V30 40 1 6 7
M  V30 41 1 12 13
M  V30 42 1 17 18
M  V30 43 1 20 22
M  V30 44 1 26 28
M  V30 45 1 32 33
M  V30 46 1 38 39
M  V30 END BOND
M  V30 BEGIN COLLECTION
M  V30 MDLV30/STEABS ATOMS=(1 8)
M  V30 END COLLECTION
M  V30 END CTAB
M  END
>  <Molecule Name>
Compound 546

>  <Molecule Name 2>
Compound 546

>  <Compound ID>
189

>  <Name>
GNF-8625

>  <Uniprot>
Q16620

>  <Target>
TRKB

>  <Smiles>
OC1CCN(C2=CC(C3=CC=CC(C4=CN=C5C=CC(N6CCC[C@@H]6C6=CC=CC(F)=C6)=NN45)=N3)=CC=N2)CC1

>  <Kd (nM)>
22.7

>  <Assay (Kd)>
Kd was assessed using the KINOMEscan assay

>  <Ki (nM)>


>  <Assay (Ki)>


>  <IC50 (nM)>


>  <Assay (IC50)>


>  <EC50 (nM)>


>  <Assay (EC50)>


>  <Article DOI>
10.1021/acs.jmedchem.0c01342

>  <Molecular Weight>
535.627

>  <Exact Mass>
535.2495868

>  <XLogP3>
4.45

>  <Heavy Atom Count>
40

>  <Ring Count>
7

>  <Hydrogen Bond Acceptor Count>
8

>  <Hydrogen Bond Donor Count>
1

>  <Rotatable Bond Count>
5

>  <Topological Polar Surface Area>
82.68

>  <Molecular Formula>
C31H30FN7O

>  <InChI>
InChI=1S/C31H30FN7O/c32-23-5-1-4-22(18-23)27-8-3-15-38(27)30-10-9-29-34-20-28(39(29)36-30)26-7-2-6-25(35-26)21-11-14-33-31(19-21)37-16-12-24(40)13-17-37/h1-2,4-7,9-11,14,18-20,24,27,40H,3,8,12-13,15-17H2/t27-/m1/s1

>  <InChI Key>
BLGCSOKKBWHJMB-HHHXNRCGSA-N

>  <BindingDB>


>  <PubChem>
58335500

>  <ChEMBL>


$$$$
189
Actelion Java MolfileCreator 2.0

  0  0  0  0  0  0              0 V3000
M  V30 BEGIN CTAB
M  V30 COUNTS 40 46 0 0 0
M  V30 BEGIN ATOM
M  V30 1 F 1.732 2.4999 0.0 0
M  V30 2 C 1.732 1.4999 0.0 0
M  V30 3 C 0.866 1.0 0.0 0
M  V30 4 C 2.598 0.9999 0.0 0
M  V30 5 C 0.866 0.0 0.0 0
M  V30 6 C 2.598 0.0 0.0 0
M  V30 7 C 1.732 -0.5 0.0 0
M  V30 8 C 0.0 -0.5 0.0 0 CFG=2
M  V30 9 N -0.9135 -0.0932 0.0 0
M  V30 10 C -0.1045 -1.4945 0.0 0
M  V30 11 C -1.1214 0.8848 0.0 0
M  V30 12 C -1.5826 -0.8364 0.0 0
M  V30 13 C -1.0826 -1.7024 0.0 0
M  V30 14 N -2.0725 1.1939 0.0 0
M  V30 15 C -0.3783 1.554 0.0 0
M  V30 16 N -2.2804 2.172 0.0 0
M  V30 17 C -0.5862 2.5321 0.0 0
M  V30 18 C -1.5372 2.8411 0.0 0
M  V30 19 C -3.1464 2.672 0.0 0
M  V30 20 N -1.944 3.7547 0.0 0
M  V30 21 C -4.0599 2.2653 0.0 0
M  V30 22 C -2.9385 3.6501 0.0 0
M  V30 23 N -4.869 2.853 0.0 0
M  V30 24 C -4.1645 1.2707 0.0 0
M  V30 25 C -5.7825 2.4463 0.0 0
M  V30 26 C -5.078 0.864 0.0 0
M  V30 27 C -6.5915 3.0341 0.0 0
M  V30 28 C -5.887 1.4518 0.0 0
M  V30 29 C -6.487 4.0286 0.0 0
M  V30 30 C -7.5051 2.6274 0.0 0
M  V30 31 C -7.296 4.6164 0.0 0
M  V30 32 C -8.3141 3.2151 0.0 0
M  V30 33 N -8.2096 4.2097 0.0 0
M  V30 34 N -7.1915 5.6109 0.0 0
M  V30 35 C -6.2779 6.0177 0.0 0
M  V30 36 C -8.0005 6.1987 0.0 0
M  V30 37 C -6.1734 7.0122 0.0 0
M  V30 38 C -7.896 7.1932 0.0 0
M  V30 39 C -6.9824 7.6 0.0 0
M  V30 40 O -6.8779 8.5945 0.0 0
M  V30 END ATOM
M  V30 BEGIN BOND
M  V30 1 1 1 2
M  V30 2 2 2 3
M  V30 3 1 2 4
M  V30 4 1 3 5
M  V30 5 2 4 6
M  V30 6 2 5 7
M  V30 7 1 8 5 CFG=1
M  V30 8 1 8 9
M  V30 9 1 8 10
M  V30 10 1 9 11
M  V30 11 1 9 12
M  V30 12 1 10 13
M  V30 13 2 11 14
M  V30 14 1 11 15
M  V30 15 1 14 16
M  V30 16 2 15 17
M  V30 17 1 16 18
M  V30 18 1 16 19
M  V30 19 2 18 20
M  V30 20 1 19 21
M  V30 21 2 19 22
M  V30 22 2 21 23
M  V30 23 1 21 24
M  V30 24 1 23 25
M  V30 25 2 24 26
M  V30 26 1 25 27
M  V30 27 2 25 28
M  V30 28 2 27 29
M  V30 29 1 27 30
M  V30 30 1 29 31
M  V30 31 2 30 32
M  V30 32 2 31 33
M  V30 33 1 31 34
M  V30 34 1 34 35
M  V30 35 1 34 36
M  V30 36 1 35 37
M  V30 37 1 36 38
M  V30 38 1 37 39
M  V30 39 1 39 40
M  V30 40 1 6 7
M  V30 41 1 12 13
M  V30 42 1 17 18
M  V30 43 1 20 22
M  V30 44 1 26 28
M  V30 45 1 32 33
M  V30 46 1 38 39
M  V30 END BOND
M  V30 BEGIN COLLECTION
M  V30 MDLV30/STEABS ATOMS=(1 8)
M  V30 END COLLECTION
M  V30 END CTAB
M  END
>  <Molecule Name>
Compound 547

>  <Molecule Name 2>
Compound 547

>  <Compound ID>
189

>  <Name>
GNF-8625

>  <Uniprot>
Q16288

>  <Target>
TRKC

>  <Smiles>
OC1CCN(C2=CC(C3=CC=CC(C4=CN=C5C=CC(N6CCC[C@@H]6C6=CC=CC(F)=C6)=NN45)=N3)=CC=N2)CC1

>  <Kd (nM)>
5.4

>  <Assay (Kd)>
Kd was assessed using the KINOMEscan assay

>  <Ki (nM)>


>  <Assay (Ki)>


>  <IC50 (nM)>


>  <Assay (IC50)>


>  <EC50 (nM)>


>  <Assay (EC50)>


>  <Article DOI>
10.1021/acs.jmedchem.0c01342

>  <Molecular Weight>
535.627

>  <Exact Mass>
535.2495868

>  <XLogP3>
4.45

>  <Heavy Atom Count>
40

>  <Ring Count>
7

>  <Hydrogen Bond Acceptor Count>
8

>  <Hydrogen Bond Donor Count>
1

>  <Rotatable Bond Count>
5

>  <Topological Polar Surface Area>
82.68

>  <Molecular Formula>
C31H30FN7O

>  <InChI>
InChI=1S/C31H30FN7O/c32-23-5-1-4-22(18-23)27-8-3-15-38(27)30-10-9-29-34-20-28(39(29)36-30)26-7-2-6-25(35-26)21-11-14-33-31(19-21)37-16-12-24(40)13-17-37/h1-2,4-7,9-11,14,18-20,24,27,40H,3,8,12-13,15-17H2/t27-/m1/s1

>  <InChI Key>
BLGCSOKKBWHJMB-HHHXNRCGSA-N

>  <BindingDB>


>  <PubChem>
58335500

>  <ChEMBL>


$$$$
190
Actelion Java MolfileCreator 2.0

  0  0  0  0  0  0              0 V3000
M  V30 BEGIN CTAB
M  V30 COUNTS 31 33 0 0 0
M  V30 BEGIN ATOM
M  V30 1 S 5.5372 -5.4954 0.0 0
M  V30 2 C 6.6519 -4.4917 0.0 0
M  V30 3 N 8.1192 -4.8036 0.0 0
M  V30 4 N 6.4951 -3.0 0.0 0
M  V30 5 C 8.7293 -6.1739 0.0 0
M  V30 6 C 8.8692 -3.5046 0.0 0
M  V30 7 C 5.1961 -2.25 0.0 0
M  V30 8 C 7.8655 -2.3898 0.0 0
M  V30 9 C 7.8476 -7.3875 0.0 0
M  V30 10 C 10.2211 -6.3307 0.0 0
M  V30 11 O 10.361 -3.3478 0.0 0
M  V30 12 C 5.1961 -0.75 0.0 0
M  V30 13 C 3.8971 -3.0 0.0 0
M  V30 14 C 8.8692 -1.2752 0.0 0
M  V30 15 C 7.4019 -0.9633 0.0 0
M  V30 16 C 8.4577 -8.7578 0.0 0
M  V30 17 C 10.8312 -7.701 0.0 0
M  V30 18 C 3.8971 0.0 0.0 0
M  V30 19 C 2.598 -2.25 0.0 0
M  V30 20 C 9.9495 -8.9146 0.0 0
M  V30 21 C 7.576 -9.9713 0.0 0
M  V30 22 F 3.8971 1.5 0.0 0
M  V30 23 C 2.598 -0.75 0.0 0
M  V30 24 F 1.299 -3.0 0.0 0
M  V30 25 C 10.5596 -10.2849 0.0 0
M  V30 26 F 8.7895 -10.853 0.0 0
M  V30 27 F 6.6943 -11.1848 0.0 0
M  V30 28 F 6.3625 -9.0896 0.0 0
M  V30 29 O 1.299 0.0 0.0 0
M  V30 30 N 11.1697 -11.6552 0.0 0
M  V30 31 C 0.0 -0.75 0.0 0
M  V30 END ATOM
M  V30 BEGIN BOND
M  V30 1 2 1 2
M  V30 2 1 2 3
M  V30 3 1 2 4
M  V30 4 1 3 5
M  V30 5 1 3 6
M  V30 6 1 4 7
M  V30 7 1 4 8
M  V30 8 2 5 9
M  V30 9 1 5 10
M  V30 10 2 6 11
M  V30 11 2 7 12
M  V30 12 1 7 13
M  V30 13 1 8 14
M  V30 14 1 8 15
M  V30 15 1 9 16
M  V30 16 2 10 17
M  V30 17 1 12 18
M  V30 18 2 13 19
M  V30 19 2 16 20
M  V30 20 1 16 21
M  V30 21 1 18 22
M  V30 22 2 18 23
M  V30 23 1 19 24
M  V30 24 1 20 25
M  V30 25 1 21 26
M  V30 26 1 21 27
M  V30 27 1 21 28
M  V30 28 1 23 29
M  V30 29 3 25 30
M  V30 30 1 29 31
M  V30 31 1 6 8
M  V30 32 1 17 20
M  V30 33 1 19 23
M  V30 END BOND
M  V30 END CTAB
M  END
>  <Molecule Name>
Compound 548

>  <Molecule Name 2>
Compound 548

>  <Compound ID>
190

>  <Name>


>  <Uniprot>
P10275

>  <Target>
AR

>  <Smiles>
COC1=C(F)C=C(N2C(=S)N(C3=CC=C(C#N)C(C(F)(F)F)=C3)C(=O)C2(C)C)C=C1F

>  <Kd (nM)>


>  <Assay (Kd)>


>  <Ki (nM)>


>  <Assay (Ki)>


>  <IC50 (nM)>


>  <Assay (IC50)>


>  <EC50 (nM)>


>  <Assay (EC50)>


>  <Article DOI>


>  <Molecular Weight>
455.408

>  <Exact Mass>
455.0726888

>  <XLogP3>
4.4

>  <Heavy Atom Count>
31

>  <Ring Count>
3

>  <Hydrogen Bond Acceptor Count>
4

>  <Hydrogen Bond Donor Count>
0

>  <Rotatable Bond Count>
3

>  <Topological Polar Surface Area>
56.57

>  <Molecular Formula>
C20H14F5N3O2S

>  <InChI>
InChI=1S/C20H14F5N3O2S/c1-19(2)17(29)27(11-5-4-10(9-26)13(6-11)20(23,24)25)18(31)28(19)12-7-14(21)16(30-3)15(22)8-12/h4-8H,1-3H3

>  <InChI Key>
MOFHRYQJPMAOHG-UHFFFAOYSA-N

>  <BindingDB>


>  <PubChem>
118884108

>  <ChEMBL>


$$$$
191
Actelion Java MolfileCreator 2.0

  0  0  0  0  0  0              0 V3000
M  V30 BEGIN CTAB
M  V30 COUNTS 28 30 0 0 0
M  V30 BEGIN ATOM
M  V30 1 S 1.299 0.0 0.0 0
M  V30 2 C 0.0 -0.75 0.0 0
M  V30 3 N -1.3703 -0.1398 0.0 0
M  V30 4 N -0.1567 -2.2417 0.0 0
M  V30 5 C -1.6821 1.3273 0.0 0
M  V30 6 C -2.374 -1.2546 0.0 0
M  V30 7 C 0.9579 -3.2454 0.0 0
M  V30 8 C -1.624 -2.5536 0.0 0
M  V30 9 C -0.5674 2.331 0.0 0
M  V30 10 C -3.1087 1.7908 0.0 0
M  V30 11 O -3.8658 -1.0978 0.0 0
M  V30 12 C 0.646 -4.7127 0.0 0
M  V30 13 C 2.3845 -2.7819 0.0 0
M  V30 14 C -2.8375 -3.4352 0.0 0
M  V30 15 C -1.4672 -4.0454 0.0 0
M  V30 16 N -0.8793 3.7982 0.0 0
M  V30 17 C -3.4206 3.258 0.0 0
M  V30 18 C 1.7607 -5.7164 0.0 0
M  V30 19 C 3.4992 -3.7856 0.0 0
M  V30 20 C -2.3059 4.2617 0.0 0
M  V30 21 C -4.8472 3.7216 0.0 0
M  V30 22 C 3.1873 -5.2528 0.0 0
M  V30 23 C -2.6177 5.7289 0.0 0
M  V30 24 F -5.3107 2.295 0.0 0
M  V30 25 F -6.2738 4.1851 0.0 0
M  V30 26 F -4.3837 5.1481 0.0 0
M  V30 27 O 4.302 -6.2565 0.0 0
M  V30 28 N -2.9296 7.1962 0.0 0
M  V30 END ATOM
M  V30 BEGIN BOND
M  V30 1 2 1 2
M  V30 2 1 2 3
M  V30 3 1 2 4
M  V30 4 1 3 5
M  V30 5 1 3 6
M  V30 6 1 4 7
M  V30 7 1 4 8
M  V30 8 2 5 9
M  V30 9 1 5 10
M  V30 10 2 6 11
M  V30 11 2 7 12
M  V30 12 1 7 13
M  V30 13 1 8 14
M  V30 14 1 8 15
M  V30 15 1 9 16
M  V30 16 2 10 17
M  V30 17 1 12 18
M  V30 18 2 13 19
M  V30 19 2 16 20
M  V30 20 1 17 21
M  V30 21 2 18 22
M  V30 22 1 20 23
M  V30 23 1 21 24
M  V30 24 1 21 25
M  V30 25 1 21 26
M  V30 26 1 22 27
M  V30 27 3 23 28
M  V30 28 1 6 8
M  V30 29 1 17 20
M  V30 30 1 19 22
M  V30 END BOND
M  V30 END CTAB
M  END
>  <Molecule Name>
Compound 549

>  <Molecule Name 2>
Compound 549

>  <Compound ID>
191

>  <Name>


>  <Uniprot>
P10275

>  <Target>
AR

>  <Smiles>
CC1(C)C(=O)N(C2=CN=C(C#N)C(C(F)(F)F)=C2)C(=S)N1C1=CC=C(O)C=C1

>  <Kd (nM)>


>  <Assay (Kd)>


>  <Ki (nM)>


>  <Assay (Ki)>


>  <IC50 (nM)>


>  <Assay (IC50)>


>  <EC50 (nM)>


>  <Assay (EC50)>


>  <Article DOI>


>  <Molecular Weight>
406.389

>  <Exact Mass>
406.0711313

>  <XLogP3>
3.14

>  <Heavy Atom Count>
28

>  <Ring Count>
3

>  <Hydrogen Bond Acceptor Count>
5

>  <Hydrogen Bond Donor Count>
1

>  <Rotatable Bond Count>
2

>  <Topological Polar Surface Area>
80.46

>  <Molecular Formula>
C18H13F3N4O2S

>  <InChI>
InChI=1S/C18H13F3N4O2S/c1-17(2)15(27)24(16(28)25(17)10-3-5-12(26)6-4-10)11-7-13(18(19,20)21)14(8-22)23-9-11/h3-7,9,26H,1-2H3

>  <InChI Key>
XDMFMJFVWVJZOL-UHFFFAOYSA-N

>  <BindingDB>


>  <PubChem>
88917586

>  <ChEMBL>


$$$$
192
Actelion Java MolfileCreator 2.0

  0  0  0  0  0  0              0 V3000
M  V30 BEGIN CTAB
M  V30 COUNTS 25 27 0 0 0
M  V30 BEGIN ATOM
M  V30 1 Cl 5.1961 -0.75 0.0 0
M  V30 2 C 3.8971 0.0 0.0 0
M  V30 3 C 3.8971 1.5 0.0 0
M  V30 4 C 2.598 -0.75 0.0 0
M  V30 5 C 5.1961 2.25 0.0 0
M  V30 6 C 2.598 2.25 0.0 0
M  V30 7 C 1.299 0.0 0.0 0
M  V30 8 N 6.4952 3.0 0.0 0
M  V30 9 C 1.299 1.5 0.0 0
M  V30 10 N 0.0 -0.75 0.0 0
M  V30 11 C -1.3703 -0.1398 0.0 0
M  V30 12 C -0.1567 -2.2417 0.0 0
M  V30 13 S -1.6821 1.3273 0.0 0
M  V30 14 N -2.374 -1.2546 0.0 0
M  V30 15 O 0.9579 -3.2454 0.0 0
M  V30 16 C -1.624 -2.5536 0.0 0
M  V30 17 C -3.8658 -1.0978 0.0 0
M  V30 18 C -2.8375 -3.4352 0.0 0
M  V30 19 C -1.4672 -4.0454 0.0 0
M  V30 20 C -4.4759 0.2724 0.0 0
M  V30 21 C -4.7474 -2.3113 0.0 0
M  V30 22 C -5.9676 0.4292 0.0 0
M  V30 23 C -6.2392 -2.1545 0.0 0
M  V30 24 C -6.8493 -0.7842 0.0 0
M  V30 25 O -8.3411 -0.6274 0.0 0
M  V30 END ATOM
M  V30 BEGIN BOND
M  V30 1 1 1 2
M  V30 2 2 2 3
M  V30 3 1 2 4
M  V30 4 1 3 5
M  V30 5 1 3 6
M  V30 6 2 4 7
M  V30 7 3 5 8
M  V30 8 2 6 9
M  V30 9 1 7 10
M  V30 10 1 10 11
M  V30 11 1 10 12
M  V30 12 2 11 13
M  V30 13 1 11 14
M  V30 14 2 12 15
M  V30 15 1 12 16
M  V30 16 1 14 17
M  V30 17 1 16 18
M  V30 18 1 16 19
M  V30 19 2 17 20
M  V30 20 1 17 21
M  V30 21 1 20 22
M  V30 22 2 21 23
M  V30 23 2 22 24
M  V30 24 1 24 25
M  V30 25 1 7 9
M  V30 26 1 14 16
M  V30 27 1 23 24
M  V30 END BOND
M  V30 END CTAB
M  END
>  <Molecule Name>
Compound 550

>  <Molecule Name 2>
Compound 550

>  <Compound ID>
192

>  <Name>


>  <Uniprot>
P10275

>  <Target>
AR

>  <Smiles>
CC1(C)C(=O)N(C2=CC=C(C#N)C(Cl)=C2)C(=S)N1C1=CC=C(O)C=C1

>  <Kd (nM)>


>  <Assay (Kd)>


>  <Ki (nM)>


>  <Assay (Ki)>


>  <IC50 (nM)>


>  <Assay (IC50)>


>  <EC50 (nM)>


>  <Assay (EC50)>


>  <Article DOI>


>  <Molecular Weight>
371.849

>  <Exact Mass>
371.0495254

>  <XLogP3>
3.62

>  <Heavy Atom Count>
25

>  <Ring Count>
3

>  <Hydrogen Bond Acceptor Count>
4

>  <Hydrogen Bond Donor Count>
1

>  <Rotatable Bond Count>
2

>  <Topological Polar Surface Area>
67.57

>  <Molecular Formula>
C18H14ClN3O2S

>  <InChI>
InChI=1S/C18H14ClN3O2S/c1-18(2)16(24)21(13-4-3-11(10-20)15(19)9-13)17(25)22(18)12-5-7-14(23)8-6-12/h3-9,23H,1-2H3

>  <InChI Key>
NSACPWWDFSZXSG-UHFFFAOYSA-N

>  <BindingDB>


>  <PubChem>
122423032

>  <ChEMBL>


$$$$
193
Actelion Java MolfileCreator 2.0

  0  0  0  0  0  0              0 V3000
M  V30 BEGIN CTAB
M  V30 COUNTS 28 30 0 0 0
M  V30 BEGIN ATOM
M  V30 1 F 5.9461 0.549 0.0 0
M  V30 2 C 5.1961 -0.75 0.0 0
M  V30 3 F 6.4952 -1.5 0.0 0
M  V30 4 F 4.4461 -2.049 0.0 0
M  V30 5 C 3.8971 0.0 0.0 0
M  V30 6 C 3.8971 1.5 0.0 0
M  V30 7 C 2.598 -0.75 0.0 0
M  V30 8 C 5.1961 2.25 0.0 0
M  V30 9 C 2.598 2.25 0.0 0
M  V30 10 C 1.299 0.0 0.0 0
M  V30 11 N 6.4952 3.0 0.0 0
M  V30 12 C 1.299 1.5 0.0 0
M  V30 13 N 0.0 -0.75 0.0 0
M  V30 14 C -1.3703 -0.1398 0.0 0
M  V30 15 C -0.1567 -2.2417 0.0 0
M  V30 16 O -1.6821 1.3273 0.0 0
M  V30 17 N -2.374 -1.2546 0.0 0
M  V30 18 O 0.9579 -3.2454 0.0 0
M  V30 19 C -1.624 -2.5536 0.0 0
M  V30 20 C -3.8658 -1.0978 0.0 0
M  V30 21 C -2.8375 -3.4352 0.0 0
M  V30 22 C -1.4672 -4.0454 0.0 0
M  V30 23 C -4.4759 0.2724 0.0 0
M  V30 24 C -4.7474 -2.3113 0.0 0
M  V30 25 C -5.9676 0.4292 0.0 0
M  V30 26 C -6.2392 -2.1545 0.0 0
M  V30 27 C -6.8493 -0.7842 0.0 0
M  V30 28 O -8.3411 -0.6274 0.0 0
M  V30 END ATOM
M  V30 BEGIN BOND
M  V30 1 1 1 2
M  V30 2 1 2 3
M  V30 3 1 2 4
M  V30 4 1 2 5
M  V30 5 2 5 6
M  V30 6 1 5 7
M  V30 7 1 6 8
M  V30 8 1 6 9
M  V30 9 2 7 10
M  V30 10 3 8 11
M  V30 11 2 9 12
M  V30 12 1 10 13
M  V30 13 1 13 14
M  V30 14 1 13 15
M  V30 15 2 14 16
M  V30 16 1 14 17
M  V30 17 2 15 18
M  V30 18 1 15 19
M  V30 19 1 17 20
M  V30 20 1 19 21
M  V30 21 1 19 22
M  V30 22 2 20 23
M  V30 23 1 20 24
M  V30 24 1 23 25
M  V30 25 2 24 26
M  V30 26 2 25 27
M  V30 27 1 27 28
M  V30 28 1 10 12
M  V30 29 1 17 19
M  V30 30 1 26 27
M  V30 END BOND
M  V30 END CTAB
M  END
>  <Molecule Name>
Compound 551

>  <Molecule Name 2>
Compound 551

>  <Compound ID>
193

>  <Name>


>  <Uniprot>
P10275

>  <Target>
AR

>  <Smiles>
CC1(C)C(=O)N(C2=CC=C(C#N)C(C(F)(F)F)=C2)C(=O)N1C1=CC=C(O)C=C1

>  <Kd (nM)>


>  <Assay (Kd)>


>  <Ki (nM)>


>  <Assay (Ki)>


>  <IC50 (nM)>


>  <Assay (IC50)>


>  <EC50 (nM)>


>  <Assay (EC50)>


>  <Article DOI>


>  <Molecular Weight>
389.333

>  <Exact Mass>
389.098726

>  <XLogP3>
3.27

>  <Heavy Atom Count>
28

>  <Ring Count>
3

>  <Hydrogen Bond Acceptor Count>
4

>  <Hydrogen Bond Donor Count>
1

>  <Rotatable Bond Count>
2

>  <Topological Polar Surface Area>
84.64

>  <Molecular Formula>
C19H14F3N3O3

>  <InChI>
InChI=1S/C19H14F3N3O3/c1-18(2)16(27)24(17(28)25(18)12-5-7-14(26)8-6-12)13-4-3-11(10-23)15(9-13)19(20,21)22/h3-9,26H,1-2H3

>  <InChI Key>
YAURGAWHOGZLGR-UHFFFAOYSA-N

>  <BindingDB>


>  <PubChem>
46889417

>  <ChEMBL>
CHEMBL1086001

$$$$
194
Actelion Java MolfileCreator 2.0

  0  0  0  0  0  0              0 V3000
M  V30 BEGIN CTAB
M  V30 COUNTS 34 37 0 0 0
M  V30 BEGIN ATOM
M  V30 1 O 6.0621 -2.0 0.0 0
M  V30 2 C 6.9282 -1.5 0.0 0
M  V30 3 N 6.9282 -0.5 0.0 0
M  V30 4 C 7.7942 -1.9999 0.0 0
M  V30 5 N 7.7942 0.0 0.0 0
M  V30 6 C 6.0621 0.0 0.0 0
M  V30 7 N 8.0021 -2.9781 0.0 0
M  V30 8 C 8.6602 -1.5 0.0 0
M  V30 9 C 8.6602 -0.4999 0.0 0
M  V30 10 C 5.1961 -0.5 0.0 0
M  V30 11 N 8.9966 -3.0826 0.0 0
M  V30 12 C 9.4033 -2.1691 0.0 0
M  V30 13 C 9.5262 0.0 0.0 0
M  V30 14 C 4.3301 0.0 0.0 0
M  V30 15 C 9.4966 -3.9487 0.0 0
M  V30 16 C 10.3815 -1.9612 0.0 0
M  V30 17 C 3.4641 -0.5 0.0 0
M  V30 18 C 8.9966 -4.8147 0.0 0
M  V30 19 C 10.4966 -3.9487 0.0 0
M  V30 20 O 3.4641 -1.5 0.0 0
M  V30 21 N 2.598 0.0 0.0 0
M  V30 22 C 9.4966 -5.6807 0.0 0
M  V30 23 C 10.9966 -4.8147 0.0 0
M  V30 24 C 1.732 -0.5 0.0 0
M  V30 25 C 10.4966 -5.6807 0.0 0
M  V30 26 C 0.866 0.0 0.0 0 CFG=1
M  V30 27 C 10.9966 -6.5467 0.0 0
M  V30 28 C 0.866 1.0 0.0 0
M  V30 29 C 0.0 -0.5 0.0 0
M  V30 30 C 1.732 1.4999 0.0 0
M  V30 31 C 0.0 1.4999 0.0 0
M  V30 32 C 1.732 2.5 0.0 0
M  V30 33 C 0.0 2.5 0.0 0
M  V30 34 C 0.866 3.0 0.0 0
M  V30 END ATOM
M  V30 BEGIN BOND
M  V30 1 2 1 2
M  V30 2 1 2 3
M  V30 3 1 2 4
M  V30 4 1 3 5
M  V30 5 1 3 6
M  V30 6 2 4 7
M  V30 7 1 4 8
M  V30 8 2 5 9
M  V30 9 1 6 10
M  V30 10 1 7 11
M  V30 11 2 8 12
M  V30 12 1 9 13
M  V30 13 1 10 14
M  V30 14 1 11 15
M  V30 15 1 12 16
M  V30 16 1 14 17
M  V30 17 2 15 18
M  V30 18 1 15 19
M  V30 19 2 17 20
M  V30 20 1 17 21
M  V30 21 1 18 22
M  V30 22 2 19 23
M  V30 23 1 21 24
M  V30 24 2 22 25
M  V30 25 1 26 24
M  V30 26 1 25 27
M  V30 27 1 26 28
M  V30 28 1 26 29 CFG=3
M  V30 29 2 28 30
M  V30 30 1 28 31
M  V30 31 1 30 32
M  V30 32 2 31 33
M  V30 33 2 32 34
M  V30 34 1 8 9
M  V30 35 1 11 12
M  V30 36 1 23 25
M  V30 37 1 33 34
M  V30 END BOND
M  V30 BEGIN COLLECTION
M  V30 MDLV30/STERAC1 ATOMS=(1 26)
M  V30 END COLLECTION
M  V30 END CTAB
M  END
>  <Molecule Name>
Compound 552

>  <Molecule Name 2>
Compound 552

>  <Compound ID>
194

>  <Name>
Deltazinone 1

>  <Uniprot>
O43924

>  <Target>
PDEdelta

>  <Smiles>
CC1=CC=C(N2N=C3C(=O)N(CCCC(=O)NCC(C)C4=CC=CC=C4)N=C(C)C3=C2C)C=C1

>  <Kd (nM)>
8

>  <Assay (Kd)>
FP

>  <Ki (nM)>


>  <Assay (Ki)>


>  <IC50 (nM)>


>  <Assay (IC50)>


>  <EC50 (nM)>


>  <Assay (EC50)>


>  <Article DOI>
10.1038/ncomms11360

>  <Molecular Weight>
457.578

>  <Exact Mass>
457.2477752

>  <XLogP3>
4.16

>  <Heavy Atom Count>
34

>  <Ring Count>
4

>  <Hydrogen Bond Acceptor Count>
6

>  <Hydrogen Bond Donor Count>
1

>  <Rotatable Bond Count>
8

>  <Topological Polar Surface Area>
81.81

>  <Molecular Formula>
C27H31N5O2

>  <InChI>
InChI=1S/C27H31N5O2/c1-18-12-14-23(15-13-18)32-21(4)25-20(3)29-31(27(34)26(25)30-32)16-8-11-24(33)28-17-19(2)22-9-6-5-7-10-22/h5-7,9-10,12-15,19H,8,11,16-17H2,1-4H3,(H,28,33)

>  <InChI Key>
HZNKNJCWLQLQMJ-UHFFFAOYSA-N

>  <BindingDB>
50249989

>  <PubChem>
20919929

>  <ChEMBL>
CHEMBL1387422

$$$$
195
Actelion Java MolfileCreator 2.0

  0  0  0  0  0  0              0 V3000
M  V30 BEGIN CTAB
M  V30 COUNTS 31 34 0 0 0
M  V30 BEGIN ATOM
M  V30 1 Cl 6.5621 1.866 0.0 0
M  V30 2 C 6.0621 1.0 0.0 0
M  V30 3 F 6.9282 0.5 0.0 0
M  V30 4 F 5.5621 0.1339 0.0 0
M  V30 5 O 5.1961 1.5 0.0 0
M  V30 6 C 4.3301 1.0 0.0 0
M  V30 7 C 3.4641 1.5 0.0 0
M  V30 8 C 4.3301 0.0 0.0 0
M  V30 9 C 2.598 0.9999 0.0 0
M  V30 10 C 3.4641 -0.4999 0.0 0
M  V30 11 C 2.598 0.0 0.0 0
M  V30 12 N 1.732 -0.5 0.0 0
M  V30 13 C 0.866 0.0 0.0 0
M  V30 14 O 0.866 1.0 0.0 0
M  V30 15 C 0.0 -0.5 0.0 0
M  V30 16 C -0.866 0.0 0.0 0
M  V30 17 C 0.0 -1.4999 0.0 0
M  V30 18 N -1.732 -0.4999 0.0 0
M  V30 19 C -0.866 -1.9999 0.0 0
M  V30 20 C -1.732 -1.4999 0.0 0
M  V30 21 C -0.866 -2.9999 0.0 0
M  V30 22 N -2.598 -1.9999 0.0 0
M  V30 23 N -1.675 -3.5877 0.0 0
M  V30 24 C -0.057 -3.5877 0.0 0
M  V30 25 C -3.5116 -1.5932 0.0 0
M  V30 26 C -2.7026 -2.9945 0.0 0
M  V30 27 N -1.366 -4.5388 0.0 0
M  V30 28 C -0.366 -4.5388 0.0 0
M  V30 29 C -4.1807 -2.3364 0.0 0 CFG=1
M  V30 30 C -3.6807 -3.2024 0.0 0
M  V30 31 O -5.1752 -2.2318 0.0 0
M  V30 END ATOM
M  V30 BEGIN BOND
M  V30 1 1 1 2
M  V30 2 1 2 3
M  V30 3 1 2 4
M  V30 4 1 2 5
M  V30 5 1 5 6
M  V30 6 2 6 7
M  V30 7 1 6 8
M  V30 8 1 7 9
M  V30 9 2 8 10
M  V30 10 2 9 11
M  V30 11 1 11 12
M  V30 12 1 12 13
M  V30 13 2 13 14
M  V30 14 1 13 15
M  V30 15 2 15 16
M  V30 16 1 15 17
M  V30 17 1 16 18
M  V30 18 2 17 19
M  V30 19 2 18 20
M  V30 20 1 19 21
M  V30 21 1 20 22
M  V30 22 1 21 23
M  V30 23 2 21 24
M  V30 24 1 22 25
M  V30 25 1 22 26
M  V30 26 1 23 27
M  V30 27 1 24 28
M  V30 28 1 29 25
M  V30 29 1 26 30
M  V30 30 1 29 31 CFG=1
M  V30 31 1 10 11
M  V30 32 1 19 20
M  V30 33 2 27 28
M  V30 34 1 29 30
M  V30 END BOND
M  V30 BEGIN COLLECTION
M  V30 MDLV30/STEABS ATOMS=(1 29)
M  V30 END COLLECTION
M  V30 END CTAB
M  END
>  <Molecule Name>
Compound 553

>  <Molecule Name 2>
Compound 553

>  <Compound ID>
195

>  <Name>
Asciminib

>  <Uniprot>


>  <Target>
BCR-ABL

>  <Smiles>
O=C(NC1=CC=C(OC(F)(F)Cl)C=C1)C1=CN=C(N2CC[C@@H](O)C2)C(C2=CC=N[NH]2)=C1

>  <Kd (nM)>
0.5

>  <Assay (Kd)>
ITC

>  <Ki (nM)>


>  <Assay (Ki)>


>  <IC50 (nM)>


>  <Assay (IC50)>


>  <EC50 (nM)>


>  <Assay (EC50)>


>  <Article DOI>
10.1021/acs.jmedchem.8b01040

>  <Molecular Weight>
449.845

>  <Exact Mass>
449.1066236

>  <XLogP3>
3.04

>  <Heavy Atom Count>
31

>  <Ring Count>
4

>  <Hydrogen Bond Acceptor Count>
6

>  <Hydrogen Bond Donor Count>
3

>  <Rotatable Bond Count>
6

>  <Topological Polar Surface Area>
103.37

>  <Molecular Formula>
C20H18ClF2N5O3

>  <InChI>
InChI=1S/C20H18ClF2N5O3/c21-20(22,23)31-15-3-1-13(2-4-15)26-19(30)12-9-16(17-5-7-25-27-17)18(24-10-12)28-8-6-14(29)11-28/h1-5,7,9-10,14,29H,6,8,11H2,(H,25,27)(H,26,30)/t14-/m1/s1

>  <InChI Key>
VOVZXURTCKPRDQ-CQSZACIVSA-N

>  <BindingDB>
50459091

>  <PubChem>
72165228

>  <ChEMBL>
CHEMBL4208229

$$$$
195
Actelion Java MolfileCreator 2.0

  0  0  0  0  0  0              0 V3000
M  V30 BEGIN CTAB
M  V30 COUNTS 31 34 0 0 0
M  V30 BEGIN ATOM
M  V30 1 Cl 6.5621 1.866 0.0 0
M  V30 2 C 6.0621 1.0 0.0 0
M  V30 3 F 6.9282 0.5 0.0 0
M  V30 4 F 5.5621 0.1339 0.0 0
M  V30 5 O 5.1961 1.5 0.0 0
M  V30 6 C 4.3301 1.0 0.0 0
M  V30 7 C 3.4641 1.5 0.0 0
M  V30 8 C 4.3301 0.0 0.0 0
M  V30 9 C 2.598 0.9999 0.0 0
M  V30 10 C 3.4641 -0.4999 0.0 0
M  V30 11 C 2.598 0.0 0.0 0
M  V30 12 N 1.732 -0.5 0.0 0
M  V30 13 C 0.866 0.0 0.0 0
M  V30 14 O 0.866 1.0 0.0 0
M  V30 15 C 0.0 -0.5 0.0 0
M  V30 16 C -0.866 0.0 0.0 0
M  V30 17 C 0.0 -1.4999 0.0 0
M  V30 18 N -1.732 -0.4999 0.0 0
M  V30 19 C -0.866 -1.9999 0.0 0
M  V30 20 C -1.732 -1.4999 0.0 0
M  V30 21 C -0.866 -2.9999 0.0 0
M  V30 22 N -2.598 -1.9999 0.0 0
M  V30 23 N -1.675 -3.5877 0.0 0
M  V30 24 C -0.057 -3.5877 0.0 0
M  V30 25 C -3.5116 -1.5932 0.0 0
M  V30 26 C -2.7026 -2.9945 0.0 0
M  V30 27 N -1.366 -4.5388 0.0 0
M  V30 28 C -0.366 -4.5388 0.0 0
M  V30 29 C -4.1807 -2.3364 0.0 0 CFG=1
M  V30 30 C -3.6807 -3.2024 0.0 0
M  V30 31 O -5.1752 -2.2318 0.0 0
M  V30 END ATOM
M  V30 BEGIN BOND
M  V30 1 1 1 2
M  V30 2 1 2 3
M  V30 3 1 2 4
M  V30 4 1 2 5
M  V30 5 1 5 6
M  V30 6 2 6 7
M  V30 7 1 6 8
M  V30 8 1 7 9
M  V30 9 2 8 10
M  V30 10 2 9 11
M  V30 11 1 11 12
M  V30 12 1 12 13
M  V30 13 2 13 14
M  V30 14 1 13 15
M  V30 15 2 15 16
M  V30 16 1 15 17
M  V30 17 1 16 18
M  V30 18 2 17 19
M  V30 19 2 18 20
M  V30 20 1 19 21
M  V30 21 1 20 22
M  V30 22 1 21 23
M  V30 23 2 21 24
M  V30 24 1 22 25
M  V30 25 1 22 26
M  V30 26 1 23 27
M  V30 27 1 24 28
M  V30 28 1 29 25
M  V30 29 1 26 30
M  V30 30 1 29 31 CFG=1
M  V30 31 1 10 11
M  V30 32 1 19 20
M  V30 33 2 27 28
M  V30 34 1 29 30
M  V30 END BOND
M  V30 BEGIN COLLECTION
M  V30 MDLV30/STEABS ATOMS=(1 29)
M  V30 END COLLECTION
M  V30 END CTAB
M  END
>  <Molecule Name>
Compound 554

>  <Molecule Name 2>
Compound 554

>  <Compound ID>
195

>  <Name>
Asciminib

>  <Uniprot>


>  <Target>
BCR-ABL T315I

>  <Smiles>
O=C(NC1=CC=C(OC(F)(F)Cl)C=C1)C1=CN=C(N2CC[C@@H](O)C2)C(C2=CC=N[NH]2)=C1

>  <Kd (nM)>


>  <Assay (Kd)>


>  <Ki (nM)>


>  <Assay (Ki)>


>  <IC50 (nM)>


>  <Assay (IC50)>


>  <EC50 (nM)>
5.8

>  <Assay (EC50)>
Inhibit viability of BaF3 BCR-ABL(T315I) cells

>  <Article DOI>
10.1021/acs.jmedchem.0c00967

>  <Molecular Weight>
449.845

>  <Exact Mass>
449.1066236

>  <XLogP3>
3.04

>  <Heavy Atom Count>
31

>  <Ring Count>
4

>  <Hydrogen Bond Acceptor Count>
6

>  <Hydrogen Bond Donor Count>
3

>  <Rotatable Bond Count>
6

>  <Topological Polar Surface Area>
103.37

>  <Molecular Formula>
C20H18ClF2N5O3

>  <InChI>
InChI=1S/C20H18ClF2N5O3/c21-20(22,23)31-15-3-1-13(2-4-15)26-19(30)12-9-16(17-5-7-25-27-17)18(24-10-12)28-8-6-14(29)11-28/h1-5,7,9-10,14,29H,6,8,11H2,(H,25,27)(H,26,30)/t14-/m1/s1

>  <InChI Key>
VOVZXURTCKPRDQ-CQSZACIVSA-N

>  <BindingDB>
50459091

>  <PubChem>
72165228

>  <ChEMBL>
CHEMBL4208229

$$$$
196
Actelion Java MolfileCreator 2.0

  0  0  0  0  0  0              0 V3000
M  V30 BEGIN CTAB
M  V30 COUNTS 39 43 0 0 0
M  V30 BEGIN ATOM
M  V30 1 F 5.6961 0.366 0.0 0
M  V30 2 C 5.1961 -0.5 0.0 0
M  V30 3 F 6.0621 -1.0 0.0 0
M  V30 4 F 4.6961 -1.366 0.0 0
M  V30 5 C 4.3301 0.0 0.0 0
M  V30 6 C 4.3301 1.0 0.0 0
M  V30 7 C 3.4641 -0.4999 0.0 0
M  V30 8 C 3.4641 1.5 0.0 0
M  V30 9 C 5.1961 1.5 0.0 0
M  V30 10 C 2.598 0.0 0.0 0
M  V30 11 C 2.598 1.0 0.0 0
M  V30 12 N 5.1961 2.5 0.0 0
M  V30 13 N 1.732 -0.5 0.0 0
M  V30 14 C 6.0621 2.9999 0.0 0
M  V30 15 C 4.3301 3.0 0.0 0
M  V30 16 C 0.866 0.0 0.0 0
M  V30 17 C 6.0621 3.9999 0.0 0
M  V30 18 C 4.3301 4.0 0.0 0
M  V30 19 O 0.866 1.0 0.0 0
M  V30 20 C 0.0 -0.5 0.0 0
M  V30 21 N 5.1961 4.4999 0.0 0
M  V30 22 C -0.866 0.0 0.0 0
M  V30 23 C 0.0 -1.5 0.0 0
M  V30 24 C 5.1961 5.4999 0.0 0
M  V30 25 C -1.732 -0.4999 0.0 0
M  V30 26 C -0.866 -1.9999 0.0 0
M  V30 27 C -2.598 0.0 0.0 0
M  V30 28 C -1.732 -1.4999 0.0 0
M  V30 29 C -3.4641 0.5 0.0 0
M  V30 30 C -2.598 -1.9999 0.0 0
M  V30 31 C -4.3301 1.0 0.0 0
M  V30 32 N -4.4346 1.9945 0.0 0
M  V30 33 C -5.2436 0.5932 0.0 0
M  V30 34 N -3.7655 2.7376 0.0 0
M  V30 35 C -5.4128 2.2024 0.0 0
M  V30 36 N -5.9128 1.3364 0.0 0
M  V30 37 C -4.0745 3.6887 0.0 0
M  V30 38 C -5.7218 3.1534 0.0 0
M  V30 39 C -5.0526 3.8966 0.0 0
M  V30 END ATOM
M  V30 BEGIN BOND
M  V30 1 1 1 2
M  V30 2 1 2 3
M  V30 3 1 2 4
M  V30 4 1 2 5
M  V30 5 2 5 6
M  V30 6 1 5 7
M  V30 7 1 6 8
M  V30 8 1 6 9
M  V30 9 2 7 10
M  V30 10 2 8 11
M  V30 11 1 9 12
M  V30 12 1 10 13
M  V30 13 1 12 14
M  V30 14 1 12 15
M  V30 15 1 13 16
M  V30 16 1 14 17
M  V30 17 1 15 18
M  V30 18 2 16 19
M  V30 19 1 16 20
M  V30 20 1 17 21
M  V30 21 2 20 22
M  V30 22 1 20 23
M  V30 23 1 21 24
M  V30 24 1 22 25
M  V30 25 2 23 26
M  V30 26 1 25 27
M  V30 27 2 25 28
M  V30 28 3 27 29
M  V30 29 1 28 30
M  V30 30 1 29 31
M  V30 31 1 31 32
M  V30 32 2 31 33
M  V30 33 1 32 34
M  V30 34 1 32 35
M  V30 35 1 33 36
M  V30 36 2 34 37
M  V30 37 1 35 38
M  V30 38 1 37 39
M  V30 39 1 10 11
M  V30 40 1 18 21
M  V30 41 1 26 28
M  V30 42 2 35 36
M  V30 43 2 38 39
M  V30 END BOND
M  V30 END CTAB
M  END
>  <Molecule Name>
Compound 555

>  <Molecule Name 2>
Compound 555

>  <Compound ID>
196

>  <Name>
Ponatinib

>  <Uniprot>
P00519

>  <Target>
ABL1

>  <Smiles>
CC1=CC=C(C(=O)NC2=CC=C(CN3CCN(C)CC3)C(C(F)(F)F)=C2)C=C1C#CC1=CN=C2C=CC=NN12

>  <Kd (nM)>


>  <Assay (Kd)>


>  <Ki (nM)>


>  <Assay (Ki)>


>  <IC50 (nM)>
0.33

>  <Assay (IC50)>
Inhibition of ABL1 expressed in insect cells after 30 mins by FRET assay

>  <EC50 (nM)>


>  <Assay (EC50)>


>  <Article DOI>
10.1021/jm301581y

>  <Molecular Weight>
532.57

>  <Exact Mass>
532.2198441

>  <XLogP3>
4.11

>  <Heavy Atom Count>
39

>  <Ring Count>
5

>  <Hydrogen Bond Acceptor Count>
6

>  <Hydrogen Bond Donor Count>
1

>  <Rotatable Bond Count>
4

>  <Topological Polar Surface Area>
65.77

>  <Molecular Formula>
C29H27F3N6O

>  <InChI>
InChI=1S/C29H27F3N6O/c1-20-5-6-22(16-21(20)8-10-25-18-33-27-4-3-11-34-38(25)27)28(39)35-24-9-7-23(26(17-24)29(30,31)32)19-37-14-12-36(2)13-15-37/h3-7,9,11,16-18H,12-15,19H2,1-2H3,(H,35,39)

>  <InChI Key>
PHXJVRSECIGDHY-UHFFFAOYSA-N

>  <BindingDB>
50322535

>  <PubChem>
24826799

>  <ChEMBL>
CHEMBL1171837

$$$$
196
Actelion Java MolfileCreator 2.0

  0  0  0  0  0  0              0 V3000
M  V30 BEGIN CTAB
M  V30 COUNTS 39 43 0 0 0
M  V30 BEGIN ATOM
M  V30 1 F 5.6961 0.366 0.0 0
M  V30 2 C 5.1961 -0.5 0.0 0
M  V30 3 F 6.0621 -1.0 0.0 0
M  V30 4 F 4.6961 -1.366 0.0 0
M  V30 5 C 4.3301 0.0 0.0 0
M  V30 6 C 4.3301 1.0 0.0 0
M  V30 7 C 3.4641 -0.4999 0.0 0
M  V30 8 C 3.4641 1.5 0.0 0
M  V30 9 C 5.1961 1.5 0.0 0
M  V30 10 C 2.598 0.0 0.0 0
M  V30 11 C 2.598 1.0 0.0 0
M  V30 12 N 5.1961 2.5 0.0 0
M  V30 13 N 1.732 -0.5 0.0 0
M  V30 14 C 6.0621 2.9999 0.0 0
M  V30 15 C 4.3301 3.0 0.0 0
M  V30 16 C 0.866 0.0 0.0 0
M  V30 17 C 6.0621 3.9999 0.0 0
M  V30 18 C 4.3301 4.0 0.0 0
M  V30 19 O 0.866 1.0 0.0 0
M  V30 20 C 0.0 -0.5 0.0 0
M  V30 21 N 5.1961 4.4999 0.0 0
M  V30 22 C -0.866 0.0 0.0 0
M  V30 23 C 0.0 -1.5 0.0 0
M  V30 24 C 5.1961 5.4999 0.0 0
M  V30 25 C -1.732 -0.4999 0.0 0
M  V30 26 C -0.866 -1.9999 0.0 0
M  V30 27 C -2.598 0.0 0.0 0
M  V30 28 C -1.732 -1.4999 0.0 0
M  V30 29 C -3.4641 0.5 0.0 0
M  V30 30 C -2.598 -1.9999 0.0 0
M  V30 31 C -4.3301 1.0 0.0 0
M  V30 32 N -4.4346 1.9945 0.0 0
M  V30 33 C -5.2436 0.5932 0.0 0
M  V30 34 N -3.7655 2.7376 0.0 0
M  V30 35 C -5.4128 2.2024 0.0 0
M  V30 36 N -5.9128 1.3364 0.0 0
M  V30 37 C -4.0745 3.6887 0.0 0
M  V30 38 C -5.7218 3.1534 0.0 0
M  V30 39 C -5.0526 3.8966 0.0 0
M  V30 END ATOM
M  V30 BEGIN BOND
M  V30 1 1 1 2
M  V30 2 1 2 3
M  V30 3 1 2 4
M  V30 4 1 2 5
M  V30 5 2 5 6
M  V30 6 1 5 7
M  V30 7 1 6 8
M  V30 8 1 6 9
M  V30 9 2 7 10
M  V30 10 2 8 11
M  V30 11 1 9 12
M  V30 12 1 10 13
M  V30 13 1 12 14
M  V30 14 1 12 15
M  V30 15 1 13 16
M  V30 16 1 14 17
M  V30 17 1 15 18
M  V30 18 2 16 19
M  V30 19 1 16 20
M  V30 20 1 17 21
M  V30 21 2 20 22
M  V30 22 1 20 23
M  V30 23 1 21 24
M  V30 24 1 22 25
M  V30 25 2 23 26
M  V30 26 1 25 27
M  V30 27 2 25 28
M  V30 28 3 27 29
M  V30 29 1 28 30
M  V30 30 1 29 31
M  V30 31 1 31 32
M  V30 32 2 31 33
M  V30 33 1 32 34
M  V30 34 1 32 35
M  V30 35 1 33 36
M  V30 36 2 34 37
M  V30 37 1 35 38
M  V30 38 1 37 39
M  V30 39 1 10 11
M  V30 40 1 18 21
M  V30 41 1 26 28
M  V30 42 2 35 36
M  V30 43 2 38 39
M  V30 END BOND
M  V30 END CTAB
M  END
>  <Molecule Name>
Compound 556

>  <Molecule Name 2>
Compound 556

>  <Compound ID>
196

>  <Name>
Ponatinib

>  <Uniprot>
P42684

>  <Target>
ABL2

>  <Smiles>
CC1=CC=C(C(=O)NC2=CC=C(CN3CCN(C)CC3)C(C(F)(F)F)=C2)C=C1C#CC1=CN=C2C=CC=NN12

>  <Kd (nM)>
20

>  <Assay (Kd)>
Kd apparent of ABL2

>  <Ki (nM)>


>  <Assay (Ki)>


>  <IC50 (nM)>


>  <Assay (IC50)>


>  <EC50 (nM)>


>  <Assay (EC50)>


>  <Article DOI>
10.1126/science.aan4368

>  <Molecular Weight>
532.57

>  <Exact Mass>
532.2198441

>  <XLogP3>
4.11

>  <Heavy Atom Count>
39

>  <Ring Count>
5

>  <Hydrogen Bond Acceptor Count>
6

>  <Hydrogen Bond Donor Count>
1

>  <Rotatable Bond Count>
4

>  <Topological Polar Surface Area>
65.77

>  <Molecular Formula>
C29H27F3N6O

>  <InChI>
InChI=1S/C29H27F3N6O/c1-20-5-6-22(16-21(20)8-10-25-18-33-27-4-3-11-34-38(25)27)28(39)35-24-9-7-23(26(17-24)29(30,31)32)19-37-14-12-36(2)13-15-37/h3-7,9,11,16-18H,12-15,19H2,1-2H3,(H,35,39)

>  <InChI Key>
PHXJVRSECIGDHY-UHFFFAOYSA-N

>  <BindingDB>
50322535

>  <PubChem>
24826799

>  <ChEMBL>
CHEMBL1171837

$$$$
196
Actelion Java MolfileCreator 2.0

  0  0  0  0  0  0              0 V3000
M  V30 BEGIN CTAB
M  V30 COUNTS 39 43 0 0 0
M  V30 BEGIN ATOM
M  V30 1 F 5.6961 0.366 0.0 0
M  V30 2 C 5.1961 -0.5 0.0 0
M  V30 3 F 6.0621 -1.0 0.0 0
M  V30 4 F 4.6961 -1.366 0.0 0
M  V30 5 C 4.3301 0.0 0.0 0
M  V30 6 C 4.3301 1.0 0.0 0
M  V30 7 C 3.4641 -0.4999 0.0 0
M  V30 8 C 3.4641 1.5 0.0 0
M  V30 9 C 5.1961 1.5 0.0 0
M  V30 10 C 2.598 0.0 0.0 0
M  V30 11 C 2.598 1.0 0.0 0
M  V30 12 N 5.1961 2.5 0.0 0
M  V30 13 N 1.732 -0.5 0.0 0
M  V30 14 C 6.0621 2.9999 0.0 0
M  V30 15 C 4.3301 3.0 0.0 0
M  V30 16 C 0.866 0.0 0.0 0
M  V30 17 C 6.0621 3.9999 0.0 0
M  V30 18 C 4.3301 4.0 0.0 0
M  V30 19 O 0.866 1.0 0.0 0
M  V30 20 C 0.0 -0.5 0.0 0
M  V30 21 N 5.1961 4.4999 0.0 0
M  V30 22 C -0.866 0.0 0.0 0
M  V30 23 C 0.0 -1.5 0.0 0
M  V30 24 C 5.1961 5.4999 0.0 0
M  V30 25 C -1.732 -0.4999 0.0 0
M  V30 26 C -0.866 -1.9999 0.0 0
M  V30 27 C -2.598 0.0 0.0 0
M  V30 28 C -1.732 -1.4999 0.0 0
M  V30 29 C -3.4641 0.5 0.0 0
M  V30 30 C -2.598 -1.9999 0.0 0
M  V30 31 C -4.3301 1.0 0.0 0
M  V30 32 N -4.4346 1.9945 0.0 0
M  V30 33 C -5.2436 0.5932 0.0 0
M  V30 34 N -3.7655 2.7376 0.0 0
M  V30 35 C -5.4128 2.2024 0.0 0
M  V30 36 N -5.9128 1.3364 0.0 0
M  V30 37 C -4.0745 3.6887 0.0 0
M  V30 38 C -5.7218 3.1534 0.0 0
M  V30 39 C -5.0526 3.8966 0.0 0
M  V30 END ATOM
M  V30 BEGIN BOND
M  V30 1 1 1 2
M  V30 2 1 2 3
M  V30 3 1 2 4
M  V30 4 1 2 5
M  V30 5 2 5 6
M  V30 6 1 5 7
M  V30 7 1 6 8
M  V30 8 1 6 9
M  V30 9 2 7 10
M  V30 10 2 8 11
M  V30 11 1 9 12
M  V30 12 1 10 13
M  V30 13 1 12 14
M  V30 14 1 12 15
M  V30 15 1 13 16
M  V30 16 1 14 17
M  V30 17 1 15 18
M  V30 18 2 16 19
M  V30 19 1 16 20
M  V30 20 1 17 21
M  V30 21 2 20 22
M  V30 22 1 20 23
M  V30 23 1 21 24
M  V30 24 1 22 25
M  V30 25 2 23 26
M  V30 26 1 25 27
M  V30 27 2 25 28
M  V30 28 3 27 29
M  V30 29 1 28 30
M  V30 30 1 29 31
M  V30 31 1 31 32
M  V30 32 2 31 33
M  V30 33 1 32 34
M  V30 34 1 32 35
M  V30 35 1 33 36
M  V30 36 2 34 37
M  V30 37 1 35 38
M  V30 38 1 37 39
M  V30 39 1 10 11
M  V30 40 1 18 21
M  V30 41 1 26 28
M  V30 42 2 35 36
M  V30 43 2 38 39
M  V30 END BOND
M  V30 END CTAB
M  END
>  <Molecule Name>
Compound 557

>  <Molecule Name 2>
Compound 557

>  <Compound ID>
196

>  <Name>
Ponatinib

>  <Uniprot>


>  <Target>
BCR-ABL

>  <Smiles>
CC1=CC=C(C(=O)NC2=CC=C(CN3CCN(C)CC3)C(C(F)(F)F)=C2)C=C1C#CC1=CN=C2C=CC=NN12

>  <Kd (nM)>


>  <Assay (Kd)>


>  <Ki (nM)>


>  <Assay (Ki)>


>  <IC50 (nM)>
1

>  <Assay (IC50)>
IC50 was assessed by the FRET-based Z'-Lyte assay

>  <EC50 (nM)>


>  <Assay (EC50)>


>  <Article DOI>
10.1016/j.bmcl.2015.07.006

>  <Molecular Weight>
532.57

>  <Exact Mass>
532.2198441

>  <XLogP3>
4.11

>  <Heavy Atom Count>
39

>  <Ring Count>
5

>  <Hydrogen Bond Acceptor Count>
6

>  <Hydrogen Bond Donor Count>
1

>  <Rotatable Bond Count>
4

>  <Topological Polar Surface Area>
65.77

>  <Molecular Formula>
C29H27F3N6O

>  <InChI>
InChI=1S/C29H27F3N6O/c1-20-5-6-22(16-21(20)8-10-25-18-33-27-4-3-11-34-38(25)27)28(39)35-24-9-7-23(26(17-24)29(30,31)32)19-37-14-12-36(2)13-15-37/h3-7,9,11,16-18H,12-15,19H2,1-2H3,(H,35,39)

>  <InChI Key>
PHXJVRSECIGDHY-UHFFFAOYSA-N

>  <BindingDB>
50322535

>  <PubChem>
24826799

>  <ChEMBL>
CHEMBL1171837

$$$$
196
Actelion Java MolfileCreator 2.0

  0  0  0  0  0  0              0 V3000
M  V30 BEGIN CTAB
M  V30 COUNTS 39 43 0 0 0
M  V30 BEGIN ATOM
M  V30 1 F 5.6961 0.366 0.0 0
M  V30 2 C 5.1961 -0.5 0.0 0
M  V30 3 F 6.0621 -1.0 0.0 0
M  V30 4 F 4.6961 -1.366 0.0 0
M  V30 5 C 4.3301 0.0 0.0 0
M  V30 6 C 4.3301 1.0 0.0 0
M  V30 7 C 3.4641 -0.4999 0.0 0
M  V30 8 C 3.4641 1.5 0.0 0
M  V30 9 C 5.1961 1.5 0.0 0
M  V30 10 C 2.598 0.0 0.0 0
M  V30 11 C 2.598 1.0 0.0 0
M  V30 12 N 5.1961 2.5 0.0 0
M  V30 13 N 1.732 -0.5 0.0 0
M  V30 14 C 6.0621 2.9999 0.0 0
M  V30 15 C 4.3301 3.0 0.0 0
M  V30 16 C 0.866 0.0 0.0 0
M  V30 17 C 6.0621 3.9999 0.0 0
M  V30 18 C 4.3301 4.0 0.0 0
M  V30 19 O 0.866 1.0 0.0 0
M  V30 20 C 0.0 -0.5 0.0 0
M  V30 21 N 5.1961 4.4999 0.0 0
M  V30 22 C -0.866 0.0 0.0 0
M  V30 23 C 0.0 -1.5 0.0 0
M  V30 24 C 5.1961 5.4999 0.0 0
M  V30 25 C -1.732 -0.4999 0.0 0
M  V30 26 C -0.866 -1.9999 0.0 0
M  V30 27 C -2.598 0.0 0.0 0
M  V30 28 C -1.732 -1.4999 0.0 0
M  V30 29 C -3.4641 0.5 0.0 0
M  V30 30 C -2.598 -1.9999 0.0 0
M  V30 31 C -4.3301 1.0 0.0 0
M  V30 32 N -4.4346 1.9945 0.0 0
M  V30 33 C -5.2436 0.5932 0.0 0
M  V30 34 N -3.7655 2.7376 0.0 0
M  V30 35 C -5.4128 2.2024 0.0 0
M  V30 36 N -5.9128 1.3364 0.0 0
M  V30 37 C -4.0745 3.6887 0.0 0
M  V30 38 C -5.7218 3.1534 0.0 0
M  V30 39 C -5.0526 3.8966 0.0 0
M  V30 END ATOM
M  V30 BEGIN BOND
M  V30 1 1 1 2
M  V30 2 1 2 3
M  V30 3 1 2 4
M  V30 4 1 2 5
M  V30 5 2 5 6
M  V30 6 1 5 7
M  V30 7 1 6 8
M  V30 8 1 6 9
M  V30 9 2 7 10
M  V30 10 2 8 11
M  V30 11 1 9 12
M  V30 12 1 10 13
M  V30 13 1 12 14
M  V30 14 1 12 15
M  V30 15 1 13 16
M  V30 16 1 14 17
M  V30 17 1 15 18
M  V30 18 2 16 19
M  V30 19 1 16 20
M  V30 20 1 17 21
M  V30 21 2 20 22
M  V30 22 1 20 23
M  V30 23 1 21 24
M  V30 24 1 22 25
M  V30 25 2 23 26
M  V30 26 1 25 27
M  V30 27 2 25 28
M  V30 28 3 27 29
M  V30 29 1 28 30
M  V30 30 1 29 31
M  V30 31 1 31 32
M  V30 32 2 31 33
M  V30 33 1 32 34
M  V30 34 1 32 35
M  V30 35 1 33 36
M  V30 36 2 34 37
M  V30 37 1 35 38
M  V30 38 1 37 39
M  V30 39 1 10 11
M  V30 40 1 18 21
M  V30 41 1 26 28
M  V30 42 2 35 36
M  V30 43 2 38 39
M  V30 END BOND
M  V30 END CTAB
M  END
>  <Molecule Name>
Compound 558

>  <Molecule Name 2>
Compound 558

>  <Compound ID>
196

>  <Name>
Ponatinib

>  <Uniprot>


>  <Target>
BCR-ABL T315I

>  <Smiles>
CC1=CC=C(C(=O)NC2=CC=C(CN3CCN(C)CC3)C(C(F)(F)F)=C2)C=C1C#CC1=CN=C2C=CC=NN12

>  <Kd (nM)>


>  <Assay (Kd)>


>  <Ki (nM)>


>  <Assay (Ki)>


>  <IC50 (nM)>
0.9

>  <Assay (IC50)>
IC50 was assessed by the FRET-based Z'-Lyte assay

>  <EC50 (nM)>


>  <Assay (EC50)>


>  <Article DOI>
10.1016/j.bmcl.2015.07.006

>  <Molecular Weight>
532.57

>  <Exact Mass>
532.2198441

>  <XLogP3>
4.11

>  <Heavy Atom Count>
39

>  <Ring Count>
5

>  <Hydrogen Bond Acceptor Count>
6

>  <Hydrogen Bond Donor Count>
1

>  <Rotatable Bond Count>
4

>  <Topological Polar Surface Area>
65.77

>  <Molecular Formula>
C29H27F3N6O

>  <InChI>
InChI=1S/C29H27F3N6O/c1-20-5-6-22(16-21(20)8-10-25-18-33-27-4-3-11-34-38(25)27)28(39)35-24-9-7-23(26(17-24)29(30,31)32)19-37-14-12-36(2)13-15-37/h3-7,9,11,16-18H,12-15,19H2,1-2H3,(H,35,39)

>  <InChI Key>
PHXJVRSECIGDHY-UHFFFAOYSA-N

>  <BindingDB>
50322535

>  <PubChem>
24826799

>  <ChEMBL>
CHEMBL1171837

$$$$
196
Actelion Java MolfileCreator 2.0

  0  0  0  0  0  0              0 V3000
M  V30 BEGIN CTAB
M  V30 COUNTS 39 43 0 0 0
M  V30 BEGIN ATOM
M  V30 1 F 5.6961 0.366 0.0 0
M  V30 2 C 5.1961 -0.5 0.0 0
M  V30 3 F 6.0621 -1.0 0.0 0
M  V30 4 F 4.6961 -1.366 0.0 0
M  V30 5 C 4.3301 0.0 0.0 0
M  V30 6 C 4.3301 1.0 0.0 0
M  V30 7 C 3.4641 -0.4999 0.0 0
M  V30 8 C 3.4641 1.5 0.0 0
M  V30 9 C 5.1961 1.5 0.0 0
M  V30 10 C 2.598 0.0 0.0 0
M  V30 11 C 2.598 1.0 0.0 0
M  V30 12 N 5.1961 2.5 0.0 0
M  V30 13 N 1.732 -0.5 0.0 0
M  V30 14 C 6.0621 2.9999 0.0 0
M  V30 15 C 4.3301 3.0 0.0 0
M  V30 16 C 0.866 0.0 0.0 0
M  V30 17 C 6.0621 3.9999 0.0 0
M  V30 18 C 4.3301 4.0 0.0 0
M  V30 19 O 0.866 1.0 0.0 0
M  V30 20 C 0.0 -0.5 0.0 0
M  V30 21 N 5.1961 4.4999 0.0 0
M  V30 22 C -0.866 0.0 0.0 0
M  V30 23 C 0.0 -1.5 0.0 0
M  V30 24 C 5.1961 5.4999 0.0 0
M  V30 25 C -1.732 -0.4999 0.0 0
M  V30 26 C -0.866 -1.9999 0.0 0
M  V30 27 C -2.598 0.0 0.0 0
M  V30 28 C -1.732 -1.4999 0.0 0
M  V30 29 C -3.4641 0.5 0.0 0
M  V30 30 C -2.598 -1.9999 0.0 0
M  V30 31 C -4.3301 1.0 0.0 0
M  V30 32 N -4.4346 1.9945 0.0 0
M  V30 33 C -5.2436 0.5932 0.0 0
M  V30 34 N -3.7655 2.7376 0.0 0
M  V30 35 C -5.4128 2.2024 0.0 0
M  V30 36 N -5.9128 1.3364 0.0 0
M  V30 37 C -4.0745 3.6887 0.0 0
M  V30 38 C -5.7218 3.1534 0.0 0
M  V30 39 C -5.0526 3.8966 0.0 0
M  V30 END ATOM
M  V30 BEGIN BOND
M  V30 1 1 1 2
M  V30 2 1 2 3
M  V30 3 1 2 4
M  V30 4 1 2 5
M  V30 5 2 5 6
M  V30 6 1 5 7
M  V30 7 1 6 8
M  V30 8 1 6 9
M  V30 9 2 7 10
M  V30 10 2 8 11
M  V30 11 1 9 12
M  V30 12 1 10 13
M  V30 13 1 12 14
M  V30 14 1 12 15
M  V30 15 1 13 16
M  V30 16 1 14 17
M  V30 17 1 15 18
M  V30 18 2 16 19
M  V30 19 1 16 20
M  V30 20 1 17 21
M  V30 21 2 20 22
M  V30 22 1 20 23
M  V30 23 1 21 24
M  V30 24 1 22 25
M  V30 25 2 23 26
M  V30 26 1 25 27
M  V30 27 2 25 28
M  V30 28 3 27 29
M  V30 29 1 28 30
M  V30 30 1 29 31
M  V30 31 1 31 32
M  V30 32 2 31 33
M  V30 33 1 32 34
M  V30 34 1 32 35
M  V30 35 1 33 36
M  V30 36 2 34 37
M  V30 37 1 35 38
M  V30 38 1 37 39
M  V30 39 1 10 11
M  V30 40 1 18 21
M  V30 41 1 26 28
M  V30 42 2 35 36
M  V30 43 2 38 39
M  V30 END BOND
M  V30 END CTAB
M  END
>  <Molecule Name>
Compound 559

>  <Molecule Name 2>
Compound 559

>  <Compound ID>
196

>  <Name>
Ponatinib

>  <Uniprot>
P51451

>  <Target>
BLK

>  <Smiles>
CC1=CC=C(C(=O)NC2=CC=C(CN3CCN(C)CC3)C(C(F)(F)F)=C2)C=C1C#CC1=CN=C2C=CC=NN12

>  <Kd (nM)>


>  <Assay (Kd)>


>  <Ki (nM)>


>  <Assay (Ki)>


>  <IC50 (nM)>


>  <Assay (IC50)>


>  <EC50 (nM)>


>  <Assay (EC50)>


>  <Article DOI>
10.1016/j.cell.2020.10.038

>  <Molecular Weight>
532.57

>  <Exact Mass>
532.2198441

>  <XLogP3>
4.11

>  <Heavy Atom Count>
39

>  <Ring Count>
5

>  <Hydrogen Bond Acceptor Count>
6

>  <Hydrogen Bond Donor Count>
1

>  <Rotatable Bond Count>
4

>  <Topological Polar Surface Area>
65.77

>  <Molecular Formula>
C29H27F3N6O

>  <InChI>
InChI=1S/C29H27F3N6O/c1-20-5-6-22(16-21(20)8-10-25-18-33-27-4-3-11-34-38(25)27)28(39)35-24-9-7-23(26(17-24)29(30,31)32)19-37-14-12-36(2)13-15-37/h3-7,9,11,16-18H,12-15,19H2,1-2H3,(H,35,39)

>  <InChI Key>
PHXJVRSECIGDHY-UHFFFAOYSA-N

>  <BindingDB>
50322535

>  <PubChem>
24826799

>  <ChEMBL>
CHEMBL1171837

$$$$
196
Actelion Java MolfileCreator 2.0

  0  0  0  0  0  0              0 V3000
M  V30 BEGIN CTAB
M  V30 COUNTS 39 43 0 0 0
M  V30 BEGIN ATOM
M  V30 1 F 5.6961 0.366 0.0 0
M  V30 2 C 5.1961 -0.5 0.0 0
M  V30 3 F 6.0621 -1.0 0.0 0
M  V30 4 F 4.6961 -1.366 0.0 0
M  V30 5 C 4.3301 0.0 0.0 0
M  V30 6 C 4.3301 1.0 0.0 0
M  V30 7 C 3.4641 -0.4999 0.0 0
M  V30 8 C 3.4641 1.5 0.0 0
M  V30 9 C 5.1961 1.5 0.0 0
M  V30 10 C 2.598 0.0 0.0 0
M  V30 11 C 2.598 1.0 0.0 0
M  V30 12 N 5.1961 2.5 0.0 0
M  V30 13 N 1.732 -0.5 0.0 0
M  V30 14 C 6.0621 2.9999 0.0 0
M  V30 15 C 4.3301 3.0 0.0 0
M  V30 16 C 0.866 0.0 0.0 0
M  V30 17 C 6.0621 3.9999 0.0 0
M  V30 18 C 4.3301 4.0 0.0 0
M  V30 19 O 0.866 1.0 0.0 0
M  V30 20 C 0.0 -0.5 0.0 0
M  V30 21 N 5.1961 4.4999 0.0 0
M  V30 22 C -0.866 0.0 0.0 0
M  V30 23 C 0.0 -1.5 0.0 0
M  V30 24 C 5.1961 5.4999 0.0 0
M  V30 25 C -1.732 -0.4999 0.0 0
M  V30 26 C -0.866 -1.9999 0.0 0
M  V30 27 C -2.598 0.0 0.0 0
M  V30 28 C -1.732 -1.4999 0.0 0
M  V30 29 C -3.4641 0.5 0.0 0
M  V30 30 C -2.598 -1.9999 0.0 0
M  V30 31 C -4.3301 1.0 0.0 0
M  V30 32 N -4.4346 1.9945 0.0 0
M  V30 33 C -5.2436 0.5932 0.0 0
M  V30 34 N -3.7655 2.7376 0.0 0
M  V30 35 C -5.4128 2.2024 0.0 0
M  V30 36 N -5.9128 1.3364 0.0 0
M  V30 37 C -4.0745 3.6887 0.0 0
M  V30 38 C -5.7218 3.1534 0.0 0
M  V30 39 C -5.0526 3.8966 0.0 0
M  V30 END ATOM
M  V30 BEGIN BOND
M  V30 1 1 1 2
M  V30 2 1 2 3
M  V30 3 1 2 4
M  V30 4 1 2 5
M  V30 5 2 5 6
M  V30 6 1 5 7
M  V30 7 1 6 8
M  V30 8 1 6 9
M  V30 9 2 7 10
M  V30 10 2 8 11
M  V30 11 1 9 12
M  V30 12 1 10 13
M  V30 13 1 12 14
M  V30 14 1 12 15
M  V30 15 1 13 16
M  V30 16 1 14 17
M  V30 17 1 15 18
M  V30 18 2 16 19
M  V30 19 1 16 20
M  V30 20 1 17 21
M  V30 21 2 20 22
M  V30 22 1 20 23
M  V30 23 1 21 24
M  V30 24 1 22 25
M  V30 25 2 23 26
M  V30 26 1 25 27
M  V30 27 2 25 28
M  V30 28 3 27 29
M  V30 29 1 28 30
M  V30 30 1 29 31
M  V30 31 1 31 32
M  V30 32 2 31 33
M  V30 33 1 32 34
M  V30 34 1 32 35
M  V30 35 1 33 36
M  V30 36 2 34 37
M  V30 37 1 35 38
M  V30 38 1 37 39
M  V30 39 1 10 11
M  V30 40 1 18 21
M  V30 41 1 26 28
M  V30 42 2 35 36
M  V30 43 2 38 39
M  V30 END BOND
M  V30 END CTAB
M  END
>  <Molecule Name>
Compound 560

>  <Molecule Name 2>
Compound 560

>  <Compound ID>
196

>  <Name>
Ponatinib

>  <Uniprot>
O94921

>  <Target>
CDK14

>  <Smiles>
CC1=CC=C(C(=O)NC2=CC=C(CN3CCN(C)CC3)C(C(F)(F)F)=C2)C=C1C#CC1=CN=C2C=CC=NN12

>  <Kd (nM)>


>  <Assay (Kd)>


>  <Ki (nM)>


>  <Assay (Ki)>


>  <IC50 (nM)>


>  <Assay (IC50)>


>  <EC50 (nM)>


>  <Assay (EC50)>


>  <Article DOI>
10.1016/j.cell.2020.10.038

>  <Molecular Weight>
532.57

>  <Exact Mass>
532.2198441

>  <XLogP3>
4.11

>  <Heavy Atom Count>
39

>  <Ring Count>
5

>  <Hydrogen Bond Acceptor Count>
6

>  <Hydrogen Bond Donor Count>
1

>  <Rotatable Bond Count>
4

>  <Topological Polar Surface Area>
65.77

>  <Molecular Formula>
C29H27F3N6O

>  <InChI>
InChI=1S/C29H27F3N6O/c1-20-5-6-22(16-21(20)8-10-25-18-33-27-4-3-11-34-38(25)27)28(39)35-24-9-7-23(26(17-24)29(30,31)32)19-37-14-12-36(2)13-15-37/h3-7,9,11,16-18H,12-15,19H2,1-2H3,(H,35,39)

>  <InChI Key>
PHXJVRSECIGDHY-UHFFFAOYSA-N

>  <BindingDB>
50322535

>  <PubChem>
24826799

>  <ChEMBL>
CHEMBL1171837

$$$$
196
Actelion Java MolfileCreator 2.0

  0  0  0  0  0  0              0 V3000
M  V30 BEGIN CTAB
M  V30 COUNTS 39 43 0 0 0
M  V30 BEGIN ATOM
M  V30 1 F 5.6961 0.366 0.0 0
M  V30 2 C 5.1961 -0.5 0.0 0
M  V30 3 F 6.0621 -1.0 0.0 0
M  V30 4 F 4.6961 -1.366 0.0 0
M  V30 5 C 4.3301 0.0 0.0 0
M  V30 6 C 4.3301 1.0 0.0 0
M  V30 7 C 3.4641 -0.4999 0.0 0
M  V30 8 C 3.4641 1.5 0.0 0
M  V30 9 C 5.1961 1.5 0.0 0
M  V30 10 C 2.598 0.0 0.0 0
M  V30 11 C 2.598 1.0 0.0 0
M  V30 12 N 5.1961 2.5 0.0 0
M  V30 13 N 1.732 -0.5 0.0 0
M  V30 14 C 6.0621 2.9999 0.0 0
M  V30 15 C 4.3301 3.0 0.0 0
M  V30 16 C 0.866 0.0 0.0 0
M  V30 17 C 6.0621 3.9999 0.0 0
M  V30 18 C 4.3301 4.0 0.0 0
M  V30 19 O 0.866 1.0 0.0 0
M  V30 20 C 0.0 -0.5 0.0 0
M  V30 21 N 5.1961 4.4999 0.0 0
M  V30 22 C -0.866 0.0 0.0 0
M  V30 23 C 0.0 -1.5 0.0 0
M  V30 24 C 5.1961 5.4999 0.0 0
M  V30 25 C -1.732 -0.4999 0.0 0
M  V30 26 C -0.866 -1.9999 0.0 0
M  V30 27 C -2.598 0.0 0.0 0
M  V30 28 C -1.732 -1.4999 0.0 0
M  V30 29 C -3.4641 0.5 0.0 0
M  V30 30 C -2.598 -1.9999 0.0 0
M  V30 31 C -4.3301 1.0 0.0 0
M  V30 32 N -4.4346 1.9945 0.0 0
M  V30 33 C -5.2436 0.5932 0.0 0
M  V30 34 N -3.7655 2.7376 0.0 0
M  V30 35 C -5.4128 2.2024 0.0 0
M  V30 36 N -5.9128 1.3364 0.0 0
M  V30 37 C -4.0745 3.6887 0.0 0
M  V30 38 C -5.7218 3.1534 0.0 0
M  V30 39 C -5.0526 3.8966 0.0 0
M  V30 END ATOM
M  V30 BEGIN BOND
M  V30 1 1 1 2
M  V30 2 1 2 3
M  V30 3 1 2 4
M  V30 4 1 2 5
M  V30 5 2 5 6
M  V30 6 1 5 7
M  V30 7 1 6 8
M  V30 8 1 6 9
M  V30 9 2 7 10
M  V30 10 2 8 11
M  V30 11 1 9 12
M  V30 12 1 10 13
M  V30 13 1 12 14
M  V30 14 1 12 15
M  V30 15 1 13 16
M  V30 16 1 14 17
M  V30 17 1 15 18
M  V30 18 2 16 19
M  V30 19 1 16 20
M  V30 20 1 17 21
M  V30 21 2 20 22
M  V30 22 1 20 23
M  V30 23 1 21 24
M  V30 24 1 22 25
M  V30 25 2 23 26
M  V30 26 1 25 27
M  V30 27 2 25 28
M  V30 28 3 27 29
M  V30 29 1 28 30
M  V30 30 1 29 31
M  V30 31 1 31 32
M  V30 32 2 31 33
M  V30 33 1 32 34
M  V30 34 1 32 35
M  V30 35 1 33 36
M  V30 36 2 34 37
M  V30 37 1 35 38
M  V30 38 1 37 39
M  V30 39 1 10 11
M  V30 40 1 18 21
M  V30 41 1 26 28
M  V30 42 2 35 36
M  V30 43 2 38 39
M  V30 END BOND
M  V30 END CTAB
M  END
>  <Molecule Name>
Compound 561

>  <Molecule Name 2>
Compound 561

>  <Compound ID>
196

>  <Name>
Ponatinib

>  <Uniprot>
Q00537

>  <Target>
CDK17

>  <Smiles>
CC1=CC=C(C(=O)NC2=CC=C(CN3CCN(C)CC3)C(C(F)(F)F)=C2)C=C1C#CC1=CN=C2C=CC=NN12

>  <Kd (nM)>
335

>  <Assay (Kd)>
Kd apparent of CDK17

>  <Ki (nM)>


>  <Assay (Ki)>


>  <IC50 (nM)>


>  <Assay (IC50)>


>  <EC50 (nM)>


>  <Assay (EC50)>


>  <Article DOI>
10.1126/science.aan4368

>  <Molecular Weight>
532.57

>  <Exact Mass>
532.2198441

>  <XLogP3>
4.11

>  <Heavy Atom Count>
39

>  <Ring Count>
5

>  <Hydrogen Bond Acceptor Count>
6

>  <Hydrogen Bond Donor Count>
1

>  <Rotatable Bond Count>
4

>  <Topological Polar Surface Area>
65.77

>  <Molecular Formula>
C29H27F3N6O

>  <InChI>
InChI=1S/C29H27F3N6O/c1-20-5-6-22(16-21(20)8-10-25-18-33-27-4-3-11-34-38(25)27)28(39)35-24-9-7-23(26(17-24)29(30,31)32)19-37-14-12-36(2)13-15-37/h3-7,9,11,16-18H,12-15,19H2,1-2H3,(H,35,39)

>  <InChI Key>
PHXJVRSECIGDHY-UHFFFAOYSA-N

>  <BindingDB>
50322535

>  <PubChem>
24826799

>  <ChEMBL>
CHEMBL1171837

$$$$
196
Actelion Java MolfileCreator 2.0

  0  0  0  0  0  0              0 V3000
M  V30 BEGIN CTAB
M  V30 COUNTS 39 43 0 0 0
M  V30 BEGIN ATOM
M  V30 1 F 5.6961 0.366 0.0 0
M  V30 2 C 5.1961 -0.5 0.0 0
M  V30 3 F 6.0621 -1.0 0.0 0
M  V30 4 F 4.6961 -1.366 0.0 0
M  V30 5 C 4.3301 0.0 0.0 0
M  V30 6 C 4.3301 1.0 0.0 0
M  V30 7 C 3.4641 -0.4999 0.0 0
M  V30 8 C 3.4641 1.5 0.0 0
M  V30 9 C 5.1961 1.5 0.0 0
M  V30 10 C 2.598 0.0 0.0 0
M  V30 11 C 2.598 1.0 0.0 0
M  V30 12 N 5.1961 2.5 0.0 0
M  V30 13 N 1.732 -0.5 0.0 0
M  V30 14 C 6.0621 2.9999 0.0 0
M  V30 15 C 4.3301 3.0 0.0 0
M  V30 16 C 0.866 0.0 0.0 0
M  V30 17 C 6.0621 3.9999 0.0 0
M  V30 18 C 4.3301 4.0 0.0 0
M  V30 19 O 0.866 1.0 0.0 0
M  V30 20 C 0.0 -0.5 0.0 0
M  V30 21 N 5.1961 4.4999 0.0 0
M  V30 22 C -0.866 0.0 0.0 0
M  V30 23 C 0.0 -1.5 0.0 0
M  V30 24 C 5.1961 5.4999 0.0 0
M  V30 25 C -1.732 -0.4999 0.0 0
M  V30 26 C -0.866 -1.9999 0.0 0
M  V30 27 C -2.598 0.0 0.0 0
M  V30 28 C -1.732 -1.4999 0.0 0
M  V30 29 C -3.4641 0.5 0.0 0
M  V30 30 C -2.598 -1.9999 0.0 0
M  V30 31 C -4.3301 1.0 0.0 0
M  V30 32 N -4.4346 1.9945 0.0 0
M  V30 33 C -5.2436 0.5932 0.0 0
M  V30 34 N -3.7655 2.7376 0.0 0
M  V30 35 C -5.4128 2.2024 0.0 0
M  V30 36 N -5.9128 1.3364 0.0 0
M  V30 37 C -4.0745 3.6887 0.0 0
M  V30 38 C -5.7218 3.1534 0.0 0
M  V30 39 C -5.0526 3.8966 0.0 0
M  V30 END ATOM
M  V30 BEGIN BOND
M  V30 1 1 1 2
M  V30 2 1 2 3
M  V30 3 1 2 4
M  V30 4 1 2 5
M  V30 5 2 5 6
M  V30 6 1 5 7
M  V30 7 1 6 8
M  V30 8 1 6 9
M  V30 9 2 7 10
M  V30 10 2 8 11
M  V30 11 1 9 12
M  V30 12 1 10 13
M  V30 13 1 12 14
M  V30 14 1 12 15
M  V30 15 1 13 16
M  V30 16 1 14 17
M  V30 17 1 15 18
M  V30 18 2 16 19
M  V30 19 1 16 20
M  V30 20 1 17 21
M  V30 21 2 20 22
M  V30 22 1 20 23
M  V30 23 1 21 24
M  V30 24 1 22 25
M  V30 25 2 23 26
M  V30 26 1 25 27
M  V30 27 2 25 28
M  V30 28 3 27 29
M  V30 29 1 28 30
M  V30 30 1 29 31
M  V30 31 1 31 32
M  V30 32 2 31 33
M  V30 33 1 32 34
M  V30 34 1 32 35
M  V30 35 1 33 36
M  V30 36 2 34 37
M  V30 37 1 35 38
M  V30 38 1 37 39
M  V30 39 1 10 11
M  V30 40 1 18 21
M  V30 41 1 26 28
M  V30 42 2 35 36
M  V30 43 2 38 39
M  V30 END BOND
M  V30 END CTAB
M  END
>  <Molecule Name>
Compound 562

>  <Molecule Name 2>
Compound 562

>  <Compound ID>
196

>  <Name>
Ponatinib

>  <Uniprot>
P11802

>  <Target>
CDK4

>  <Smiles>
CC1=CC=C(C(=O)NC2=CC=C(CN3CCN(C)CC3)C(C(F)(F)F)=C2)C=C1C#CC1=CN=C2C=CC=NN12

>  <Kd (nM)>


>  <Assay (Kd)>


>  <Ki (nM)>


>  <Assay (Ki)>


>  <IC50 (nM)>


>  <Assay (IC50)>


>  <EC50 (nM)>


>  <Assay (EC50)>


>  <Article DOI>
10.1016/j.cell.2020.10.038

>  <Molecular Weight>
532.57

>  <Exact Mass>
532.2198441

>  <XLogP3>
4.11

>  <Heavy Atom Count>
39

>  <Ring Count>
5

>  <Hydrogen Bond Acceptor Count>
6

>  <Hydrogen Bond Donor Count>
1

>  <Rotatable Bond Count>
4

>  <Topological Polar Surface Area>
65.77

>  <Molecular Formula>
C29H27F3N6O

>  <InChI>
InChI=1S/C29H27F3N6O/c1-20-5-6-22(16-21(20)8-10-25-18-33-27-4-3-11-34-38(25)27)28(39)35-24-9-7-23(26(17-24)29(30,31)32)19-37-14-12-36(2)13-15-37/h3-7,9,11,16-18H,12-15,19H2,1-2H3,(H,35,39)

>  <InChI Key>
PHXJVRSECIGDHY-UHFFFAOYSA-N

>  <BindingDB>
50322535

>  <PubChem>
24826799

>  <ChEMBL>
CHEMBL1171837

$$$$
196
Actelion Java MolfileCreator 2.0

  0  0  0  0  0  0              0 V3000
M  V30 BEGIN CTAB
M  V30 COUNTS 39 43 0 0 0
M  V30 BEGIN ATOM
M  V30 1 F 5.6961 0.366 0.0 0
M  V30 2 C 5.1961 -0.5 0.0 0
M  V30 3 F 6.0621 -1.0 0.0 0
M  V30 4 F 4.6961 -1.366 0.0 0
M  V30 5 C 4.3301 0.0 0.0 0
M  V30 6 C 4.3301 1.0 0.0 0
M  V30 7 C 3.4641 -0.4999 0.0 0
M  V30 8 C 3.4641 1.5 0.0 0
M  V30 9 C 5.1961 1.5 0.0 0
M  V30 10 C 2.598 0.0 0.0 0
M  V30 11 C 2.598 1.0 0.0 0
M  V30 12 N 5.1961 2.5 0.0 0
M  V30 13 N 1.732 -0.5 0.0 0
M  V30 14 C 6.0621 2.9999 0.0 0
M  V30 15 C 4.3301 3.0 0.0 0
M  V30 16 C 0.866 0.0 0.0 0
M  V30 17 C 6.0621 3.9999 0.0 0
M  V30 18 C 4.3301 4.0 0.0 0
M  V30 19 O 0.866 1.0 0.0 0
M  V30 20 C 0.0 -0.5 0.0 0
M  V30 21 N 5.1961 4.4999 0.0 0
M  V30 22 C -0.866 0.0 0.0 0
M  V30 23 C 0.0 -1.5 0.0 0
M  V30 24 C 5.1961 5.4999 0.0 0
M  V30 25 C -1.732 -0.4999 0.0 0
M  V30 26 C -0.866 -1.9999 0.0 0
M  V30 27 C -2.598 0.0 0.0 0
M  V30 28 C -1.732 -1.4999 0.0 0
M  V30 29 C -3.4641 0.5 0.0 0
M  V30 30 C -2.598 -1.9999 0.0 0
M  V30 31 C -4.3301 1.0 0.0 0
M  V30 32 N -4.4346 1.9945 0.0 0
M  V30 33 C -5.2436 0.5932 0.0 0
M  V30 34 N -3.7655 2.7376 0.0 0
M  V30 35 C -5.4128 2.2024 0.0 0
M  V30 36 N -5.9128 1.3364 0.0 0
M  V30 37 C -4.0745 3.6887 0.0 0
M  V30 38 C -5.7218 3.1534 0.0 0
M  V30 39 C -5.0526 3.8966 0.0 0
M  V30 END ATOM
M  V30 BEGIN BOND
M  V30 1 1 1 2
M  V30 2 1 2 3
M  V30 3 1 2 4
M  V30 4 1 2 5
M  V30 5 2 5 6
M  V30 6 1 5 7
M  V30 7 1 6 8
M  V30 8 1 6 9
M  V30 9 2 7 10
M  V30 10 2 8 11
M  V30 11 1 9 12
M  V30 12 1 10 13
M  V30 13 1 12 14
M  V30 14 1 12 15
M  V30 15 1 13 16
M  V30 16 1 14 17
M  V30 17 1 15 18
M  V30 18 2 16 19
M  V30 19 1 16 20
M  V30 20 1 17 21
M  V30 21 2 20 22
M  V30 22 1 20 23
M  V30 23 1 21 24
M  V30 24 1 22 25
M  V30 25 2 23 26
M  V30 26 1 25 27
M  V30 27 2 25 28
M  V30 28 3 27 29
M  V30 29 1 28 30
M  V30 30 1 29 31
M  V30 31 1 31 32
M  V30 32 2 31 33
M  V30 33 1 32 34
M  V30 34 1 32 35
M  V30 35 1 33 36
M  V30 36 2 34 37
M  V30 37 1 35 38
M  V30 38 1 37 39
M  V30 39 1 10 11
M  V30 40 1 18 21
M  V30 41 1 26 28
M  V30 42 2 35 36
M  V30 43 2 38 39
M  V30 END BOND
M  V30 END CTAB
M  END
>  <Molecule Name>
Compound 563

>  <Molecule Name 2>
Compound 563

>  <Compound ID>
196

>  <Name>
Ponatinib

>  <Uniprot>
Q00535

>  <Target>
CDK5

>  <Smiles>
CC1=CC=C(C(=O)NC2=CC=C(CN3CCN(C)CC3)C(C(F)(F)F)=C2)C=C1C#CC1=CN=C2C=CC=NN12

>  <Kd (nM)>


>  <Assay (Kd)>


>  <Ki (nM)>


>  <Assay (Ki)>


>  <IC50 (nM)>


>  <Assay (IC50)>


>  <EC50 (nM)>


>  <Assay (EC50)>


>  <Article DOI>
10.1016/j.cell.2020.10.038

>  <Molecular Weight>
532.57

>  <Exact Mass>
532.2198441

>  <XLogP3>
4.11

>  <Heavy Atom Count>
39

>  <Ring Count>
5

>  <Hydrogen Bond Acceptor Count>
6

>  <Hydrogen Bond Donor Count>
1

>  <Rotatable Bond Count>
4

>  <Topological Polar Surface Area>
65.77

>  <Molecular Formula>
C29H27F3N6O

>  <InChI>
InChI=1S/C29H27F3N6O/c1-20-5-6-22(16-21(20)8-10-25-18-33-27-4-3-11-34-38(25)27)28(39)35-24-9-7-23(26(17-24)29(30,31)32)19-37-14-12-36(2)13-15-37/h3-7,9,11,16-18H,12-15,19H2,1-2H3,(H,35,39)

>  <InChI Key>
PHXJVRSECIGDHY-UHFFFAOYSA-N

>  <BindingDB>
50322535

>  <PubChem>
24826799

>  <ChEMBL>
CHEMBL1171837

$$$$
196
Actelion Java MolfileCreator 2.0

  0  0  0  0  0  0              0 V3000
M  V30 BEGIN CTAB
M  V30 COUNTS 39 43 0 0 0
M  V30 BEGIN ATOM
M  V30 1 F 5.6961 0.366 0.0 0
M  V30 2 C 5.1961 -0.5 0.0 0
M  V30 3 F 6.0621 -1.0 0.0 0
M  V30 4 F 4.6961 -1.366 0.0 0
M  V30 5 C 4.3301 0.0 0.0 0
M  V30 6 C 4.3301 1.0 0.0 0
M  V30 7 C 3.4641 -0.4999 0.0 0
M  V30 8 C 3.4641 1.5 0.0 0
M  V30 9 C 5.1961 1.5 0.0 0
M  V30 10 C 2.598 0.0 0.0 0
M  V30 11 C 2.598 1.0 0.0 0
M  V30 12 N 5.1961 2.5 0.0 0
M  V30 13 N 1.732 -0.5 0.0 0
M  V30 14 C 6.0621 2.9999 0.0 0
M  V30 15 C 4.3301 3.0 0.0 0
M  V30 16 C 0.866 0.0 0.0 0
M  V30 17 C 6.0621 3.9999 0.0 0
M  V30 18 C 4.3301 4.0 0.0 0
M  V30 19 O 0.866 1.0 0.0 0
M  V30 20 C 0.0 -0.5 0.0 0
M  V30 21 N 5.1961 4.4999 0.0 0
M  V30 22 C -0.866 0.0 0.0 0
M  V30 23 C 0.0 -1.5 0.0 0
M  V30 24 C 5.1961 5.4999 0.0 0
M  V30 25 C -1.732 -0.4999 0.0 0
M  V30 26 C -0.866 -1.9999 0.0 0
M  V30 27 C -2.598 0.0 0.0 0
M  V30 28 C -1.732 -1.4999 0.0 0
M  V30 29 C -3.4641 0.5 0.0 0
M  V30 30 C -2.598 -1.9999 0.0 0
M  V30 31 C -4.3301 1.0 0.0 0
M  V30 32 N -4.4346 1.9945 0.0 0
M  V30 33 C -5.2436 0.5932 0.0 0
M  V30 34 N -3.7655 2.7376 0.0 0
M  V30 35 C -5.4128 2.2024 0.0 0
M  V30 36 N -5.9128 1.3364 0.0 0
M  V30 37 C -4.0745 3.6887 0.0 0
M  V30 38 C -5.7218 3.1534 0.0 0
M  V30 39 C -5.0526 3.8966 0.0 0
M  V30 END ATOM
M  V30 BEGIN BOND
M  V30 1 1 1 2
M  V30 2 1 2 3
M  V30 3 1 2 4
M  V30 4 1 2 5
M  V30 5 2 5 6
M  V30 6 1 5 7
M  V30 7 1 6 8
M  V30 8 1 6 9
M  V30 9 2 7 10
M  V30 10 2 8 11
M  V30 11 1 9 12
M  V30 12 1 10 13
M  V30 13 1 12 14
M  V30 14 1 12 15
M  V30 15 1 13 16
M  V30 16 1 14 17
M  V30 17 1 15 18
M  V30 18 2 16 19
M  V30 19 1 16 20
M  V30 20 1 17 21
M  V30 21 2 20 22
M  V30 22 1 20 23
M  V30 23 1 21 24
M  V30 24 1 22 25
M  V30 25 2 23 26
M  V30 26 1 25 27
M  V30 27 2 25 28
M  V30 28 3 27 29
M  V30 29 1 28 30
M  V30 30 1 29 31
M  V30 31 1 31 32
M  V30 32 2 31 33
M  V30 33 1 32 34
M  V30 34 1 32 35
M  V30 35 1 33 36
M  V30 36 2 34 37
M  V30 37 1 35 38
M  V30 38 1 37 39
M  V30 39 1 10 11
M  V30 40 1 18 21
M  V30 41 1 26 28
M  V30 42 2 35 36
M  V30 43 2 38 39
M  V30 END BOND
M  V30 END CTAB
M  END
>  <Molecule Name>
Compound 564

>  <Molecule Name 2>
Compound 564

>  <Compound ID>
196

>  <Name>
Ponatinib

>  <Uniprot>
Q00534

>  <Target>
CDK6

>  <Smiles>
CC1=CC=C(C(=O)NC2=CC=C(CN3CCN(C)CC3)C(C(F)(F)F)=C2)C=C1C#CC1=CN=C2C=CC=NN12

>  <Kd (nM)>


>  <Assay (Kd)>


>  <Ki (nM)>


>  <Assay (Ki)>


>  <IC50 (nM)>


>  <Assay (IC50)>


>  <EC50 (nM)>


>  <Assay (EC50)>


>  <Article DOI>
10.1016/j.cell.2020.10.038

>  <Molecular Weight>
532.57

>  <Exact Mass>
532.2198441

>  <XLogP3>
4.11

>  <Heavy Atom Count>
39

>  <Ring Count>
5

>  <Hydrogen Bond Acceptor Count>
6

>  <Hydrogen Bond Donor Count>
1

>  <Rotatable Bond Count>
4

>  <Topological Polar Surface Area>
65.77

>  <Molecular Formula>
C29H27F3N6O

>  <InChI>
InChI=1S/C29H27F3N6O/c1-20-5-6-22(16-21(20)8-10-25-18-33-27-4-3-11-34-38(25)27)28(39)35-24-9-7-23(26(17-24)29(30,31)32)19-37-14-12-36(2)13-15-37/h3-7,9,11,16-18H,12-15,19H2,1-2H3,(H,35,39)

>  <InChI Key>
PHXJVRSECIGDHY-UHFFFAOYSA-N

>  <BindingDB>
50322535

>  <PubChem>
24826799

>  <ChEMBL>
CHEMBL1171837

$$$$
196
Actelion Java MolfileCreator 2.0

  0  0  0  0  0  0              0 V3000
M  V30 BEGIN CTAB
M  V30 COUNTS 39 43 0 0 0
M  V30 BEGIN ATOM
M  V30 1 F 5.6961 0.366 0.0 0
M  V30 2 C 5.1961 -0.5 0.0 0
M  V30 3 F 6.0621 -1.0 0.0 0
M  V30 4 F 4.6961 -1.366 0.0 0
M  V30 5 C 4.3301 0.0 0.0 0
M  V30 6 C 4.3301 1.0 0.0 0
M  V30 7 C 3.4641 -0.4999 0.0 0
M  V30 8 C 3.4641 1.5 0.0 0
M  V30 9 C 5.1961 1.5 0.0 0
M  V30 10 C 2.598 0.0 0.0 0
M  V30 11 C 2.598 1.0 0.0 0
M  V30 12 N 5.1961 2.5 0.0 0
M  V30 13 N 1.732 -0.5 0.0 0
M  V30 14 C 6.0621 2.9999 0.0 0
M  V30 15 C 4.3301 3.0 0.0 0
M  V30 16 C 0.866 0.0 0.0 0
M  V30 17 C 6.0621 3.9999 0.0 0
M  V30 18 C 4.3301 4.0 0.0 0
M  V30 19 O 0.866 1.0 0.0 0
M  V30 20 C 0.0 -0.5 0.0 0
M  V30 21 N 5.1961 4.4999 0.0 0
M  V30 22 C -0.866 0.0 0.0 0
M  V30 23 C 0.0 -1.5 0.0 0
M  V30 24 C 5.1961 5.4999 0.0 0
M  V30 25 C -1.732 -0.4999 0.0 0
M  V30 26 C -0.866 -1.9999 0.0 0
M  V30 27 C -2.598 0.0 0.0 0
M  V30 28 C -1.732 -1.4999 0.0 0
M  V30 29 C -3.4641 0.5 0.0 0
M  V30 30 C -2.598 -1.9999 0.0 0
M  V30 31 C -4.3301 1.0 0.0 0
M  V30 32 N -4.4346 1.9945 0.0 0
M  V30 33 C -5.2436 0.5932 0.0 0
M  V30 34 N -3.7655 2.7376 0.0 0
M  V30 35 C -5.4128 2.2024 0.0 0
M  V30 36 N -5.9128 1.3364 0.0 0
M  V30 37 C -4.0745 3.6887 0.0 0
M  V30 38 C -5.7218 3.1534 0.0 0
M  V30 39 C -5.0526 3.8966 0.0 0
M  V30 END ATOM
M  V30 BEGIN BOND
M  V30 1 1 1 2
M  V30 2 1 2 3
M  V30 3 1 2 4
M  V30 4 1 2 5
M  V30 5 2 5 6
M  V30 6 1 5 7
M  V30 7 1 6 8
M  V30 8 1 6 9
M  V30 9 2 7 10
M  V30 10 2 8 11
M  V30 11 1 9 12
M  V30 12 1 10 13
M  V30 13 1 12 14
M  V30 14 1 12 15
M  V30 15 1 13 16
M  V30 16 1 14 17
M  V30 17 1 15 18
M  V30 18 2 16 19
M  V30 19 1 16 20
M  V30 20 1 17 21
M  V30 21 2 20 22
M  V30 22 1 20 23
M  V30 23 1 21 24
M  V30 24 1 22 25
M  V30 25 2 23 26
M  V30 26 1 25 27
M  V30 27 2 25 28
M  V30 28 3 27 29
M  V30 29 1 28 30
M  V30 30 1 29 31
M  V30 31 1 31 32
M  V30 32 2 31 33
M  V30 33 1 32 34
M  V30 34 1 32 35
M  V30 35 1 33 36
M  V30 36 2 34 37
M  V30 37 1 35 38
M  V30 38 1 37 39
M  V30 39 1 10 11
M  V30 40 1 18 21
M  V30 41 1 26 28
M  V30 42 2 35 36
M  V30 43 2 38 39
M  V30 END BOND
M  V30 END CTAB
M  END
>  <Molecule Name>
Compound 565

>  <Molecule Name 2>
Compound 565

>  <Compound ID>
196

>  <Name>
Ponatinib

>  <Uniprot>
Q8NI60

>  <Target>
COQ8A

>  <Smiles>
CC1=CC=C(C(=O)NC2=CC=C(CN3CCN(C)CC3)C(C(F)(F)F)=C2)C=C1C#CC1=CN=C2C=CC=NN12

>  <Kd (nM)>


>  <Assay (Kd)>


>  <Ki (nM)>


>  <Assay (Ki)>


>  <IC50 (nM)>


>  <Assay (IC50)>


>  <EC50 (nM)>


>  <Assay (EC50)>


>  <Article DOI>
10.1016/j.cell.2020.10.038

>  <Molecular Weight>
532.57

>  <Exact Mass>
532.2198441

>  <XLogP3>
4.11

>  <Heavy Atom Count>
39

>  <Ring Count>
5

>  <Hydrogen Bond Acceptor Count>
6

>  <Hydrogen Bond Donor Count>
1

>  <Rotatable Bond Count>
4

>  <Topological Polar Surface Area>
65.77

>  <Molecular Formula>
C29H27F3N6O

>  <InChI>
InChI=1S/C29H27F3N6O/c1-20-5-6-22(16-21(20)8-10-25-18-33-27-4-3-11-34-38(25)27)28(39)35-24-9-7-23(26(17-24)29(30,31)32)19-37-14-12-36(2)13-15-37/h3-7,9,11,16-18H,12-15,19H2,1-2H3,(H,35,39)

>  <InChI Key>
PHXJVRSECIGDHY-UHFFFAOYSA-N

>  <BindingDB>
50322535

>  <PubChem>
24826799

>  <ChEMBL>
CHEMBL1171837

$$$$
196
Actelion Java MolfileCreator 2.0

  0  0  0  0  0  0              0 V3000
M  V30 BEGIN CTAB
M  V30 COUNTS 39 43 0 0 0
M  V30 BEGIN ATOM
M  V30 1 F 5.6961 0.366 0.0 0
M  V30 2 C 5.1961 -0.5 0.0 0
M  V30 3 F 6.0621 -1.0 0.0 0
M  V30 4 F 4.6961 -1.366 0.0 0
M  V30 5 C 4.3301 0.0 0.0 0
M  V30 6 C 4.3301 1.0 0.0 0
M  V30 7 C 3.4641 -0.4999 0.0 0
M  V30 8 C 3.4641 1.5 0.0 0
M  V30 9 C 5.1961 1.5 0.0 0
M  V30 10 C 2.598 0.0 0.0 0
M  V30 11 C 2.598 1.0 0.0 0
M  V30 12 N 5.1961 2.5 0.0 0
M  V30 13 N 1.732 -0.5 0.0 0
M  V30 14 C 6.0621 2.9999 0.0 0
M  V30 15 C 4.3301 3.0 0.0 0
M  V30 16 C 0.866 0.0 0.0 0
M  V30 17 C 6.0621 3.9999 0.0 0
M  V30 18 C 4.3301 4.0 0.0 0
M  V30 19 O 0.866 1.0 0.0 0
M  V30 20 C 0.0 -0.5 0.0 0
M  V30 21 N 5.1961 4.4999 0.0 0
M  V30 22 C -0.866 0.0 0.0 0
M  V30 23 C 0.0 -1.5 0.0 0
M  V30 24 C 5.1961 5.4999 0.0 0
M  V30 25 C -1.732 -0.4999 0.0 0
M  V30 26 C -0.866 -1.9999 0.0 0
M  V30 27 C -2.598 0.0 0.0 0
M  V30 28 C -1.732 -1.4999 0.0 0
M  V30 29 C -3.4641 0.5 0.0 0
M  V30 30 C -2.598 -1.9999 0.0 0
M  V30 31 C -4.3301 1.0 0.0 0
M  V30 32 N -4.4346 1.9945 0.0 0
M  V30 33 C -5.2436 0.5932 0.0 0
M  V30 34 N -3.7655 2.7376 0.0 0
M  V30 35 C -5.4128 2.2024 0.0 0
M  V30 36 N -5.9128 1.3364 0.0 0
M  V30 37 C -4.0745 3.6887 0.0 0
M  V30 38 C -5.7218 3.1534 0.0 0
M  V30 39 C -5.0526 3.8966 0.0 0
M  V30 END ATOM
M  V30 BEGIN BOND
M  V30 1 1 1 2
M  V30 2 1 2 3
M  V30 3 1 2 4
M  V30 4 1 2 5
M  V30 5 2 5 6
M  V30 6 1 5 7
M  V30 7 1 6 8
M  V30 8 1 6 9
M  V30 9 2 7 10
M  V30 10 2 8 11
M  V30 11 1 9 12
M  V30 12 1 10 13
M  V30 13 1 12 14
M  V30 14 1 12 15
M  V30 15 1 13 16
M  V30 16 1 14 17
M  V30 17 1 15 18
M  V30 18 2 16 19
M  V30 19 1 16 20
M  V30 20 1 17 21
M  V30 21 2 20 22
M  V30 22 1 20 23
M  V30 23 1 21 24
M  V30 24 1 22 25
M  V30 25 2 23 26
M  V30 26 1 25 27
M  V30 27 2 25 28
M  V30 28 3 27 29
M  V30 29 1 28 30
M  V30 30 1 29 31
M  V30 31 1 31 32
M  V30 32 2 31 33
M  V30 33 1 32 34
M  V30 34 1 32 35
M  V30 35 1 33 36
M  V30 36 2 34 37
M  V30 37 1 35 38
M  V30 38 1 37 39
M  V30 39 1 10 11
M  V30 40 1 18 21
M  V30 41 1 26 28
M  V30 42 2 35 36
M  V30 43 2 38 39
M  V30 END BOND
M  V30 END CTAB
M  END
>  <Molecule Name>
Compound 566

>  <Molecule Name 2>
Compound 566

>  <Compound ID>
196

>  <Name>
Ponatinib

>  <Uniprot>
P21709

>  <Target>
EPHA1

>  <Smiles>
CC1=CC=C(C(=O)NC2=CC=C(CN3CCN(C)CC3)C(C(F)(F)F)=C2)C=C1C#CC1=CN=C2C=CC=NN12

>  <Kd (nM)>


>  <Assay (Kd)>


>  <Ki (nM)>


>  <Assay (Ki)>


>  <IC50 (nM)>


>  <Assay (IC50)>


>  <EC50 (nM)>


>  <Assay (EC50)>


>  <Article DOI>
10.1016/j.cell.2020.10.038

>  <Molecular Weight>
532.57

>  <Exact Mass>
532.2198441

>  <XLogP3>
4.11

>  <Heavy Atom Count>
39

>  <Ring Count>
5

>  <Hydrogen Bond Acceptor Count>
6

>  <Hydrogen Bond Donor Count>
1

>  <Rotatable Bond Count>
4

>  <Topological Polar Surface Area>
65.77

>  <Molecular Formula>
C29H27F3N6O

>  <InChI>
InChI=1S/C29H27F3N6O/c1-20-5-6-22(16-21(20)8-10-25-18-33-27-4-3-11-34-38(25)27)28(39)35-24-9-7-23(26(17-24)29(30,31)32)19-37-14-12-36(2)13-15-37/h3-7,9,11,16-18H,12-15,19H2,1-2H3,(H,35,39)

>  <InChI Key>
PHXJVRSECIGDHY-UHFFFAOYSA-N

>  <BindingDB>
50322535

>  <PubChem>
24826799

>  <ChEMBL>
CHEMBL1171837

$$$$
196
Actelion Java MolfileCreator 2.0

  0  0  0  0  0  0              0 V3000
M  V30 BEGIN CTAB
M  V30 COUNTS 39 43 0 0 0
M  V30 BEGIN ATOM
M  V30 1 F 5.6961 0.366 0.0 0
M  V30 2 C 5.1961 -0.5 0.0 0
M  V30 3 F 6.0621 -1.0 0.0 0
M  V30 4 F 4.6961 -1.366 0.0 0
M  V30 5 C 4.3301 0.0 0.0 0
M  V30 6 C 4.3301 1.0 0.0 0
M  V30 7 C 3.4641 -0.4999 0.0 0
M  V30 8 C 3.4641 1.5 0.0 0
M  V30 9 C 5.1961 1.5 0.0 0
M  V30 10 C 2.598 0.0 0.0 0
M  V30 11 C 2.598 1.0 0.0 0
M  V30 12 N 5.1961 2.5 0.0 0
M  V30 13 N 1.732 -0.5 0.0 0
M  V30 14 C 6.0621 2.9999 0.0 0
M  V30 15 C 4.3301 3.0 0.0 0
M  V30 16 C 0.866 0.0 0.0 0
M  V30 17 C 6.0621 3.9999 0.0 0
M  V30 18 C 4.3301 4.0 0.0 0
M  V30 19 O 0.866 1.0 0.0 0
M  V30 20 C 0.0 -0.5 0.0 0
M  V30 21 N 5.1961 4.4999 0.0 0
M  V30 22 C -0.866 0.0 0.0 0
M  V30 23 C 0.0 -1.5 0.0 0
M  V30 24 C 5.1961 5.4999 0.0 0
M  V30 25 C -1.732 -0.4999 0.0 0
M  V30 26 C -0.866 -1.9999 0.0 0
M  V30 27 C -2.598 0.0 0.0 0
M  V30 28 C -1.732 -1.4999 0.0 0
M  V30 29 C -3.4641 0.5 0.0 0
M  V30 30 C -2.598 -1.9999 0.0 0
M  V30 31 C -4.3301 1.0 0.0 0
M  V30 32 N -4.4346 1.9945 0.0 0
M  V30 33 C -5.2436 0.5932 0.0 0
M  V30 34 N -3.7655 2.7376 0.0 0
M  V30 35 C -5.4128 2.2024 0.0 0
M  V30 36 N -5.9128 1.3364 0.0 0
M  V30 37 C -4.0745 3.6887 0.0 0
M  V30 38 C -5.7218 3.1534 0.0 0
M  V30 39 C -5.0526 3.8966 0.0 0
M  V30 END ATOM
M  V30 BEGIN BOND
M  V30 1 1 1 2
M  V30 2 1 2 3
M  V30 3 1 2 4
M  V30 4 1 2 5
M  V30 5 2 5 6
M  V30 6 1 5 7
M  V30 7 1 6 8
M  V30 8 1 6 9
M  V30 9 2 7 10
M  V30 10 2 8 11
M  V30 11 1 9 12
M  V30 12 1 10 13
M  V30 13 1 12 14
M  V30 14 1 12 15
M  V30 15 1 13 16
M  V30 16 1 14 17
M  V30 17 1 15 18
M  V30 18 2 16 19
M  V30 19 1 16 20
M  V30 20 1 17 21
M  V30 21 2 20 22
M  V30 22 1 20 23
M  V30 23 1 21 24
M  V30 24 1 22 25
M  V30 25 2 23 26
M  V30 26 1 25 27
M  V30 27 2 25 28
M  V30 28 3 27 29
M  V30 29 1 28 30
M  V30 30 1 29 31
M  V30 31 1 31 32
M  V30 32 2 31 33
M  V30 33 1 32 34
M  V30 34 1 32 35
M  V30 35 1 33 36
M  V30 36 2 34 37
M  V30 37 1 35 38
M  V30 38 1 37 39
M  V30 39 1 10 11
M  V30 40 1 18 21
M  V30 41 1 26 28
M  V30 42 2 35 36
M  V30 43 2 38 39
M  V30 END BOND
M  V30 END CTAB
M  END
>  <Molecule Name>
Compound 567

>  <Molecule Name 2>
Compound 567

>  <Compound ID>
196

>  <Name>
Ponatinib

>  <Uniprot>
P29317

>  <Target>
EPHA2

>  <Smiles>
CC1=CC=C(C(=O)NC2=CC=C(CN3CCN(C)CC3)C(C(F)(F)F)=C2)C=C1C#CC1=CN=C2C=CC=NN12

>  <Kd (nM)>


>  <Assay (Kd)>


>  <Ki (nM)>


>  <Assay (Ki)>


>  <IC50 (nM)>


>  <Assay (IC50)>


>  <EC50 (nM)>


>  <Assay (EC50)>


>  <Article DOI>
10.1016/j.cell.2020.10.038

>  <Molecular Weight>
532.57

>  <Exact Mass>
532.2198441

>  <XLogP3>
4.11

>  <Heavy Atom Count>
39

>  <Ring Count>
5

>  <Hydrogen Bond Acceptor Count>
6

>  <Hydrogen Bond Donor Count>
1

>  <Rotatable Bond Count>
4

>  <Topological Polar Surface Area>
65.77

>  <Molecular Formula>
C29H27F3N6O

>  <InChI>
InChI=1S/C29H27F3N6O/c1-20-5-6-22(16-21(20)8-10-25-18-33-27-4-3-11-34-38(25)27)28(39)35-24-9-7-23(26(17-24)29(30,31)32)19-37-14-12-36(2)13-15-37/h3-7,9,11,16-18H,12-15,19H2,1-2H3,(H,35,39)

>  <InChI Key>
PHXJVRSECIGDHY-UHFFFAOYSA-N

>  <BindingDB>
50322535

>  <PubChem>
24826799

>  <ChEMBL>
CHEMBL1171837

$$$$
196
Actelion Java MolfileCreator 2.0

  0  0  0  0  0  0              0 V3000
M  V30 BEGIN CTAB
M  V30 COUNTS 39 43 0 0 0
M  V30 BEGIN ATOM
M  V30 1 F 5.6961 0.366 0.0 0
M  V30 2 C 5.1961 -0.5 0.0 0
M  V30 3 F 6.0621 -1.0 0.0 0
M  V30 4 F 4.6961 -1.366 0.0 0
M  V30 5 C 4.3301 0.0 0.0 0
M  V30 6 C 4.3301 1.0 0.0 0
M  V30 7 C 3.4641 -0.4999 0.0 0
M  V30 8 C 3.4641 1.5 0.0 0
M  V30 9 C 5.1961 1.5 0.0 0
M  V30 10 C 2.598 0.0 0.0 0
M  V30 11 C 2.598 1.0 0.0 0
M  V30 12 N 5.1961 2.5 0.0 0
M  V30 13 N 1.732 -0.5 0.0 0
M  V30 14 C 6.0621 2.9999 0.0 0
M  V30 15 C 4.3301 3.0 0.0 0
M  V30 16 C 0.866 0.0 0.0 0
M  V30 17 C 6.0621 3.9999 0.0 0
M  V30 18 C 4.3301 4.0 0.0 0
M  V30 19 O 0.866 1.0 0.0 0
M  V30 20 C 0.0 -0.5 0.0 0
M  V30 21 N 5.1961 4.4999 0.0 0
M  V30 22 C -0.866 0.0 0.0 0
M  V30 23 C 0.0 -1.5 0.0 0
M  V30 24 C 5.1961 5.4999 0.0 0
M  V30 25 C -1.732 -0.4999 0.0 0
M  V30 26 C -0.866 -1.9999 0.0 0
M  V30 27 C -2.598 0.0 0.0 0
M  V30 28 C -1.732 -1.4999 0.0 0
M  V30 29 C -3.4641 0.5 0.0 0
M  V30 30 C -2.598 -1.9999 0.0 0
M  V30 31 C -4.3301 1.0 0.0 0
M  V30 32 N -4.4346 1.9945 0.0 0
M  V30 33 C -5.2436 0.5932 0.0 0
M  V30 34 N -3.7655 2.7376 0.0 0
M  V30 35 C -5.4128 2.2024 0.0 0
M  V30 36 N -5.9128 1.3364 0.0 0
M  V30 37 C -4.0745 3.6887 0.0 0
M  V30 38 C -5.7218 3.1534 0.0 0
M  V30 39 C -5.0526 3.8966 0.0 0
M  V30 END ATOM
M  V30 BEGIN BOND
M  V30 1 1 1 2
M  V30 2 1 2 3
M  V30 3 1 2 4
M  V30 4 1 2 5
M  V30 5 2 5 6
M  V30 6 1 5 7
M  V30 7 1 6 8
M  V30 8 1 6 9
M  V30 9 2 7 10
M  V30 10 2 8 11
M  V30 11 1 9 12
M  V30 12 1 10 13
M  V30 13 1 12 14
M  V30 14 1 12 15
M  V30 15 1 13 16
M  V30 16 1 14 17
M  V30 17 1 15 18
M  V30 18 2 16 19
M  V30 19 1 16 20
M  V30 20 1 17 21
M  V30 21 2 20 22
M  V30 22 1 20 23
M  V30 23 1 21 24
M  V30 24 1 22 25
M  V30 25 2 23 26
M  V30 26 1 25 27
M  V30 27 2 25 28
M  V30 28 3 27 29
M  V30 29 1 28 30
M  V30 30 1 29 31
M  V30 31 1 31 32
M  V30 32 2 31 33
M  V30 33 1 32 34
M  V30 34 1 32 35
M  V30 35 1 33 36
M  V30 36 2 34 37
M  V30 37 1 35 38
M  V30 38 1 37 39
M  V30 39 1 10 11
M  V30 40 1 18 21
M  V30 41 1 26 28
M  V30 42 2 35 36
M  V30 43 2 38 39
M  V30 END BOND
M  V30 END CTAB
M  END
>  <Molecule Name>
Compound 568

>  <Molecule Name 2>
Compound 568

>  <Compound ID>
196

>  <Name>
Ponatinib

>  <Uniprot>
P16591

>  <Target>
FER

>  <Smiles>
CC1=CC=C(C(=O)NC2=CC=C(CN3CCN(C)CC3)C(C(F)(F)F)=C2)C=C1C#CC1=CN=C2C=CC=NN12

>  <Kd (nM)>
>30000

>  <Assay (Kd)>
Kd apparent of FER

>  <Ki (nM)>


>  <Assay (Ki)>


>  <IC50 (nM)>


>  <Assay (IC50)>


>  <EC50 (nM)>


>  <Assay (EC50)>


>  <Article DOI>
10.1126/science.aan4368

>  <Molecular Weight>
532.57

>  <Exact Mass>
532.2198441

>  <XLogP3>
4.11

>  <Heavy Atom Count>
39

>  <Ring Count>
5

>  <Hydrogen Bond Acceptor Count>
6

>  <Hydrogen Bond Donor Count>
1

>  <Rotatable Bond Count>
4

>  <Topological Polar Surface Area>
65.77

>  <Molecular Formula>
C29H27F3N6O

>  <InChI>
InChI=1S/C29H27F3N6O/c1-20-5-6-22(16-21(20)8-10-25-18-33-27-4-3-11-34-38(25)27)28(39)35-24-9-7-23(26(17-24)29(30,31)32)19-37-14-12-36(2)13-15-37/h3-7,9,11,16-18H,12-15,19H2,1-2H3,(H,35,39)

>  <InChI Key>
PHXJVRSECIGDHY-UHFFFAOYSA-N

>  <BindingDB>
50322535

>  <PubChem>
24826799

>  <ChEMBL>
CHEMBL1171837

$$$$
196
Actelion Java MolfileCreator 2.0

  0  0  0  0  0  0              0 V3000
M  V30 BEGIN CTAB
M  V30 COUNTS 39 43 0 0 0
M  V30 BEGIN ATOM
M  V30 1 F 5.6961 0.366 0.0 0
M  V30 2 C 5.1961 -0.5 0.0 0
M  V30 3 F 6.0621 -1.0 0.0 0
M  V30 4 F 4.6961 -1.366 0.0 0
M  V30 5 C 4.3301 0.0 0.0 0
M  V30 6 C 4.3301 1.0 0.0 0
M  V30 7 C 3.4641 -0.4999 0.0 0
M  V30 8 C 3.4641 1.5 0.0 0
M  V30 9 C 5.1961 1.5 0.0 0
M  V30 10 C 2.598 0.0 0.0 0
M  V30 11 C 2.598 1.0 0.0 0
M  V30 12 N 5.1961 2.5 0.0 0
M  V30 13 N 1.732 -0.5 0.0 0
M  V30 14 C 6.0621 2.9999 0.0 0
M  V30 15 C 4.3301 3.0 0.0 0
M  V30 16 C 0.866 0.0 0.0 0
M  V30 17 C 6.0621 3.9999 0.0 0
M  V30 18 C 4.3301 4.0 0.0 0
M  V30 19 O 0.866 1.0 0.0 0
M  V30 20 C 0.0 -0.5 0.0 0
M  V30 21 N 5.1961 4.4999 0.0 0
M  V30 22 C -0.866 0.0 0.0 0
M  V30 23 C 0.0 -1.5 0.0 0
M  V30 24 C 5.1961 5.4999 0.0 0
M  V30 25 C -1.732 -0.4999 0.0 0
M  V30 26 C -0.866 -1.9999 0.0 0
M  V30 27 C -2.598 0.0 0.0 0
M  V30 28 C -1.732 -1.4999 0.0 0
M  V30 29 C -3.4641 0.5 0.0 0
M  V30 30 C -2.598 -1.9999 0.0 0
M  V30 31 C -4.3301 1.0 0.0 0
M  V30 32 N -4.4346 1.9945 0.0 0
M  V30 33 C -5.2436 0.5932 0.0 0
M  V30 34 N -3.7655 2.7376 0.0 0
M  V30 35 C -5.4128 2.2024 0.0 0
M  V30 36 N -5.9128 1.3364 0.0 0
M  V30 37 C -4.0745 3.6887 0.0 0
M  V30 38 C -5.7218 3.1534 0.0 0
M  V30 39 C -5.0526 3.8966 0.0 0
M  V30 END ATOM
M  V30 BEGIN BOND
M  V30 1 1 1 2
M  V30 2 1 2 3
M  V30 3 1 2 4
M  V30 4 1 2 5
M  V30 5 2 5 6
M  V30 6 1 5 7
M  V30 7 1 6 8
M  V30 8 1 6 9
M  V30 9 2 7 10
M  V30 10 2 8 11
M  V30 11 1 9 12
M  V30 12 1 10 13
M  V30 13 1 12 14
M  V30 14 1 12 15
M  V30 15 1 13 16
M  V30 16 1 14 17
M  V30 17 1 15 18
M  V30 18 2 16 19
M  V30 19 1 16 20
M  V30 20 1 17 21
M  V30 21 2 20 22
M  V30 22 1 20 23
M  V30 23 1 21 24
M  V30 24 1 22 25
M  V30 25 2 23 26
M  V30 26 1 25 27
M  V30 27 2 25 28
M  V30 28 3 27 29
M  V30 29 1 28 30
M  V30 30 1 29 31
M  V30 31 1 31 32
M  V30 32 2 31 33
M  V30 33 1 32 34
M  V30 34 1 32 35
M  V30 35 1 33 36
M  V30 36 2 34 37
M  V30 37 1 35 38
M  V30 38 1 37 39
M  V30 39 1 10 11
M  V30 40 1 18 21
M  V30 41 1 26 28
M  V30 42 2 35 36
M  V30 43 2 38 39
M  V30 END BOND
M  V30 END CTAB
M  END
>  <Molecule Name>
Compound 569

>  <Molecule Name 2>
Compound 569

>  <Compound ID>
196

>  <Name>
Ponatinib

>  <Uniprot>
P06241

>  <Target>
FYN

>  <Smiles>
CC1=CC=C(C(=O)NC2=CC=C(CN3CCN(C)CC3)C(C(F)(F)F)=C2)C=C1C#CC1=CN=C2C=CC=NN12

>  <Kd (nM)>
36

>  <Assay (Kd)>
Kd apparent of FYN

>  <Ki (nM)>


>  <Assay (Ki)>


>  <IC50 (nM)>


>  <Assay (IC50)>


>  <EC50 (nM)>


>  <Assay (EC50)>


>  <Article DOI>
10.1126/science.aan4368

>  <Molecular Weight>
532.57

>  <Exact Mass>
532.2198441

>  <XLogP3>
4.11

>  <Heavy Atom Count>
39

>  <Ring Count>
5

>  <Hydrogen Bond Acceptor Count>
6

>  <Hydrogen Bond Donor Count>
1

>  <Rotatable Bond Count>
4

>  <Topological Polar Surface Area>
65.77

>  <Molecular Formula>
C29H27F3N6O

>  <InChI>
InChI=1S/C29H27F3N6O/c1-20-5-6-22(16-21(20)8-10-25-18-33-27-4-3-11-34-38(25)27)28(39)35-24-9-7-23(26(17-24)29(30,31)32)19-37-14-12-36(2)13-15-37/h3-7,9,11,16-18H,12-15,19H2,1-2H3,(H,35,39)

>  <InChI Key>
PHXJVRSECIGDHY-UHFFFAOYSA-N

>  <BindingDB>
50322535

>  <PubChem>
24826799

>  <ChEMBL>
CHEMBL1171837

$$$$
196
Actelion Java MolfileCreator 2.0

  0  0  0  0  0  0              0 V3000
M  V30 BEGIN CTAB
M  V30 COUNTS 39 43 0 0 0
M  V30 BEGIN ATOM
M  V30 1 F 5.6961 0.366 0.0 0
M  V30 2 C 5.1961 -0.5 0.0 0
M  V30 3 F 6.0621 -1.0 0.0 0
M  V30 4 F 4.6961 -1.366 0.0 0
M  V30 5 C 4.3301 0.0 0.0 0
M  V30 6 C 4.3301 1.0 0.0 0
M  V30 7 C 3.4641 -0.4999 0.0 0
M  V30 8 C 3.4641 1.5 0.0 0
M  V30 9 C 5.1961 1.5 0.0 0
M  V30 10 C 2.598 0.0 0.0 0
M  V30 11 C 2.598 1.0 0.0 0
M  V30 12 N 5.1961 2.5 0.0 0
M  V30 13 N 1.732 -0.5 0.0 0
M  V30 14 C 6.0621 2.9999 0.0 0
M  V30 15 C 4.3301 3.0 0.0 0
M  V30 16 C 0.866 0.0 0.0 0
M  V30 17 C 6.0621 3.9999 0.0 0
M  V30 18 C 4.3301 4.0 0.0 0
M  V30 19 O 0.866 1.0 0.0 0
M  V30 20 C 0.0 -0.5 0.0 0
M  V30 21 N 5.1961 4.4999 0.0 0
M  V30 22 C -0.866 0.0 0.0 0
M  V30 23 C 0.0 -1.5 0.0 0
M  V30 24 C 5.1961 5.4999 0.0 0
M  V30 25 C -1.732 -0.4999 0.0 0
M  V30 26 C -0.866 -1.9999 0.0 0
M  V30 27 C -2.598 0.0 0.0 0
M  V30 28 C -1.732 -1.4999 0.0 0
M  V30 29 C -3.4641 0.5 0.0 0
M  V30 30 C -2.598 -1.9999 0.0 0
M  V30 31 C -4.3301 1.0 0.0 0
M  V30 32 N -4.4346 1.9945 0.0 0
M  V30 33 C -5.2436 0.5932 0.0 0
M  V30 34 N -3.7655 2.7376 0.0 0
M  V30 35 C -5.4128 2.2024 0.0 0
M  V30 36 N -5.9128 1.3364 0.0 0
M  V30 37 C -4.0745 3.6887 0.0 0
M  V30 38 C -5.7218 3.1534 0.0 0
M  V30 39 C -5.0526 3.8966 0.0 0
M  V30 END ATOM
M  V30 BEGIN BOND
M  V30 1 1 1 2
M  V30 2 1 2 3
M  V30 3 1 2 4
M  V30 4 1 2 5
M  V30 5 2 5 6
M  V30 6 1 5 7
M  V30 7 1 6 8
M  V30 8 1 6 9
M  V30 9 2 7 10
M  V30 10 2 8 11
M  V30 11 1 9 12
M  V30 12 1 10 13
M  V30 13 1 12 14
M  V30 14 1 12 15
M  V30 15 1 13 16
M  V30 16 1 14 17
M  V30 17 1 15 18
M  V30 18 2 16 19
M  V30 19 1 16 20
M  V30 20 1 17 21
M  V30 21 2 20 22
M  V30 22 1 20 23
M  V30 23 1 21 24
M  V30 24 1 22 25
M  V30 25 2 23 26
M  V30 26 1 25 27
M  V30 27 2 25 28
M  V30 28 3 27 29
M  V30 29 1 28 30
M  V30 30 1 29 31
M  V30 31 1 31 32
M  V30 32 2 31 33
M  V30 33 1 32 34
M  V30 34 1 32 35
M  V30 35 1 33 36
M  V30 36 2 34 37
M  V30 37 1 35 38
M  V30 38 1 37 39
M  V30 39 1 10 11
M  V30 40 1 18 21
M  V30 41 1 26 28
M  V30 42 2 35 36
M  V30 43 2 38 39
M  V30 END BOND
M  V30 END CTAB
M  END
>  <Molecule Name>
Compound 570

>  <Molecule Name 2>
Compound 570

>  <Compound ID>
196

>  <Name>
Ponatinib

>  <Uniprot>
O14976

>  <Target>
GAK

>  <Smiles>
CC1=CC=C(C(=O)NC2=CC=C(CN3CCN(C)CC3)C(C(F)(F)F)=C2)C=C1C#CC1=CN=C2C=CC=NN12

>  <Kd (nM)>
1862

>  <Assay (Kd)>
Kd apparent of GAK

>  <Ki (nM)>


>  <Assay (Ki)>


>  <IC50 (nM)>


>  <Assay (IC50)>


>  <EC50 (nM)>


>  <Assay (EC50)>


>  <Article DOI>
10.1126/science.aan4368

>  <Molecular Weight>
532.57

>  <Exact Mass>
532.2198441

>  <XLogP3>
4.11

>  <Heavy Atom Count>
39

>  <Ring Count>
5

>  <Hydrogen Bond Acceptor Count>
6

>  <Hydrogen Bond Donor Count>
1

>  <Rotatable Bond Count>
4

>  <Topological Polar Surface Area>
65.77

>  <Molecular Formula>
C29H27F3N6O

>  <InChI>
InChI=1S/C29H27F3N6O/c1-20-5-6-22(16-21(20)8-10-25-18-33-27-4-3-11-34-38(25)27)28(39)35-24-9-7-23(26(17-24)29(30,31)32)19-37-14-12-36(2)13-15-37/h3-7,9,11,16-18H,12-15,19H2,1-2H3,(H,35,39)

>  <InChI Key>
PHXJVRSECIGDHY-UHFFFAOYSA-N

>  <BindingDB>
50322535

>  <PubChem>
24826799

>  <ChEMBL>
CHEMBL1171837

$$$$
196
Actelion Java MolfileCreator 2.0

  0  0  0  0  0  0              0 V3000
M  V30 BEGIN CTAB
M  V30 COUNTS 39 43 0 0 0
M  V30 BEGIN ATOM
M  V30 1 F 5.6961 0.366 0.0 0
M  V30 2 C 5.1961 -0.5 0.0 0
M  V30 3 F 6.0621 -1.0 0.0 0
M  V30 4 F 4.6961 -1.366 0.0 0
M  V30 5 C 4.3301 0.0 0.0 0
M  V30 6 C 4.3301 1.0 0.0 0
M  V30 7 C 3.4641 -0.4999 0.0 0
M  V30 8 C 3.4641 1.5 0.0 0
M  V30 9 C 5.1961 1.5 0.0 0
M  V30 10 C 2.598 0.0 0.0 0
M  V30 11 C 2.598 1.0 0.0 0
M  V30 12 N 5.1961 2.5 0.0 0
M  V30 13 N 1.732 -0.5 0.0 0
M  V30 14 C 6.0621 2.9999 0.0 0
M  V30 15 C 4.3301 3.0 0.0 0
M  V30 16 C 0.866 0.0 0.0 0
M  V30 17 C 6.0621 3.9999 0.0 0
M  V30 18 C 4.3301 4.0 0.0 0
M  V30 19 O 0.866 1.0 0.0 0
M  V30 20 C 0.0 -0.5 0.0 0
M  V30 21 N 5.1961 4.4999 0.0 0
M  V30 22 C -0.866 0.0 0.0 0
M  V30 23 C 0.0 -1.5 0.0 0
M  V30 24 C 5.1961 5.4999 0.0 0
M  V30 25 C -1.732 -0.4999 0.0 0
M  V30 26 C -0.866 -1.9999 0.0 0
M  V30 27 C -2.598 0.0 0.0 0
M  V30 28 C -1.732 -1.4999 0.0 0
M  V30 29 C -3.4641 0.5 0.0 0
M  V30 30 C -2.598 -1.9999 0.0 0
M  V30 31 C -4.3301 1.0 0.0 0
M  V30 32 N -4.4346 1.9945 0.0 0
M  V30 33 C -5.2436 0.5932 0.0 0
M  V30 34 N -3.7655 2.7376 0.0 0
M  V30 35 C -5.4128 2.2024 0.0 0
M  V30 36 N -5.9128 1.3364 0.0 0
M  V30 37 C -4.0745 3.6887 0.0 0
M  V30 38 C -5.7218 3.1534 0.0 0
M  V30 39 C -5.0526 3.8966 0.0 0
M  V30 END ATOM
M  V30 BEGIN BOND
M  V30 1 1 1 2
M  V30 2 1 2 3
M  V30 3 1 2 4
M  V30 4 1 2 5
M  V30 5 2 5 6
M  V30 6 1 5 7
M  V30 7 1 6 8
M  V30 8 1 6 9
M  V30 9 2 7 10
M  V30 10 2 8 11
M  V30 11 1 9 12
M  V30 12 1 10 13
M  V30 13 1 12 14
M  V30 14 1 12 15
M  V30 15 1 13 16
M  V30 16 1 14 17
M  V30 17 1 15 18
M  V30 18 2 16 19
M  V30 19 1 16 20
M  V30 20 1 17 21
M  V30 21 2 20 22
M  V30 22 1 20 23
M  V30 23 1 21 24
M  V30 24 1 22 25
M  V30 25 2 23 26
M  V30 26 1 25 27
M  V30 27 2 25 28
M  V30 28 3 27 29
M  V30 29 1 28 30
M  V30 30 1 29 31
M  V30 31 1 31 32
M  V30 32 2 31 33
M  V30 33 1 32 34
M  V30 34 1 32 35
M  V30 35 1 33 36
M  V30 36 2 34 37
M  V30 37 1 35 38
M  V30 38 1 37 39
M  V30 39 1 10 11
M  V30 40 1 18 21
M  V30 41 1 26 28
M  V30 42 2 35 36
M  V30 43 2 38 39
M  V30 END BOND
M  V30 END CTAB
M  END
>  <Molecule Name>
Compound 571

>  <Molecule Name 2>
Compound 571

>  <Compound ID>
196

>  <Name>
Ponatinib

>  <Uniprot>
P51617

>  <Target>
IRAK1

>  <Smiles>
CC1=CC=C(C(=O)NC2=CC=C(CN3CCN(C)CC3)C(C(F)(F)F)=C2)C=C1C#CC1=CN=C2C=CC=NN12

>  <Kd (nM)>


>  <Assay (Kd)>


>  <Ki (nM)>


>  <Assay (Ki)>


>  <IC50 (nM)>


>  <Assay (IC50)>


>  <EC50 (nM)>


>  <Assay (EC50)>


>  <Article DOI>
10.1016/j.cell.2020.10.038

>  <Molecular Weight>
532.57

>  <Exact Mass>
532.2198441

>  <XLogP3>
4.11

>  <Heavy Atom Count>
39

>  <Ring Count>
5

>  <Hydrogen Bond Acceptor Count>
6

>  <Hydrogen Bond Donor Count>
1

>  <Rotatable Bond Count>
4

>  <Topological Polar Surface Area>
65.77

>  <Molecular Formula>
C29H27F3N6O

>  <InChI>
InChI=1S/C29H27F3N6O/c1-20-5-6-22(16-21(20)8-10-25-18-33-27-4-3-11-34-38(25)27)28(39)35-24-9-7-23(26(17-24)29(30,31)32)19-37-14-12-36(2)13-15-37/h3-7,9,11,16-18H,12-15,19H2,1-2H3,(H,35,39)

>  <InChI Key>
PHXJVRSECIGDHY-UHFFFAOYSA-N

>  <BindingDB>
50322535

>  <PubChem>
24826799

>  <ChEMBL>
CHEMBL1171837

$$$$
196
Actelion Java MolfileCreator 2.0

  0  0  0  0  0  0              0 V3000
M  V30 BEGIN CTAB
M  V30 COUNTS 39 43 0 0 0
M  V30 BEGIN ATOM
M  V30 1 F 5.6961 0.366 0.0 0
M  V30 2 C 5.1961 -0.5 0.0 0
M  V30 3 F 6.0621 -1.0 0.0 0
M  V30 4 F 4.6961 -1.366 0.0 0
M  V30 5 C 4.3301 0.0 0.0 0
M  V30 6 C 4.3301 1.0 0.0 0
M  V30 7 C 3.4641 -0.4999 0.0 0
M  V30 8 C 3.4641 1.5 0.0 0
M  V30 9 C 5.1961 1.5 0.0 0
M  V30 10 C 2.598 0.0 0.0 0
M  V30 11 C 2.598 1.0 0.0 0
M  V30 12 N 5.1961 2.5 0.0 0
M  V30 13 N 1.732 -0.5 0.0 0
M  V30 14 C 6.0621 2.9999 0.0 0
M  V30 15 C 4.3301 3.0 0.0 0
M  V30 16 C 0.866 0.0 0.0 0
M  V30 17 C 6.0621 3.9999 0.0 0
M  V30 18 C 4.3301 4.0 0.0 0
M  V30 19 O 0.866 1.0 0.0 0
M  V30 20 C 0.0 -0.5 0.0 0
M  V30 21 N 5.1961 4.4999 0.0 0
M  V30 22 C -0.866 0.0 0.0 0
M  V30 23 C 0.0 -1.5 0.0 0
M  V30 24 C 5.1961 5.4999 0.0 0
M  V30 25 C -1.732 -0.4999 0.0 0
M  V30 26 C -0.866 -1.9999 0.0 0
M  V30 27 C -2.598 0.0 0.0 0
M  V30 28 C -1.732 -1.4999 0.0 0
M  V30 29 C -3.4641 0.5 0.0 0
M  V30 30 C -2.598 -1.9999 0.0 0
M  V30 31 C -4.3301 1.0 0.0 0
M  V30 32 N -4.4346 1.9945 0.0 0
M  V30 33 C -5.2436 0.5932 0.0 0
M  V30 34 N -3.7655 2.7376 0.0 0
M  V30 35 C -5.4128 2.2024 0.0 0
M  V30 36 N -5.9128 1.3364 0.0 0
M  V30 37 C -4.0745 3.6887 0.0 0
M  V30 38 C -5.7218 3.1534 0.0 0
M  V30 39 C -5.0526 3.8966 0.0 0
M  V30 END ATOM
M  V30 BEGIN BOND
M  V30 1 1 1 2
M  V30 2 1 2 3
M  V30 3 1 2 4
M  V30 4 1 2 5
M  V30 5 2 5 6
M  V30 6 1 5 7
M  V30 7 1 6 8
M  V30 8 1 6 9
M  V30 9 2 7 10
M  V30 10 2 8 11
M  V30 11 1 9 12
M  V30 12 1 10 13
M  V30 13 1 12 14
M  V30 14 1 12 15
M  V30 15 1 13 16
M  V30 16 1 14 17
M  V30 17 1 15 18
M  V30 18 2 16 19
M  V30 19 1 16 20
M  V30 20 1 17 21
M  V30 21 2 20 22
M  V30 22 1 20 23
M  V30 23 1 21 24
M  V30 24 1 22 25
M  V30 25 2 23 26
M  V30 26 1 25 27
M  V30 27 2 25 28
M  V30 28 3 27 29
M  V30 29 1 28 30
M  V30 30 1 29 31
M  V30 31 1 31 32
M  V30 32 2 31 33
M  V30 33 1 32 34
M  V30 34 1 32 35
M  V30 35 1 33 36
M  V30 36 2 34 37
M  V30 37 1 35 38
M  V30 38 1 37 39
M  V30 39 1 10 11
M  V30 40 1 18 21
M  V30 41 1 26 28
M  V30 42 2 35 36
M  V30 43 2 38 39
M  V30 END BOND
M  V30 END CTAB
M  END
>  <Molecule Name>
Compound 572

>  <Molecule Name 2>
Compound 572

>  <Compound ID>
196

>  <Name>
Ponatinib

>  <Uniprot>
P06239

>  <Target>
LCK

>  <Smiles>
CC1=CC=C(C(=O)NC2=CC=C(CN3CCN(C)CC3)C(C(F)(F)F)=C2)C=C1C#CC1=CN=C2C=CC=NN12

>  <Kd (nM)>
24

>  <Assay (Kd)>
Kd apparent of LCK

>  <Ki (nM)>


>  <Assay (Ki)>


>  <IC50 (nM)>


>  <Assay (IC50)>


>  <EC50 (nM)>


>  <Assay (EC50)>


>  <Article DOI>
10.1126/science.aan4368

>  <Molecular Weight>
532.57

>  <Exact Mass>
532.2198441

>  <XLogP3>
4.11

>  <Heavy Atom Count>
39

>  <Ring Count>
5

>  <Hydrogen Bond Acceptor Count>
6

>  <Hydrogen Bond Donor Count>
1

>  <Rotatable Bond Count>
4

>  <Topological Polar Surface Area>
65.77

>  <Molecular Formula>
C29H27F3N6O

>  <InChI>
InChI=1S/C29H27F3N6O/c1-20-5-6-22(16-21(20)8-10-25-18-33-27-4-3-11-34-38(25)27)28(39)35-24-9-7-23(26(17-24)29(30,31)32)19-37-14-12-36(2)13-15-37/h3-7,9,11,16-18H,12-15,19H2,1-2H3,(H,35,39)

>  <InChI Key>
PHXJVRSECIGDHY-UHFFFAOYSA-N

>  <BindingDB>
50322535

>  <PubChem>
24826799

>  <ChEMBL>
CHEMBL1171837

$$$$
196
Actelion Java MolfileCreator 2.0

  0  0  0  0  0  0              0 V3000
M  V30 BEGIN CTAB
M  V30 COUNTS 39 43 0 0 0
M  V30 BEGIN ATOM
M  V30 1 F 5.6961 0.366 0.0 0
M  V30 2 C 5.1961 -0.5 0.0 0
M  V30 3 F 6.0621 -1.0 0.0 0
M  V30 4 F 4.6961 -1.366 0.0 0
M  V30 5 C 4.3301 0.0 0.0 0
M  V30 6 C 4.3301 1.0 0.0 0
M  V30 7 C 3.4641 -0.4999 0.0 0
M  V30 8 C 3.4641 1.5 0.0 0
M  V30 9 C 5.1961 1.5 0.0 0
M  V30 10 C 2.598 0.0 0.0 0
M  V30 11 C 2.598 1.0 0.0 0
M  V30 12 N 5.1961 2.5 0.0 0
M  V30 13 N 1.732 -0.5 0.0 0
M  V30 14 C 6.0621 2.9999 0.0 0
M  V30 15 C 4.3301 3.0 0.0 0
M  V30 16 C 0.866 0.0 0.0 0
M  V30 17 C 6.0621 3.9999 0.0 0
M  V30 18 C 4.3301 4.0 0.0 0
M  V30 19 O 0.866 1.0 0.0 0
M  V30 20 C 0.0 -0.5 0.0 0
M  V30 21 N 5.1961 4.4999 0.0 0
M  V30 22 C -0.866 0.0 0.0 0
M  V30 23 C 0.0 -1.5 0.0 0
M  V30 24 C 5.1961 5.4999 0.0 0
M  V30 25 C -1.732 -0.4999 0.0 0
M  V30 26 C -0.866 -1.9999 0.0 0
M  V30 27 C -2.598 0.0 0.0 0
M  V30 28 C -1.732 -1.4999 0.0 0
M  V30 29 C -3.4641 0.5 0.0 0
M  V30 30 C -2.598 -1.9999 0.0 0
M  V30 31 C -4.3301 1.0 0.0 0
M  V30 32 N -4.4346 1.9945 0.0 0
M  V30 33 C -5.2436 0.5932 0.0 0
M  V30 34 N -3.7655 2.7376 0.0 0
M  V30 35 C -5.4128 2.2024 0.0 0
M  V30 36 N -5.9128 1.3364 0.0 0
M  V30 37 C -4.0745 3.6887 0.0 0
M  V30 38 C -5.7218 3.1534 0.0 0
M  V30 39 C -5.0526 3.8966 0.0 0
M  V30 END ATOM
M  V30 BEGIN BOND
M  V30 1 1 1 2
M  V30 2 1 2 3
M  V30 3 1 2 4
M  V30 4 1 2 5
M  V30 5 2 5 6
M  V30 6 1 5 7
M  V30 7 1 6 8
M  V30 8 1 6 9
M  V30 9 2 7 10
M  V30 10 2 8 11
M  V30 11 1 9 12
M  V30 12 1 10 13
M  V30 13 1 12 14
M  V30 14 1 12 15
M  V30 15 1 13 16
M  V30 16 1 14 17
M  V30 17 1 15 18
M  V30 18 2 16 19
M  V30 19 1 16 20
M  V30 20 1 17 21
M  V30 21 2 20 22
M  V30 22 1 20 23
M  V30 23 1 21 24
M  V30 24 1 22 25
M  V30 25 2 23 26
M  V30 26 1 25 27
M  V30 27 2 25 28
M  V30 28 3 27 29
M  V30 29 1 28 30
M  V30 30 1 29 31
M  V30 31 1 31 32
M  V30 32 2 31 33
M  V30 33 1 32 34
M  V30 34 1 32 35
M  V30 35 1 33 36
M  V30 36 2 34 37
M  V30 37 1 35 38
M  V30 38 1 37 39
M  V30 39 1 10 11
M  V30 40 1 18 21
M  V30 41 1 26 28
M  V30 42 2 35 36
M  V30 43 2 38 39
M  V30 END BOND
M  V30 END CTAB
M  END
>  <Molecule Name>
Compound 573

>  <Molecule Name 2>
Compound 573

>  <Compound ID>
196

>  <Name>
Ponatinib

>  <Uniprot>
P53667

>  <Target>
LIMK1

>  <Smiles>
CC1=CC=C(C(=O)NC2=CC=C(CN3CCN(C)CC3)C(C(F)(F)F)=C2)C=C1C#CC1=CN=C2C=CC=NN12

>  <Kd (nM)>


>  <Assay (Kd)>


>  <Ki (nM)>


>  <Assay (Ki)>


>  <IC50 (nM)>


>  <Assay (IC50)>


>  <EC50 (nM)>


>  <Assay (EC50)>


>  <Article DOI>
10.1016/j.cell.2020.10.038

>  <Molecular Weight>
532.57

>  <Exact Mass>
532.2198441

>  <XLogP3>
4.11

>  <Heavy Atom Count>
39

>  <Ring Count>
5

>  <Hydrogen Bond Acceptor Count>
6

>  <Hydrogen Bond Donor Count>
1

>  <Rotatable Bond Count>
4

>  <Topological Polar Surface Area>
65.77

>  <Molecular Formula>
C29H27F3N6O

>  <InChI>
InChI=1S/C29H27F3N6O/c1-20-5-6-22(16-21(20)8-10-25-18-33-27-4-3-11-34-38(25)27)28(39)35-24-9-7-23(26(17-24)29(30,31)32)19-37-14-12-36(2)13-15-37/h3-7,9,11,16-18H,12-15,19H2,1-2H3,(H,35,39)

>  <InChI Key>
PHXJVRSECIGDHY-UHFFFAOYSA-N

>  <BindingDB>
50322535

>  <PubChem>
24826799

>  <ChEMBL>
CHEMBL1171837

$$$$
196
Actelion Java MolfileCreator 2.0

  0  0  0  0  0  0              0 V3000
M  V30 BEGIN CTAB
M  V30 COUNTS 39 43 0 0 0
M  V30 BEGIN ATOM
M  V30 1 F 5.6961 0.366 0.0 0
M  V30 2 C 5.1961 -0.5 0.0 0
M  V30 3 F 6.0621 -1.0 0.0 0
M  V30 4 F 4.6961 -1.366 0.0 0
M  V30 5 C 4.3301 0.0 0.0 0
M  V30 6 C 4.3301 1.0 0.0 0
M  V30 7 C 3.4641 -0.4999 0.0 0
M  V30 8 C 3.4641 1.5 0.0 0
M  V30 9 C 5.1961 1.5 0.0 0
M  V30 10 C 2.598 0.0 0.0 0
M  V30 11 C 2.598 1.0 0.0 0
M  V30 12 N 5.1961 2.5 0.0 0
M  V30 13 N 1.732 -0.5 0.0 0
M  V30 14 C 6.0621 2.9999 0.0 0
M  V30 15 C 4.3301 3.0 0.0 0
M  V30 16 C 0.866 0.0 0.0 0
M  V30 17 C 6.0621 3.9999 0.0 0
M  V30 18 C 4.3301 4.0 0.0 0
M  V30 19 O 0.866 1.0 0.0 0
M  V30 20 C 0.0 -0.5 0.0 0
M  V30 21 N 5.1961 4.4999 0.0 0
M  V30 22 C -0.866 0.0 0.0 0
M  V30 23 C 0.0 -1.5 0.0 0
M  V30 24 C 5.1961 5.4999 0.0 0
M  V30 25 C -1.732 -0.4999 0.0 0
M  V30 26 C -0.866 -1.9999 0.0 0
M  V30 27 C -2.598 0.0 0.0 0
M  V30 28 C -1.732 -1.4999 0.0 0
M  V30 29 C -3.4641 0.5 0.0 0
M  V30 30 C -2.598 -1.9999 0.0 0
M  V30 31 C -4.3301 1.0 0.0 0
M  V30 32 N -4.4346 1.9945 0.0 0
M  V30 33 C -5.2436 0.5932 0.0 0
M  V30 34 N -3.7655 2.7376 0.0 0
M  V30 35 C -5.4128 2.2024 0.0 0
M  V30 36 N -5.9128 1.3364 0.0 0
M  V30 37 C -4.0745 3.6887 0.0 0
M  V30 38 C -5.7218 3.1534 0.0 0
M  V30 39 C -5.0526 3.8966 0.0 0
M  V30 END ATOM
M  V30 BEGIN BOND
M  V30 1 1 1 2
M  V30 2 1 2 3
M  V30 3 1 2 4
M  V30 4 1 2 5
M  V30 5 2 5 6
M  V30 6 1 5 7
M  V30 7 1 6 8
M  V30 8 1 6 9
M  V30 9 2 7 10
M  V30 10 2 8 11
M  V30 11 1 9 12
M  V30 12 1 10 13
M  V30 13 1 12 14
M  V30 14 1 12 15
M  V30 15 1 13 16
M  V30 16 1 14 17
M  V30 17 1 15 18
M  V30 18 2 16 19
M  V30 19 1 16 20
M  V30 20 1 17 21
M  V30 21 2 20 22
M  V30 22 1 20 23
M  V30 23 1 21 24
M  V30 24 1 22 25
M  V30 25 2 23 26
M  V30 26 1 25 27
M  V30 27 2 25 28
M  V30 28 3 27 29
M  V30 29 1 28 30
M  V30 30 1 29 31
M  V30 31 1 31 32
M  V30 32 2 31 33
M  V30 33 1 32 34
M  V30 34 1 32 35
M  V30 35 1 33 36
M  V30 36 2 34 37
M  V30 37 1 35 38
M  V30 38 1 37 39
M  V30 39 1 10 11
M  V30 40 1 18 21
M  V30 41 1 26 28
M  V30 42 2 35 36
M  V30 43 2 38 39
M  V30 END BOND
M  V30 END CTAB
M  END
>  <Molecule Name>
Compound 574

>  <Molecule Name 2>
Compound 574

>  <Compound ID>
196

>  <Name>
Ponatinib

>  <Uniprot>
P07948

>  <Target>
LYN

>  <Smiles>
CC1=CC=C(C(=O)NC2=CC=C(CN3CCN(C)CC3)C(C(F)(F)F)=C2)C=C1C#CC1=CN=C2C=CC=NN12

>  <Kd (nM)>
27

>  <Assay (Kd)>
Kd apparent of LYN

>  <Ki (nM)>


>  <Assay (Ki)>


>  <IC50 (nM)>


>  <Assay (IC50)>


>  <EC50 (nM)>


>  <Assay (EC50)>


>  <Article DOI>
10.1126/science.aan4368

>  <Molecular Weight>
532.57

>  <Exact Mass>
532.2198441

>  <XLogP3>
4.11

>  <Heavy Atom Count>
39

>  <Ring Count>
5

>  <Hydrogen Bond Acceptor Count>
6

>  <Hydrogen Bond Donor Count>
1

>  <Rotatable Bond Count>
4

>  <Topological Polar Surface Area>
65.77

>  <Molecular Formula>
C29H27F3N6O

>  <InChI>
InChI=1S/C29H27F3N6O/c1-20-5-6-22(16-21(20)8-10-25-18-33-27-4-3-11-34-38(25)27)28(39)35-24-9-7-23(26(17-24)29(30,31)32)19-37-14-12-36(2)13-15-37/h3-7,9,11,16-18H,12-15,19H2,1-2H3,(H,35,39)

>  <InChI Key>
PHXJVRSECIGDHY-UHFFFAOYSA-N

>  <BindingDB>
50322535

>  <PubChem>
24826799

>  <ChEMBL>
CHEMBL1171837

$$$$
196
Actelion Java MolfileCreator 2.0

  0  0  0  0  0  0              0 V3000
M  V30 BEGIN CTAB
M  V30 COUNTS 39 43 0 0 0
M  V30 BEGIN ATOM
M  V30 1 F 5.6961 0.366 0.0 0
M  V30 2 C 5.1961 -0.5 0.0 0
M  V30 3 F 6.0621 -1.0 0.0 0
M  V30 4 F 4.6961 -1.366 0.0 0
M  V30 5 C 4.3301 0.0 0.0 0
M  V30 6 C 4.3301 1.0 0.0 0
M  V30 7 C 3.4641 -0.4999 0.0 0
M  V30 8 C 3.4641 1.5 0.0 0
M  V30 9 C 5.1961 1.5 0.0 0
M  V30 10 C 2.598 0.0 0.0 0
M  V30 11 C 2.598 1.0 0.0 0
M  V30 12 N 5.1961 2.5 0.0 0
M  V30 13 N 1.732 -0.5 0.0 0
M  V30 14 C 6.0621 2.9999 0.0 0
M  V30 15 C 4.3301 3.0 0.0 0
M  V30 16 C 0.866 0.0 0.0 0
M  V30 17 C 6.0621 3.9999 0.0 0
M  V30 18 C 4.3301 4.0 0.0 0
M  V30 19 O 0.866 1.0 0.0 0
M  V30 20 C 0.0 -0.5 0.0 0
M  V30 21 N 5.1961 4.4999 0.0 0
M  V30 22 C -0.866 0.0 0.0 0
M  V30 23 C 0.0 -1.5 0.0 0
M  V30 24 C 5.1961 5.4999 0.0 0
M  V30 25 C -1.732 -0.4999 0.0 0
M  V30 26 C -0.866 -1.9999 0.0 0
M  V30 27 C -2.598 0.0 0.0 0
M  V30 28 C -1.732 -1.4999 0.0 0
M  V30 29 C -3.4641 0.5 0.0 0
M  V30 30 C -2.598 -1.9999 0.0 0
M  V30 31 C -4.3301 1.0 0.0 0
M  V30 32 N -4.4346 1.9945 0.0 0
M  V30 33 C -5.2436 0.5932 0.0 0
M  V30 34 N -3.7655 2.7376 0.0 0
M  V30 35 C -5.4128 2.2024 0.0 0
M  V30 36 N -5.9128 1.3364 0.0 0
M  V30 37 C -4.0745 3.6887 0.0 0
M  V30 38 C -5.7218 3.1534 0.0 0
M  V30 39 C -5.0526 3.8966 0.0 0
M  V30 END ATOM
M  V30 BEGIN BOND
M  V30 1 1 1 2
M  V30 2 1 2 3
M  V30 3 1 2 4
M  V30 4 1 2 5
M  V30 5 2 5 6
M  V30 6 1 5 7
M  V30 7 1 6 8
M  V30 8 1 6 9
M  V30 9 2 7 10
M  V30 10 2 8 11
M  V30 11 1 9 12
M  V30 12 1 10 13
M  V30 13 1 12 14
M  V30 14 1 12 15
M  V30 15 1 13 16
M  V30 16 1 14 17
M  V30 17 1 15 18
M  V30 18 2 16 19
M  V30 19 1 16 20
M  V30 20 1 17 21
M  V30 21 2 20 22
M  V30 22 1 20 23
M  V30 23 1 21 24
M  V30 24 1 22 25
M  V30 25 2 23 26
M  V30 26 1 25 27
M  V30 27 2 25 28
M  V30 28 3 27 29
M  V30 29 1 28 30
M  V30 30 1 29 31
M  V30 31 1 31 32
M  V30 32 2 31 33
M  V30 33 1 32 34
M  V30 34 1 32 35
M  V30 35 1 33 36
M  V30 36 2 34 37
M  V30 37 1 35 38
M  V30 38 1 37 39
M  V30 39 1 10 11
M  V30 40 1 18 21
M  V30 41 1 26 28
M  V30 42 2 35 36
M  V30 43 2 38 39
M  V30 END BOND
M  V30 END CTAB
M  END
>  <Molecule Name>
Compound 575

>  <Molecule Name 2>
Compound 575

>  <Compound ID>
196

>  <Name>
Ponatinib

>  <Uniprot>
Q13233

>  <Target>
MAP3K1

>  <Smiles>
CC1=CC=C(C(=O)NC2=CC=C(CN3CCN(C)CC3)C(C(F)(F)F)=C2)C=C1C#CC1=CN=C2C=CC=NN12

>  <Kd (nM)>


>  <Assay (Kd)>


>  <Ki (nM)>


>  <Assay (Ki)>


>  <IC50 (nM)>


>  <Assay (IC50)>


>  <EC50 (nM)>


>  <Assay (EC50)>


>  <Article DOI>
10.1016/j.cell.2020.10.038

>  <Molecular Weight>
532.57

>  <Exact Mass>
532.2198441

>  <XLogP3>
4.11

>  <Heavy Atom Count>
39

>  <Ring Count>
5

>  <Hydrogen Bond Acceptor Count>
6

>  <Hydrogen Bond Donor Count>
1

>  <Rotatable Bond Count>
4

>  <Topological Polar Surface Area>
65.77

>  <Molecular Formula>
C29H27F3N6O

>  <InChI>
InChI=1S/C29H27F3N6O/c1-20-5-6-22(16-21(20)8-10-25-18-33-27-4-3-11-34-38(25)27)28(39)35-24-9-7-23(26(17-24)29(30,31)32)19-37-14-12-36(2)13-15-37/h3-7,9,11,16-18H,12-15,19H2,1-2H3,(H,35,39)

>  <InChI Key>
PHXJVRSECIGDHY-UHFFFAOYSA-N

>  <BindingDB>
50322535

>  <PubChem>
24826799

>  <ChEMBL>
CHEMBL1171837

$$$$
196
Actelion Java MolfileCreator 2.0

  0  0  0  0  0  0              0 V3000
M  V30 BEGIN CTAB
M  V30 COUNTS 39 43 0 0 0
M  V30 BEGIN ATOM
M  V30 1 F 5.6961 0.366 0.0 0
M  V30 2 C 5.1961 -0.5 0.0 0
M  V30 3 F 6.0621 -1.0 0.0 0
M  V30 4 F 4.6961 -1.366 0.0 0
M  V30 5 C 4.3301 0.0 0.0 0
M  V30 6 C 4.3301 1.0 0.0 0
M  V30 7 C 3.4641 -0.4999 0.0 0
M  V30 8 C 3.4641 1.5 0.0 0
M  V30 9 C 5.1961 1.5 0.0 0
M  V30 10 C 2.598 0.0 0.0 0
M  V30 11 C 2.598 1.0 0.0 0
M  V30 12 N 5.1961 2.5 0.0 0
M  V30 13 N 1.732 -0.5 0.0 0
M  V30 14 C 6.0621 2.9999 0.0 0
M  V30 15 C 4.3301 3.0 0.0 0
M  V30 16 C 0.866 0.0 0.0 0
M  V30 17 C 6.0621 3.9999 0.0 0
M  V30 18 C 4.3301 4.0 0.0 0
M  V30 19 O 0.866 1.0 0.0 0
M  V30 20 C 0.0 -0.5 0.0 0
M  V30 21 N 5.1961 4.4999 0.0 0
M  V30 22 C -0.866 0.0 0.0 0
M  V30 23 C 0.0 -1.5 0.0 0
M  V30 24 C 5.1961 5.4999 0.0 0
M  V30 25 C -1.732 -0.4999 0.0 0
M  V30 26 C -0.866 -1.9999 0.0 0
M  V30 27 C -2.598 0.0 0.0 0
M  V30 28 C -1.732 -1.4999 0.0 0
M  V30 29 C -3.4641 0.5 0.0 0
M  V30 30 C -2.598 -1.9999 0.0 0
M  V30 31 C -4.3301 1.0 0.0 0
M  V30 32 N -4.4346 1.9945 0.0 0
M  V30 33 C -5.2436 0.5932 0.0 0
M  V30 34 N -3.7655 2.7376 0.0 0
M  V30 35 C -5.4128 2.2024 0.0 0
M  V30 36 N -5.9128 1.3364 0.0 0
M  V30 37 C -4.0745 3.6887 0.0 0
M  V30 38 C -5.7218 3.1534 0.0 0
M  V30 39 C -5.0526 3.8966 0.0 0
M  V30 END ATOM
M  V30 BEGIN BOND
M  V30 1 1 1 2
M  V30 2 1 2 3
M  V30 3 1 2 4
M  V30 4 1 2 5
M  V30 5 2 5 6
M  V30 6 1 5 7
M  V30 7 1 6 8
M  V30 8 1 6 9
M  V30 9 2 7 10
M  V30 10 2 8 11
M  V30 11 1 9 12
M  V30 12 1 10 13
M  V30 13 1 12 14
M  V30 14 1 12 15
M  V30 15 1 13 16
M  V30 16 1 14 17
M  V30 17 1 15 18
M  V30 18 2 16 19
M  V30 19 1 16 20
M  V30 20 1 17 21
M  V30 21 2 20 22
M  V30 22 1 20 23
M  V30 23 1 21 24
M  V30 24 1 22 25
M  V30 25 2 23 26
M  V30 26 1 25 27
M  V30 27 2 25 28
M  V30 28 3 27 29
M  V30 29 1 28 30
M  V30 30 1 29 31
M  V30 31 1 31 32
M  V30 32 2 31 33
M  V30 33 1 32 34
M  V30 34 1 32 35
M  V30 35 1 33 36
M  V30 36 2 34 37
M  V30 37 1 35 38
M  V30 38 1 37 39
M  V30 39 1 10 11
M  V30 40 1 18 21
M  V30 41 1 26 28
M  V30 42 2 35 36
M  V30 43 2 38 39
M  V30 END BOND
M  V30 END CTAB
M  END
>  <Molecule Name>
Compound 576

>  <Molecule Name 2>
Compound 576

>  <Compound ID>
196

>  <Name>
Ponatinib

>  <Uniprot>
Q9NYL2

>  <Target>
MAP3K20

>  <Smiles>
CC1=CC=C(C(=O)NC2=CC=C(CN3CCN(C)CC3)C(C(F)(F)F)=C2)C=C1C#CC1=CN=C2C=CC=NN12

>  <Kd (nM)>


>  <Assay (Kd)>


>  <Ki (nM)>


>  <Assay (Ki)>


>  <IC50 (nM)>


>  <Assay (IC50)>


>  <EC50 (nM)>


>  <Assay (EC50)>


>  <Article DOI>
10.1016/j.cell.2020.10.038

>  <Molecular Weight>
532.57

>  <Exact Mass>
532.2198441

>  <XLogP3>
4.11

>  <Heavy Atom Count>
39

>  <Ring Count>
5

>  <Hydrogen Bond Acceptor Count>
6

>  <Hydrogen Bond Donor Count>
1

>  <Rotatable Bond Count>
4

>  <Topological Polar Surface Area>
65.77

>  <Molecular Formula>
C29H27F3N6O

>  <InChI>
InChI=1S/C29H27F3N6O/c1-20-5-6-22(16-21(20)8-10-25-18-33-27-4-3-11-34-38(25)27)28(39)35-24-9-7-23(26(17-24)29(30,31)32)19-37-14-12-36(2)13-15-37/h3-7,9,11,16-18H,12-15,19H2,1-2H3,(H,35,39)

>  <InChI Key>
PHXJVRSECIGDHY-UHFFFAOYSA-N

>  <BindingDB>
50322535

>  <PubChem>
24826799

>  <ChEMBL>
CHEMBL1171837

$$$$
196
Actelion Java MolfileCreator 2.0

  0  0  0  0  0  0              0 V3000
M  V30 BEGIN CTAB
M  V30 COUNTS 39 43 0 0 0
M  V30 BEGIN ATOM
M  V30 1 F 5.6961 0.366 0.0 0
M  V30 2 C 5.1961 -0.5 0.0 0
M  V30 3 F 6.0621 -1.0 0.0 0
M  V30 4 F 4.6961 -1.366 0.0 0
M  V30 5 C 4.3301 0.0 0.0 0
M  V30 6 C 4.3301 1.0 0.0 0
M  V30 7 C 3.4641 -0.4999 0.0 0
M  V30 8 C 3.4641 1.5 0.0 0
M  V30 9 C 5.1961 1.5 0.0 0
M  V30 10 C 2.598 0.0 0.0 0
M  V30 11 C 2.598 1.0 0.0 0
M  V30 12 N 5.1961 2.5 0.0 0
M  V30 13 N 1.732 -0.5 0.0 0
M  V30 14 C 6.0621 2.9999 0.0 0
M  V30 15 C 4.3301 3.0 0.0 0
M  V30 16 C 0.866 0.0 0.0 0
M  V30 17 C 6.0621 3.9999 0.0 0
M  V30 18 C 4.3301 4.0 0.0 0
M  V30 19 O 0.866 1.0 0.0 0
M  V30 20 C 0.0 -0.5 0.0 0
M  V30 21 N 5.1961 4.4999 0.0 0
M  V30 22 C -0.866 0.0 0.0 0
M  V30 23 C 0.0 -1.5 0.0 0
M  V30 24 C 5.1961 5.4999 0.0 0
M  V30 25 C -1.732 -0.4999 0.0 0
M  V30 26 C -0.866 -1.9999 0.0 0
M  V30 27 C -2.598 0.0 0.0 0
M  V30 28 C -1.732 -1.4999 0.0 0
M  V30 29 C -3.4641 0.5 0.0 0
M  V30 30 C -2.598 -1.9999 0.0 0
M  V30 31 C -4.3301 1.0 0.0 0
M  V30 32 N -4.4346 1.9945 0.0 0
M  V30 33 C -5.2436 0.5932 0.0 0
M  V30 34 N -3.7655 2.7376 0.0 0
M  V30 35 C -5.4128 2.2024 0.0 0
M  V30 36 N -5.9128 1.3364 0.0 0
M  V30 37 C -4.0745 3.6887 0.0 0
M  V30 38 C -5.7218 3.1534 0.0 0
M  V30 39 C -5.0526 3.8966 0.0 0
M  V30 END ATOM
M  V30 BEGIN BOND
M  V30 1 1 1 2
M  V30 2 1 2 3
M  V30 3 1 2 4
M  V30 4 1 2 5
M  V30 5 2 5 6
M  V30 6 1 5 7
M  V30 7 1 6 8
M  V30 8 1 6 9
M  V30 9 2 7 10
M  V30 10 2 8 11
M  V30 11 1 9 12
M  V30 12 1 10 13
M  V30 13 1 12 14
M  V30 14 1 12 15
M  V30 15 1 13 16
M  V30 16 1 14 17
M  V30 17 1 15 18
M  V30 18 2 16 19
M  V30 19 1 16 20
M  V30 20 1 17 21
M  V30 21 2 20 22
M  V30 22 1 20 23
M  V30 23 1 21 24
M  V30 24 1 22 25
M  V30 25 2 23 26
M  V30 26 1 25 27
M  V30 27 2 25 28
M  V30 28 3 27 29
M  V30 29 1 28 30
M  V30 30 1 29 31
M  V30 31 1 31 32
M  V30 32 2 31 33
M  V30 33 1 32 34
M  V30 34 1 32 35
M  V30 35 1 33 36
M  V30 36 2 34 37
M  V30 37 1 35 38
M  V30 38 1 37 39
M  V30 39 1 10 11
M  V30 40 1 18 21
M  V30 41 1 26 28
M  V30 42 2 35 36
M  V30 43 2 38 39
M  V30 END BOND
M  V30 END CTAB
M  END
>  <Molecule Name>
Compound 577

>  <Molecule Name 2>
Compound 577

>  <Compound ID>
196

>  <Name>
Ponatinib

>  <Uniprot>
O43318

>  <Target>
MAP3K7

>  <Smiles>
CC1=CC=C(C(=O)NC2=CC=C(CN3CCN(C)CC3)C(C(F)(F)F)=C2)C=C1C#CC1=CN=C2C=CC=NN12

>  <Kd (nM)>
>30000

>  <Assay (Kd)>
Kd apparent of MAP3K7

>  <Ki (nM)>


>  <Assay (Ki)>


>  <IC50 (nM)>


>  <Assay (IC50)>


>  <EC50 (nM)>


>  <Assay (EC50)>


>  <Article DOI>
10.1126/science.aan4368

>  <Molecular Weight>
532.57

>  <Exact Mass>
532.2198441

>  <XLogP3>
4.11

>  <Heavy Atom Count>
39

>  <Ring Count>
5

>  <Hydrogen Bond Acceptor Count>
6

>  <Hydrogen Bond Donor Count>
1

>  <Rotatable Bond Count>
4

>  <Topological Polar Surface Area>
65.77

>  <Molecular Formula>
C29H27F3N6O

>  <InChI>
InChI=1S/C29H27F3N6O/c1-20-5-6-22(16-21(20)8-10-25-18-33-27-4-3-11-34-38(25)27)28(39)35-24-9-7-23(26(17-24)29(30,31)32)19-37-14-12-36(2)13-15-37/h3-7,9,11,16-18H,12-15,19H2,1-2H3,(H,35,39)

>  <InChI Key>
PHXJVRSECIGDHY-UHFFFAOYSA-N

>  <BindingDB>
50322535

>  <PubChem>
24826799

>  <ChEMBL>
CHEMBL1171837

$$$$
196
Actelion Java MolfileCreator 2.0

  0  0  0  0  0  0              0 V3000
M  V30 BEGIN CTAB
M  V30 COUNTS 39 43 0 0 0
M  V30 BEGIN ATOM
M  V30 1 F 5.6961 0.366 0.0 0
M  V30 2 C 5.1961 -0.5 0.0 0
M  V30 3 F 6.0621 -1.0 0.0 0
M  V30 4 F 4.6961 -1.366 0.0 0
M  V30 5 C 4.3301 0.0 0.0 0
M  V30 6 C 4.3301 1.0 0.0 0
M  V30 7 C 3.4641 -0.4999 0.0 0
M  V30 8 C 3.4641 1.5 0.0 0
M  V30 9 C 5.1961 1.5 0.0 0
M  V30 10 C 2.598 0.0 0.0 0
M  V30 11 C 2.598 1.0 0.0 0
M  V30 12 N 5.1961 2.5 0.0 0
M  V30 13 N 1.732 -0.5 0.0 0
M  V30 14 C 6.0621 2.9999 0.0 0
M  V30 15 C 4.3301 3.0 0.0 0
M  V30 16 C 0.866 0.0 0.0 0
M  V30 17 C 6.0621 3.9999 0.0 0
M  V30 18 C 4.3301 4.0 0.0 0
M  V30 19 O 0.866 1.0 0.0 0
M  V30 20 C 0.0 -0.5 0.0 0
M  V30 21 N 5.1961 4.4999 0.0 0
M  V30 22 C -0.866 0.0 0.0 0
M  V30 23 C 0.0 -1.5 0.0 0
M  V30 24 C 5.1961 5.4999 0.0 0
M  V30 25 C -1.732 -0.4999 0.0 0
M  V30 26 C -0.866 -1.9999 0.0 0
M  V30 27 C -2.598 0.0 0.0 0
M  V30 28 C -1.732 -1.4999 0.0 0
M  V30 29 C -3.4641 0.5 0.0 0
M  V30 30 C -2.598 -1.9999 0.0 0
M  V30 31 C -4.3301 1.0 0.0 0
M  V30 32 N -4.4346 1.9945 0.0 0
M  V30 33 C -5.2436 0.5932 0.0 0
M  V30 34 N -3.7655 2.7376 0.0 0
M  V30 35 C -5.4128 2.2024 0.0 0
M  V30 36 N -5.9128 1.3364 0.0 0
M  V30 37 C -4.0745 3.6887 0.0 0
M  V30 38 C -5.7218 3.1534 0.0 0
M  V30 39 C -5.0526 3.8966 0.0 0
M  V30 END ATOM
M  V30 BEGIN BOND
M  V30 1 1 1 2
M  V30 2 1 2 3
M  V30 3 1 2 4
M  V30 4 1 2 5
M  V30 5 2 5 6
M  V30 6 1 5 7
M  V30 7 1 6 8
M  V30 8 1 6 9
M  V30 9 2 7 10
M  V30 10 2 8 11
M  V30 11 1 9 12
M  V30 12 1 10 13
M  V30 13 1 12 14
M  V30 14 1 12 15
M  V30 15 1 13 16
M  V30 16 1 14 17
M  V30 17 1 15 18
M  V30 18 2 16 19
M  V30 19 1 16 20
M  V30 20 1 17 21
M  V30 21 2 20 22
M  V30 22 1 20 23
M  V30 23 1 21 24
M  V30 24 1 22 25
M  V30 25 2 23 26
M  V30 26 1 25 27
M  V30 27 2 25 28
M  V30 28 3 27 29
M  V30 29 1 28 30
M  V30 30 1 29 31
M  V30 31 1 31 32
M  V30 32 2 31 33
M  V30 33 1 32 34
M  V30 34 1 32 35
M  V30 35 1 33 36
M  V30 36 2 34 37
M  V30 37 1 35 38
M  V30 38 1 37 39
M  V30 39 1 10 11
M  V30 40 1 18 21
M  V30 41 1 26 28
M  V30 42 2 35 36
M  V30 43 2 38 39
M  V30 END BOND
M  V30 END CTAB
M  END
>  <Molecule Name>
Compound 578

>  <Molecule Name 2>
Compound 578

>  <Compound ID>
196

>  <Name>
Ponatinib

>  <Uniprot>
Q12851

>  <Target>
MAP4K2

>  <Smiles>
CC1=CC=C(C(=O)NC2=CC=C(CN3CCN(C)CC3)C(C(F)(F)F)=C2)C=C1C#CC1=CN=C2C=CC=NN12

>  <Kd (nM)>
41

>  <Assay (Kd)>
Kd apparent of MAP4K2

>  <Ki (nM)>


>  <Assay (Ki)>


>  <IC50 (nM)>


>  <Assay (IC50)>


>  <EC50 (nM)>


>  <Assay (EC50)>


>  <Article DOI>
10.1126/science.aan4368

>  <Molecular Weight>
532.57

>  <Exact Mass>
532.2198441

>  <XLogP3>
4.11

>  <Heavy Atom Count>
39

>  <Ring Count>
5

>  <Hydrogen Bond Acceptor Count>
6

>  <Hydrogen Bond Donor Count>
1

>  <Rotatable Bond Count>
4

>  <Topological Polar Surface Area>
65.77

>  <Molecular Formula>
C29H27F3N6O

>  <InChI>
InChI=1S/C29H27F3N6O/c1-20-5-6-22(16-21(20)8-10-25-18-33-27-4-3-11-34-38(25)27)28(39)35-24-9-7-23(26(17-24)29(30,31)32)19-37-14-12-36(2)13-15-37/h3-7,9,11,16-18H,12-15,19H2,1-2H3,(H,35,39)

>  <InChI Key>
PHXJVRSECIGDHY-UHFFFAOYSA-N

>  <BindingDB>
50322535

>  <PubChem>
24826799

>  <ChEMBL>
CHEMBL1171837

$$$$
196
Actelion Java MolfileCreator 2.0

  0  0  0  0  0  0              0 V3000
M  V30 BEGIN CTAB
M  V30 COUNTS 39 43 0 0 0
M  V30 BEGIN ATOM
M  V30 1 F 5.6961 0.366 0.0 0
M  V30 2 C 5.1961 -0.5 0.0 0
M  V30 3 F 6.0621 -1.0 0.0 0
M  V30 4 F 4.6961 -1.366 0.0 0
M  V30 5 C 4.3301 0.0 0.0 0
M  V30 6 C 4.3301 1.0 0.0 0
M  V30 7 C 3.4641 -0.4999 0.0 0
M  V30 8 C 3.4641 1.5 0.0 0
M  V30 9 C 5.1961 1.5 0.0 0
M  V30 10 C 2.598 0.0 0.0 0
M  V30 11 C 2.598 1.0 0.0 0
M  V30 12 N 5.1961 2.5 0.0 0
M  V30 13 N 1.732 -0.5 0.0 0
M  V30 14 C 6.0621 2.9999 0.0 0
M  V30 15 C 4.3301 3.0 0.0 0
M  V30 16 C 0.866 0.0 0.0 0
M  V30 17 C 6.0621 3.9999 0.0 0
M  V30 18 C 4.3301 4.0 0.0 0
M  V30 19 O 0.866 1.0 0.0 0
M  V30 20 C 0.0 -0.5 0.0 0
M  V30 21 N 5.1961 4.4999 0.0 0
M  V30 22 C -0.866 0.0 0.0 0
M  V30 23 C 0.0 -1.5 0.0 0
M  V30 24 C 5.1961 5.4999 0.0 0
M  V30 25 C -1.732 -0.4999 0.0 0
M  V30 26 C -0.866 -1.9999 0.0 0
M  V30 27 C -2.598 0.0 0.0 0
M  V30 28 C -1.732 -1.4999 0.0 0
M  V30 29 C -3.4641 0.5 0.0 0
M  V30 30 C -2.598 -1.9999 0.0 0
M  V30 31 C -4.3301 1.0 0.0 0
M  V30 32 N -4.4346 1.9945 0.0 0
M  V30 33 C -5.2436 0.5932 0.0 0
M  V30 34 N -3.7655 2.7376 0.0 0
M  V30 35 C -5.4128 2.2024 0.0 0
M  V30 36 N -5.9128 1.3364 0.0 0
M  V30 37 C -4.0745 3.6887 0.0 0
M  V30 38 C -5.7218 3.1534 0.0 0
M  V30 39 C -5.0526 3.8966 0.0 0
M  V30 END ATOM
M  V30 BEGIN BOND
M  V30 1 1 1 2
M  V30 2 1 2 3
M  V30 3 1 2 4
M  V30 4 1 2 5
M  V30 5 2 5 6
M  V30 6 1 5 7
M  V30 7 1 6 8
M  V30 8 1 6 9
M  V30 9 2 7 10
M  V30 10 2 8 11
M  V30 11 1 9 12
M  V30 12 1 10 13
M  V30 13 1 12 14
M  V30 14 1 12 15
M  V30 15 1 13 16
M  V30 16 1 14 17
M  V30 17 1 15 18
M  V30 18 2 16 19
M  V30 19 1 16 20
M  V30 20 1 17 21
M  V30 21 2 20 22
M  V30 22 1 20 23
M  V30 23 1 21 24
M  V30 24 1 22 25
M  V30 25 2 23 26
M  V30 26 1 25 27
M  V30 27 2 25 28
M  V30 28 3 27 29
M  V30 29 1 28 30
M  V30 30 1 29 31
M  V30 31 1 31 32
M  V30 32 2 31 33
M  V30 33 1 32 34
M  V30 34 1 32 35
M  V30 35 1 33 36
M  V30 36 2 34 37
M  V30 37 1 35 38
M  V30 38 1 37 39
M  V30 39 1 10 11
M  V30 40 1 18 21
M  V30 41 1 26 28
M  V30 42 2 35 36
M  V30 43 2 38 39
M  V30 END BOND
M  V30 END CTAB
M  END
>  <Molecule Name>
Compound 579

>  <Molecule Name 2>
Compound 579

>  <Compound ID>
196

>  <Name>
Ponatinib

>  <Uniprot>
Q9Y4K4

>  <Target>
MAP4K5

>  <Smiles>
CC1=CC=C(C(=O)NC2=CC=C(CN3CCN(C)CC3)C(C(F)(F)F)=C2)C=C1C#CC1=CN=C2C=CC=NN12

>  <Kd (nM)>
>30000

>  <Assay (Kd)>
Kd apparent of MAP4K5

>  <Ki (nM)>


>  <Assay (Ki)>


>  <IC50 (nM)>


>  <Assay (IC50)>


>  <EC50 (nM)>


>  <Assay (EC50)>


>  <Article DOI>
10.1126/science.aan4368

>  <Molecular Weight>
532.57

>  <Exact Mass>
532.2198441

>  <XLogP3>
4.11

>  <Heavy Atom Count>
39

>  <Ring Count>
5

>  <Hydrogen Bond Acceptor Count>
6

>  <Hydrogen Bond Donor Count>
1

>  <Rotatable Bond Count>
4

>  <Topological Polar Surface Area>
65.77

>  <Molecular Formula>
C29H27F3N6O

>  <InChI>
InChI=1S/C29H27F3N6O/c1-20-5-6-22(16-21(20)8-10-25-18-33-27-4-3-11-34-38(25)27)28(39)35-24-9-7-23(26(17-24)29(30,31)32)19-37-14-12-36(2)13-15-37/h3-7,9,11,16-18H,12-15,19H2,1-2H3,(H,35,39)

>  <InChI Key>
PHXJVRSECIGDHY-UHFFFAOYSA-N

>  <BindingDB>
50322535

>  <PubChem>
24826799

>  <ChEMBL>
CHEMBL1171837

$$$$
196
Actelion Java MolfileCreator 2.0

  0  0  0  0  0  0              0 V3000
M  V30 BEGIN CTAB
M  V30 COUNTS 39 43 0 0 0
M  V30 BEGIN ATOM
M  V30 1 F 5.6961 0.366 0.0 0
M  V30 2 C 5.1961 -0.5 0.0 0
M  V30 3 F 6.0621 -1.0 0.0 0
M  V30 4 F 4.6961 -1.366 0.0 0
M  V30 5 C 4.3301 0.0 0.0 0
M  V30 6 C 4.3301 1.0 0.0 0
M  V30 7 C 3.4641 -0.4999 0.0 0
M  V30 8 C 3.4641 1.5 0.0 0
M  V30 9 C 5.1961 1.5 0.0 0
M  V30 10 C 2.598 0.0 0.0 0
M  V30 11 C 2.598 1.0 0.0 0
M  V30 12 N 5.1961 2.5 0.0 0
M  V30 13 N 1.732 -0.5 0.0 0
M  V30 14 C 6.0621 2.9999 0.0 0
M  V30 15 C 4.3301 3.0 0.0 0
M  V30 16 C 0.866 0.0 0.0 0
M  V30 17 C 6.0621 3.9999 0.0 0
M  V30 18 C 4.3301 4.0 0.0 0
M  V30 19 O 0.866 1.0 0.0 0
M  V30 20 C 0.0 -0.5 0.0 0
M  V30 21 N 5.1961 4.4999 0.0 0
M  V30 22 C -0.866 0.0 0.0 0
M  V30 23 C 0.0 -1.5 0.0 0
M  V30 24 C 5.1961 5.4999 0.0 0
M  V30 25 C -1.732 -0.4999 0.0 0
M  V30 26 C -0.866 -1.9999 0.0 0
M  V30 27 C -2.598 0.0 0.0 0
M  V30 28 C -1.732 -1.4999 0.0 0
M  V30 29 C -3.4641 0.5 0.0 0
M  V30 30 C -2.598 -1.9999 0.0 0
M  V30 31 C -4.3301 1.0 0.0 0
M  V30 32 N -4.4346 1.9945 0.0 0
M  V30 33 C -5.2436 0.5932 0.0 0
M  V30 34 N -3.7655 2.7376 0.0 0
M  V30 35 C -5.4128 2.2024 0.0 0
M  V30 36 N -5.9128 1.3364 0.0 0
M  V30 37 C -4.0745 3.6887 0.0 0
M  V30 38 C -5.7218 3.1534 0.0 0
M  V30 39 C -5.0526 3.8966 0.0 0
M  V30 END ATOM
M  V30 BEGIN BOND
M  V30 1 1 1 2
M  V30 2 1 2 3
M  V30 3 1 2 4
M  V30 4 1 2 5
M  V30 5 2 5 6
M  V30 6 1 5 7
M  V30 7 1 6 8
M  V30 8 1 6 9
M  V30 9 2 7 10
M  V30 10 2 8 11
M  V30 11 1 9 12
M  V30 12 1 10 13
M  V30 13 1 12 14
M  V30 14 1 12 15
M  V30 15 1 13 16
M  V30 16 1 14 17
M  V30 17 1 15 18
M  V30 18 2 16 19
M  V30 19 1 16 20
M  V30 20 1 17 21
M  V30 21 2 20 22
M  V30 22 1 20 23
M  V30 23 1 21 24
M  V30 24 1 22 25
M  V30 25 2 23 26
M  V30 26 1 25 27
M  V30 27 2 25 28
M  V30 28 3 27 29
M  V30 29 1 28 30
M  V30 30 1 29 31
M  V30 31 1 31 32
M  V30 32 2 31 33
M  V30 33 1 32 34
M  V30 34 1 32 35
M  V30 35 1 33 36
M  V30 36 2 34 37
M  V30 37 1 35 38
M  V30 38 1 37 39
M  V30 39 1 10 11
M  V30 40 1 18 21
M  V30 41 1 26 28
M  V30 42 2 35 36
M  V30 43 2 38 39
M  V30 END BOND
M  V30 END CTAB
M  END
>  <Molecule Name>
Compound 580

>  <Molecule Name 2>
Compound 580

>  <Compound ID>
196

>  <Name>
Ponatinib

>  <Uniprot>
O60307

>  <Target>
MAST3

>  <Smiles>
CC1=CC=C(C(=O)NC2=CC=C(CN3CCN(C)CC3)C(C(F)(F)F)=C2)C=C1C#CC1=CN=C2C=CC=NN12

>  <Kd (nM)>


>  <Assay (Kd)>


>  <Ki (nM)>


>  <Assay (Ki)>


>  <IC50 (nM)>


>  <Assay (IC50)>


>  <EC50 (nM)>


>  <Assay (EC50)>


>  <Article DOI>
10.1016/j.cell.2020.10.038

>  <Molecular Weight>
532.57

>  <Exact Mass>
532.2198441

>  <XLogP3>
4.11

>  <Heavy Atom Count>
39

>  <Ring Count>
5

>  <Hydrogen Bond Acceptor Count>
6

>  <Hydrogen Bond Donor Count>
1

>  <Rotatable Bond Count>
4

>  <Topological Polar Surface Area>
65.77

>  <Molecular Formula>
C29H27F3N6O

>  <InChI>
InChI=1S/C29H27F3N6O/c1-20-5-6-22(16-21(20)8-10-25-18-33-27-4-3-11-34-38(25)27)28(39)35-24-9-7-23(26(17-24)29(30,31)32)19-37-14-12-36(2)13-15-37/h3-7,9,11,16-18H,12-15,19H2,1-2H3,(H,35,39)

>  <InChI Key>
PHXJVRSECIGDHY-UHFFFAOYSA-N

>  <BindingDB>
50322535

>  <PubChem>
24826799

>  <ChEMBL>
CHEMBL1171837

$$$$
196
Actelion Java MolfileCreator 2.0

  0  0  0  0  0  0              0 V3000
M  V30 BEGIN CTAB
M  V30 COUNTS 39 43 0 0 0
M  V30 BEGIN ATOM
M  V30 1 F 5.6961 0.366 0.0 0
M  V30 2 C 5.1961 -0.5 0.0 0
M  V30 3 F 6.0621 -1.0 0.0 0
M  V30 4 F 4.6961 -1.366 0.0 0
M  V30 5 C 4.3301 0.0 0.0 0
M  V30 6 C 4.3301 1.0 0.0 0
M  V30 7 C 3.4641 -0.4999 0.0 0
M  V30 8 C 3.4641 1.5 0.0 0
M  V30 9 C 5.1961 1.5 0.0 0
M  V30 10 C 2.598 0.0 0.0 0
M  V30 11 C 2.598 1.0 0.0 0
M  V30 12 N 5.1961 2.5 0.0 0
M  V30 13 N 1.732 -0.5 0.0 0
M  V30 14 C 6.0621 2.9999 0.0 0
M  V30 15 C 4.3301 3.0 0.0 0
M  V30 16 C 0.866 0.0 0.0 0
M  V30 17 C 6.0621 3.9999 0.0 0
M  V30 18 C 4.3301 4.0 0.0 0
M  V30 19 O 0.866 1.0 0.0 0
M  V30 20 C 0.0 -0.5 0.0 0
M  V30 21 N 5.1961 4.4999 0.0 0
M  V30 22 C -0.866 0.0 0.0 0
M  V30 23 C 0.0 -1.5 0.0 0
M  V30 24 C 5.1961 5.4999 0.0 0
M  V30 25 C -1.732 -0.4999 0.0 0
M  V30 26 C -0.866 -1.9999 0.0 0
M  V30 27 C -2.598 0.0 0.0 0
M  V30 28 C -1.732 -1.4999 0.0 0
M  V30 29 C -3.4641 0.5 0.0 0
M  V30 30 C -2.598 -1.9999 0.0 0
M  V30 31 C -4.3301 1.0 0.0 0
M  V30 32 N -4.4346 1.9945 0.0 0
M  V30 33 C -5.2436 0.5932 0.0 0
M  V30 34 N -3.7655 2.7376 0.0 0
M  V30 35 C -5.4128 2.2024 0.0 0
M  V30 36 N -5.9128 1.3364 0.0 0
M  V30 37 C -4.0745 3.6887 0.0 0
M  V30 38 C -5.7218 3.1534 0.0 0
M  V30 39 C -5.0526 3.8966 0.0 0
M  V30 END ATOM
M  V30 BEGIN BOND
M  V30 1 1 1 2
M  V30 2 1 2 3
M  V30 3 1 2 4
M  V30 4 1 2 5
M  V30 5 2 5 6
M  V30 6 1 5 7
M  V30 7 1 6 8
M  V30 8 1 6 9
M  V30 9 2 7 10
M  V30 10 2 8 11
M  V30 11 1 9 12
M  V30 12 1 10 13
M  V30 13 1 12 14
M  V30 14 1 12 15
M  V30 15 1 13 16
M  V30 16 1 14 17
M  V30 17 1 15 18
M  V30 18 2 16 19
M  V30 19 1 16 20
M  V30 20 1 17 21
M  V30 21 2 20 22
M  V30 22 1 20 23
M  V30 23 1 21 24
M  V30 24 1 22 25
M  V30 25 2 23 26
M  V30 26 1 25 27
M  V30 27 2 25 28
M  V30 28 3 27 29
M  V30 29 1 28 30
M  V30 30 1 29 31
M  V30 31 1 31 32
M  V30 32 2 31 33
M  V30 33 1 32 34
M  V30 34 1 32 35
M  V30 35 1 33 36
M  V30 36 2 34 37
M  V30 37 1 35 38
M  V30 38 1 37 39
M  V30 39 1 10 11
M  V30 40 1 18 21
M  V30 41 1 26 28
M  V30 42 2 35 36
M  V30 43 2 38 39
M  V30 END BOND
M  V30 END CTAB
M  END
>  <Molecule Name>
Compound 581

>  <Molecule Name 2>
Compound 581

>  <Compound ID>
196

>  <Name>
Ponatinib

>  <Uniprot>
Q16539

>  <Target>
p38alpha

>  <Smiles>
CC1=CC=C(C(=O)NC2=CC=C(CN3CCN(C)CC3)C(C(F)(F)F)=C2)C=C1C#CC1=CN=C2C=CC=NN12

>  <Kd (nM)>


>  <Assay (Kd)>


>  <Ki (nM)>


>  <Assay (Ki)>


>  <IC50 (nM)>


>  <Assay (IC50)>


>  <EC50 (nM)>


>  <Assay (EC50)>


>  <Article DOI>
10.1016/j.cell.2020.10.038

>  <Molecular Weight>
532.57

>  <Exact Mass>
532.2198441

>  <XLogP3>
4.11

>  <Heavy Atom Count>
39

>  <Ring Count>
5

>  <Hydrogen Bond Acceptor Count>
6

>  <Hydrogen Bond Donor Count>
1

>  <Rotatable Bond Count>
4

>  <Topological Polar Surface Area>
65.77

>  <Molecular Formula>
C29H27F3N6O

>  <InChI>
InChI=1S/C29H27F3N6O/c1-20-5-6-22(16-21(20)8-10-25-18-33-27-4-3-11-34-38(25)27)28(39)35-24-9-7-23(26(17-24)29(30,31)32)19-37-14-12-36(2)13-15-37/h3-7,9,11,16-18H,12-15,19H2,1-2H3,(H,35,39)

>  <InChI Key>
PHXJVRSECIGDHY-UHFFFAOYSA-N

>  <BindingDB>
50322535

>  <PubChem>
24826799

>  <ChEMBL>
CHEMBL1171837

$$$$
196
Actelion Java MolfileCreator 2.0

  0  0  0  0  0  0              0 V3000
M  V30 BEGIN CTAB
M  V30 COUNTS 39 43 0 0 0
M  V30 BEGIN ATOM
M  V30 1 F 5.6961 0.366 0.0 0
M  V30 2 C 5.1961 -0.5 0.0 0
M  V30 3 F 6.0621 -1.0 0.0 0
M  V30 4 F 4.6961 -1.366 0.0 0
M  V30 5 C 4.3301 0.0 0.0 0
M  V30 6 C 4.3301 1.0 0.0 0
M  V30 7 C 3.4641 -0.4999 0.0 0
M  V30 8 C 3.4641 1.5 0.0 0
M  V30 9 C 5.1961 1.5 0.0 0
M  V30 10 C 2.598 0.0 0.0 0
M  V30 11 C 2.598 1.0 0.0 0
M  V30 12 N 5.1961 2.5 0.0 0
M  V30 13 N 1.732 -0.5 0.0 0
M  V30 14 C 6.0621 2.9999 0.0 0
M  V30 15 C 4.3301 3.0 0.0 0
M  V30 16 C 0.866 0.0 0.0 0
M  V30 17 C 6.0621 3.9999 0.0 0
M  V30 18 C 4.3301 4.0 0.0 0
M  V30 19 O 0.866 1.0 0.0 0
M  V30 20 C 0.0 -0.5 0.0 0
M  V30 21 N 5.1961 4.4999 0.0 0
M  V30 22 C -0.866 0.0 0.0 0
M  V30 23 C 0.0 -1.5 0.0 0
M  V30 24 C 5.1961 5.4999 0.0 0
M  V30 25 C -1.732 -0.4999 0.0 0
M  V30 26 C -0.866 -1.9999 0.0 0
M  V30 27 C -2.598 0.0 0.0 0
M  V30 28 C -1.732 -1.4999 0.0 0
M  V30 29 C -3.4641 0.5 0.0 0
M  V30 30 C -2.598 -1.9999 0.0 0
M  V30 31 C -4.3301 1.0 0.0 0
M  V30 32 N -4.4346 1.9945 0.0 0
M  V30 33 C -5.2436 0.5932 0.0 0
M  V30 34 N -3.7655 2.7376 0.0 0
M  V30 35 C -5.4128 2.2024 0.0 0
M  V30 36 N -5.9128 1.3364 0.0 0
M  V30 37 C -4.0745 3.6887 0.0 0
M  V30 38 C -5.7218 3.1534 0.0 0
M  V30 39 C -5.0526 3.8966 0.0 0
M  V30 END ATOM
M  V30 BEGIN BOND
M  V30 1 1 1 2
M  V30 2 1 2 3
M  V30 3 1 2 4
M  V30 4 1 2 5
M  V30 5 2 5 6
M  V30 6 1 5 7
M  V30 7 1 6 8
M  V30 8 1 6 9
M  V30 9 2 7 10
M  V30 10 2 8 11
M  V30 11 1 9 12
M  V30 12 1 10 13
M  V30 13 1 12 14
M  V30 14 1 12 15
M  V30 15 1 13 16
M  V30 16 1 14 17
M  V30 17 1 15 18
M  V30 18 2 16 19
M  V30 19 1 16 20
M  V30 20 1 17 21
M  V30 21 2 20 22
M  V30 22 1 20 23
M  V30 23 1 21 24
M  V30 24 1 22 25
M  V30 25 2 23 26
M  V30 26 1 25 27
M  V30 27 2 25 28
M  V30 28 3 27 29
M  V30 29 1 28 30
M  V30 30 1 29 31
M  V30 31 1 31 32
M  V30 32 2 31 33
M  V30 33 1 32 34
M  V30 34 1 32 35
M  V30 35 1 33 36
M  V30 36 2 34 37
M  V30 37 1 35 38
M  V30 38 1 37 39
M  V30 39 1 10 11
M  V30 40 1 18 21
M  V30 41 1 26 28
M  V30 42 2 35 36
M  V30 43 2 38 39
M  V30 END BOND
M  V30 END CTAB
M  END
>  <Molecule Name>
Compound 582

>  <Molecule Name 2>
Compound 582

>  <Compound ID>
196

>  <Name>
Ponatinib

>  <Uniprot>
Q15118

>  <Target>
PDK1

>  <Smiles>
CC1=CC=C(C(=O)NC2=CC=C(CN3CCN(C)CC3)C(C(F)(F)F)=C2)C=C1C#CC1=CN=C2C=CC=NN12

>  <Kd (nM)>


>  <Assay (Kd)>


>  <Ki (nM)>


>  <Assay (Ki)>


>  <IC50 (nM)>


>  <Assay (IC50)>


>  <EC50 (nM)>


>  <Assay (EC50)>


>  <Article DOI>
10.1016/j.cell.2020.10.038

>  <Molecular Weight>
532.57

>  <Exact Mass>
532.2198441

>  <XLogP3>
4.11

>  <Heavy Atom Count>
39

>  <Ring Count>
5

>  <Hydrogen Bond Acceptor Count>
6

>  <Hydrogen Bond Donor Count>
1

>  <Rotatable Bond Count>
4

>  <Topological Polar Surface Area>
65.77

>  <Molecular Formula>
C29H27F3N6O

>  <InChI>
InChI=1S/C29H27F3N6O/c1-20-5-6-22(16-21(20)8-10-25-18-33-27-4-3-11-34-38(25)27)28(39)35-24-9-7-23(26(17-24)29(30,31)32)19-37-14-12-36(2)13-15-37/h3-7,9,11,16-18H,12-15,19H2,1-2H3,(H,35,39)

>  <InChI Key>
PHXJVRSECIGDHY-UHFFFAOYSA-N

>  <BindingDB>
50322535

>  <PubChem>
24826799

>  <ChEMBL>
CHEMBL1171837

$$$$
196
Actelion Java MolfileCreator 2.0

  0  0  0  0  0  0              0 V3000
M  V30 BEGIN CTAB
M  V30 COUNTS 39 43 0 0 0
M  V30 BEGIN ATOM
M  V30 1 F 5.6961 0.366 0.0 0
M  V30 2 C 5.1961 -0.5 0.0 0
M  V30 3 F 6.0621 -1.0 0.0 0
M  V30 4 F 4.6961 -1.366 0.0 0
M  V30 5 C 4.3301 0.0 0.0 0
M  V30 6 C 4.3301 1.0 0.0 0
M  V30 7 C 3.4641 -0.4999 0.0 0
M  V30 8 C 3.4641 1.5 0.0 0
M  V30 9 C 5.1961 1.5 0.0 0
M  V30 10 C 2.598 0.0 0.0 0
M  V30 11 C 2.598 1.0 0.0 0
M  V30 12 N 5.1961 2.5 0.0 0
M  V30 13 N 1.732 -0.5 0.0 0
M  V30 14 C 6.0621 2.9999 0.0 0
M  V30 15 C 4.3301 3.0 0.0 0
M  V30 16 C 0.866 0.0 0.0 0
M  V30 17 C 6.0621 3.9999 0.0 0
M  V30 18 C 4.3301 4.0 0.0 0
M  V30 19 O 0.866 1.0 0.0 0
M  V30 20 C 0.0 -0.5 0.0 0
M  V30 21 N 5.1961 4.4999 0.0 0
M  V30 22 C -0.866 0.0 0.0 0
M  V30 23 C 0.0 -1.5 0.0 0
M  V30 24 C 5.1961 5.4999 0.0 0
M  V30 25 C -1.732 -0.4999 0.0 0
M  V30 26 C -0.866 -1.9999 0.0 0
M  V30 27 C -2.598 0.0 0.0 0
M  V30 28 C -1.732 -1.4999 0.0 0
M  V30 29 C -3.4641 0.5 0.0 0
M  V30 30 C -2.598 -1.9999 0.0 0
M  V30 31 C -4.3301 1.0 0.0 0
M  V30 32 N -4.4346 1.9945 0.0 0
M  V30 33 C -5.2436 0.5932 0.0 0
M  V30 34 N -3.7655 2.7376 0.0 0
M  V30 35 C -5.4128 2.2024 0.0 0
M  V30 36 N -5.9128 1.3364 0.0 0
M  V30 37 C -4.0745 3.6887 0.0 0
M  V30 38 C -5.7218 3.1534 0.0 0
M  V30 39 C -5.0526 3.8966 0.0 0
M  V30 END ATOM
M  V30 BEGIN BOND
M  V30 1 1 1 2
M  V30 2 1 2 3
M  V30 3 1 2 4
M  V30 4 1 2 5
M  V30 5 2 5 6
M  V30 6 1 5 7
M  V30 7 1 6 8
M  V30 8 1 6 9
M  V30 9 2 7 10
M  V30 10 2 8 11
M  V30 11 1 9 12
M  V30 12 1 10 13
M  V30 13 1 12 14
M  V30 14 1 12 15
M  V30 15 1 13 16
M  V30 16 1 14 17
M  V30 17 1 15 18
M  V30 18 2 16 19
M  V30 19 1 16 20
M  V30 20 1 17 21
M  V30 21 2 20 22
M  V30 22 1 20 23
M  V30 23 1 21 24
M  V30 24 1 22 25
M  V30 25 2 23 26
M  V30 26 1 25 27
M  V30 27 2 25 28
M  V30 28 3 27 29
M  V30 29 1 28 30
M  V30 30 1 29 31
M  V30 31 1 31 32
M  V30 32 2 31 33
M  V30 33 1 32 34
M  V30 34 1 32 35
M  V30 35 1 33 36
M  V30 36 2 34 37
M  V30 37 1 35 38
M  V30 38 1 37 39
M  V30 39 1 10 11
M  V30 40 1 18 21
M  V30 41 1 26 28
M  V30 42 2 35 36
M  V30 43 2 38 39
M  V30 END BOND
M  V30 END CTAB
M  END
>  <Molecule Name>
Compound 583

>  <Molecule Name 2>
Compound 583

>  <Compound ID>
196

>  <Name>
Ponatinib

>  <Uniprot>
Q15119

>  <Target>
PDK2

>  <Smiles>
CC1=CC=C(C(=O)NC2=CC=C(CN3CCN(C)CC3)C(C(F)(F)F)=C2)C=C1C#CC1=CN=C2C=CC=NN12

>  <Kd (nM)>


>  <Assay (Kd)>


>  <Ki (nM)>


>  <Assay (Ki)>


>  <IC50 (nM)>


>  <Assay (IC50)>


>  <EC50 (nM)>


>  <Assay (EC50)>


>  <Article DOI>
10.1016/j.cell.2020.10.038

>  <Molecular Weight>
532.57

>  <Exact Mass>
532.2198441

>  <XLogP3>
4.11

>  <Heavy Atom Count>
39

>  <Ring Count>
5

>  <Hydrogen Bond Acceptor Count>
6

>  <Hydrogen Bond Donor Count>
1

>  <Rotatable Bond Count>
4

>  <Topological Polar Surface Area>
65.77

>  <Molecular Formula>
C29H27F3N6O

>  <InChI>
InChI=1S/C29H27F3N6O/c1-20-5-6-22(16-21(20)8-10-25-18-33-27-4-3-11-34-38(25)27)28(39)35-24-9-7-23(26(17-24)29(30,31)32)19-37-14-12-36(2)13-15-37/h3-7,9,11,16-18H,12-15,19H2,1-2H3,(H,35,39)

>  <InChI Key>
PHXJVRSECIGDHY-UHFFFAOYSA-N

>  <BindingDB>
50322535

>  <PubChem>
24826799

>  <ChEMBL>
CHEMBL1171837

$$$$
196
Actelion Java MolfileCreator 2.0

  0  0  0  0  0  0              0 V3000
M  V30 BEGIN CTAB
M  V30 COUNTS 39 43 0 0 0
M  V30 BEGIN ATOM
M  V30 1 F 5.6961 0.366 0.0 0
M  V30 2 C 5.1961 -0.5 0.0 0
M  V30 3 F 6.0621 -1.0 0.0 0
M  V30 4 F 4.6961 -1.366 0.0 0
M  V30 5 C 4.3301 0.0 0.0 0
M  V30 6 C 4.3301 1.0 0.0 0
M  V30 7 C 3.4641 -0.4999 0.0 0
M  V30 8 C 3.4641 1.5 0.0 0
M  V30 9 C 5.1961 1.5 0.0 0
M  V30 10 C 2.598 0.0 0.0 0
M  V30 11 C 2.598 1.0 0.0 0
M  V30 12 N 5.1961 2.5 0.0 0
M  V30 13 N 1.732 -0.5 0.0 0
M  V30 14 C 6.0621 2.9999 0.0 0
M  V30 15 C 4.3301 3.0 0.0 0
M  V30 16 C 0.866 0.0 0.0 0
M  V30 17 C 6.0621 3.9999 0.0 0
M  V30 18 C 4.3301 4.0 0.0 0
M  V30 19 O 0.866 1.0 0.0 0
M  V30 20 C 0.0 -0.5 0.0 0
M  V30 21 N 5.1961 4.4999 0.0 0
M  V30 22 C -0.866 0.0 0.0 0
M  V30 23 C 0.0 -1.5 0.0 0
M  V30 24 C 5.1961 5.4999 0.0 0
M  V30 25 C -1.732 -0.4999 0.0 0
M  V30 26 C -0.866 -1.9999 0.0 0
M  V30 27 C -2.598 0.0 0.0 0
M  V30 28 C -1.732 -1.4999 0.0 0
M  V30 29 C -3.4641 0.5 0.0 0
M  V30 30 C -2.598 -1.9999 0.0 0
M  V30 31 C -4.3301 1.0 0.0 0
M  V30 32 N -4.4346 1.9945 0.0 0
M  V30 33 C -5.2436 0.5932 0.0 0
M  V30 34 N -3.7655 2.7376 0.0 0
M  V30 35 C -5.4128 2.2024 0.0 0
M  V30 36 N -5.9128 1.3364 0.0 0
M  V30 37 C -4.0745 3.6887 0.0 0
M  V30 38 C -5.7218 3.1534 0.0 0
M  V30 39 C -5.0526 3.8966 0.0 0
M  V30 END ATOM
M  V30 BEGIN BOND
M  V30 1 1 1 2
M  V30 2 1 2 3
M  V30 3 1 2 4
M  V30 4 1 2 5
M  V30 5 2 5 6
M  V30 6 1 5 7
M  V30 7 1 6 8
M  V30 8 1 6 9
M  V30 9 2 7 10
M  V30 10 2 8 11
M  V30 11 1 9 12
M  V30 12 1 10 13
M  V30 13 1 12 14
M  V30 14 1 12 15
M  V30 15 1 13 16
M  V30 16 1 14 17
M  V30 17 1 15 18
M  V30 18 2 16 19
M  V30 19 1 16 20
M  V30 20 1 17 21
M  V30 21 2 20 22
M  V30 22 1 20 23
M  V30 23 1 21 24
M  V30 24 1 22 25
M  V30 25 2 23 26
M  V30 26 1 25 27
M  V30 27 2 25 28
M  V30 28 3 27 29
M  V30 29 1 28 30
M  V30 30 1 29 31
M  V30 31 1 31 32
M  V30 32 2 31 33
M  V30 33 1 32 34
M  V30 34 1 32 35
M  V30 35 1 33 36
M  V30 36 2 34 37
M  V30 37 1 35 38
M  V30 38 1 37 39
M  V30 39 1 10 11
M  V30 40 1 18 21
M  V30 41 1 26 28
M  V30 42 2 35 36
M  V30 43 2 38 39
M  V30 END BOND
M  V30 END CTAB
M  END
>  <Molecule Name>
Compound 584

>  <Molecule Name 2>
Compound 584

>  <Compound ID>
196

>  <Name>
Ponatinib

>  <Uniprot>
Q15120

>  <Target>
PDK3

>  <Smiles>
CC1=CC=C(C(=O)NC2=CC=C(CN3CCN(C)CC3)C(C(F)(F)F)=C2)C=C1C#CC1=CN=C2C=CC=NN12

>  <Kd (nM)>


>  <Assay (Kd)>


>  <Ki (nM)>


>  <Assay (Ki)>


>  <IC50 (nM)>


>  <Assay (IC50)>


>  <EC50 (nM)>


>  <Assay (EC50)>


>  <Article DOI>
10.1016/j.cell.2020.10.038

>  <Molecular Weight>
532.57

>  <Exact Mass>
532.2198441

>  <XLogP3>
4.11

>  <Heavy Atom Count>
39

>  <Ring Count>
5

>  <Hydrogen Bond Acceptor Count>
6

>  <Hydrogen Bond Donor Count>
1

>  <Rotatable Bond Count>
4

>  <Topological Polar Surface Area>
65.77

>  <Molecular Formula>
C29H27F3N6O

>  <InChI>
InChI=1S/C29H27F3N6O/c1-20-5-6-22(16-21(20)8-10-25-18-33-27-4-3-11-34-38(25)27)28(39)35-24-9-7-23(26(17-24)29(30,31)32)19-37-14-12-36(2)13-15-37/h3-7,9,11,16-18H,12-15,19H2,1-2H3,(H,35,39)

>  <InChI Key>
PHXJVRSECIGDHY-UHFFFAOYSA-N

>  <BindingDB>
50322535

>  <PubChem>
24826799

>  <ChEMBL>
CHEMBL1171837

$$$$
196
Actelion Java MolfileCreator 2.0

  0  0  0  0  0  0              0 V3000
M  V30 BEGIN CTAB
M  V30 COUNTS 39 43 0 0 0
M  V30 BEGIN ATOM
M  V30 1 F 5.6961 0.366 0.0 0
M  V30 2 C 5.1961 -0.5 0.0 0
M  V30 3 F 6.0621 -1.0 0.0 0
M  V30 4 F 4.6961 -1.366 0.0 0
M  V30 5 C 4.3301 0.0 0.0 0
M  V30 6 C 4.3301 1.0 0.0 0
M  V30 7 C 3.4641 -0.4999 0.0 0
M  V30 8 C 3.4641 1.5 0.0 0
M  V30 9 C 5.1961 1.5 0.0 0
M  V30 10 C 2.598 0.0 0.0 0
M  V30 11 C 2.598 1.0 0.0 0
M  V30 12 N 5.1961 2.5 0.0 0
M  V30 13 N 1.732 -0.5 0.0 0
M  V30 14 C 6.0621 2.9999 0.0 0
M  V30 15 C 4.3301 3.0 0.0 0
M  V30 16 C 0.866 0.0 0.0 0
M  V30 17 C 6.0621 3.9999 0.0 0
M  V30 18 C 4.3301 4.0 0.0 0
M  V30 19 O 0.866 1.0 0.0 0
M  V30 20 C 0.0 -0.5 0.0 0
M  V30 21 N 5.1961 4.4999 0.0 0
M  V30 22 C -0.866 0.0 0.0 0
M  V30 23 C 0.0 -1.5 0.0 0
M  V30 24 C 5.1961 5.4999 0.0 0
M  V30 25 C -1.732 -0.4999 0.0 0
M  V30 26 C -0.866 -1.9999 0.0 0
M  V30 27 C -2.598 0.0 0.0 0
M  V30 28 C -1.732 -1.4999 0.0 0
M  V30 29 C -3.4641 0.5 0.0 0
M  V30 30 C -2.598 -1.9999 0.0 0
M  V30 31 C -4.3301 1.0 0.0 0
M  V30 32 N -4.4346 1.9945 0.0 0
M  V30 33 C -5.2436 0.5932 0.0 0
M  V30 34 N -3.7655 2.7376 0.0 0
M  V30 35 C -5.4128 2.2024 0.0 0
M  V30 36 N -5.9128 1.3364 0.0 0
M  V30 37 C -4.0745 3.6887 0.0 0
M  V30 38 C -5.7218 3.1534 0.0 0
M  V30 39 C -5.0526 3.8966 0.0 0
M  V30 END ATOM
M  V30 BEGIN BOND
M  V30 1 1 1 2
M  V30 2 1 2 3
M  V30 3 1 2 4
M  V30 4 1 2 5
M  V30 5 2 5 6
M  V30 6 1 5 7
M  V30 7 1 6 8
M  V30 8 1 6 9
M  V30 9 2 7 10
M  V30 10 2 8 11
M  V30 11 1 9 12
M  V30 12 1 10 13
M  V30 13 1 12 14
M  V30 14 1 12 15
M  V30 15 1 13 16
M  V30 16 1 14 17
M  V30 17 1 15 18
M  V30 18 2 16 19
M  V30 19 1 16 20
M  V30 20 1 17 21
M  V30 21 2 20 22
M  V30 22 1 20 23
M  V30 23 1 21 24
M  V30 24 1 22 25
M  V30 25 2 23 26
M  V30 26 1 25 27
M  V30 27 2 25 28
M  V30 28 3 27 29
M  V30 29 1 28 30
M  V30 30 1 29 31
M  V30 31 1 31 32
M  V30 32 2 31 33
M  V30 33 1 32 34
M  V30 34 1 32 35
M  V30 35 1 33 36
M  V30 36 2 34 37
M  V30 37 1 35 38
M  V30 38 1 37 39
M  V30 39 1 10 11
M  V30 40 1 18 21
M  V30 41 1 26 28
M  V30 42 2 35 36
M  V30 43 2 38 39
M  V30 END BOND
M  V30 END CTAB
M  END
>  <Molecule Name>
Compound 585

>  <Molecule Name 2>
Compound 585

>  <Compound ID>
196

>  <Name>
Ponatinib

>  <Uniprot>
Q13546

>  <Target>
RIPK1

>  <Smiles>
CC1=CC=C(C(=O)NC2=CC=C(CN3CCN(C)CC3)C(C(F)(F)F)=C2)C=C1C#CC1=CN=C2C=CC=NN12

>  <Kd (nM)>


>  <Assay (Kd)>


>  <Ki (nM)>


>  <Assay (Ki)>


>  <IC50 (nM)>
12

>  <Assay (IC50)>
Inhibition of recombinant GST-tagged RIPK1 expressed in baculovirus infected Sf9 insect cells incubated for 4 hrs by ADP-Glo assay

>  <EC50 (nM)>


>  <Assay (EC50)>


>  <Article DOI>
10.1021/acs.jmedchem.9b01317

>  <Molecular Weight>
532.57

>  <Exact Mass>
532.2198441

>  <XLogP3>
4.11

>  <Heavy Atom Count>
39

>  <Ring Count>
5

>  <Hydrogen Bond Acceptor Count>
6

>  <Hydrogen Bond Donor Count>
1

>  <Rotatable Bond Count>
4

>  <Topological Polar Surface Area>
65.77

>  <Molecular Formula>
C29H27F3N6O

>  <InChI>
InChI=1S/C29H27F3N6O/c1-20-5-6-22(16-21(20)8-10-25-18-33-27-4-3-11-34-38(25)27)28(39)35-24-9-7-23(26(17-24)29(30,31)32)19-37-14-12-36(2)13-15-37/h3-7,9,11,16-18H,12-15,19H2,1-2H3,(H,35,39)

>  <InChI Key>
PHXJVRSECIGDHY-UHFFFAOYSA-N

>  <BindingDB>
50322535

>  <PubChem>
24826799

>  <ChEMBL>
CHEMBL1171837

$$$$
196
Actelion Java MolfileCreator 2.0

  0  0  0  0  0  0              0 V3000
M  V30 BEGIN CTAB
M  V30 COUNTS 39 43 0 0 0
M  V30 BEGIN ATOM
M  V30 1 F 5.6961 0.366 0.0 0
M  V30 2 C 5.1961 -0.5 0.0 0
M  V30 3 F 6.0621 -1.0 0.0 0
M  V30 4 F 4.6961 -1.366 0.0 0
M  V30 5 C 4.3301 0.0 0.0 0
M  V30 6 C 4.3301 1.0 0.0 0
M  V30 7 C 3.4641 -0.4999 0.0 0
M  V30 8 C 3.4641 1.5 0.0 0
M  V30 9 C 5.1961 1.5 0.0 0
M  V30 10 C 2.598 0.0 0.0 0
M  V30 11 C 2.598 1.0 0.0 0
M  V30 12 N 5.1961 2.5 0.0 0
M  V30 13 N 1.732 -0.5 0.0 0
M  V30 14 C 6.0621 2.9999 0.0 0
M  V30 15 C 4.3301 3.0 0.0 0
M  V30 16 C 0.866 0.0 0.0 0
M  V30 17 C 6.0621 3.9999 0.0 0
M  V30 18 C 4.3301 4.0 0.0 0
M  V30 19 O 0.866 1.0 0.0 0
M  V30 20 C 0.0 -0.5 0.0 0
M  V30 21 N 5.1961 4.4999 0.0 0
M  V30 22 C -0.866 0.0 0.0 0
M  V30 23 C 0.0 -1.5 0.0 0
M  V30 24 C 5.1961 5.4999 0.0 0
M  V30 25 C -1.732 -0.4999 0.0 0
M  V30 26 C -0.866 -1.9999 0.0 0
M  V30 27 C -2.598 0.0 0.0 0
M  V30 28 C -1.732 -1.4999 0.0 0
M  V30 29 C -3.4641 0.5 0.0 0
M  V30 30 C -2.598 -1.9999 0.0 0
M  V30 31 C -4.3301 1.0 0.0 0
M  V30 32 N -4.4346 1.9945 0.0 0
M  V30 33 C -5.2436 0.5932 0.0 0
M  V30 34 N -3.7655 2.7376 0.0 0
M  V30 35 C -5.4128 2.2024 0.0 0
M  V30 36 N -5.9128 1.3364 0.0 0
M  V30 37 C -4.0745 3.6887 0.0 0
M  V30 38 C -5.7218 3.1534 0.0 0
M  V30 39 C -5.0526 3.8966 0.0 0
M  V30 END ATOM
M  V30 BEGIN BOND
M  V30 1 1 1 2
M  V30 2 1 2 3
M  V30 3 1 2 4
M  V30 4 1 2 5
M  V30 5 2 5 6
M  V30 6 1 5 7
M  V30 7 1 6 8
M  V30 8 1 6 9
M  V30 9 2 7 10
M  V30 10 2 8 11
M  V30 11 1 9 12
M  V30 12 1 10 13
M  V30 13 1 12 14
M  V30 14 1 12 15
M  V30 15 1 13 16
M  V30 16 1 14 17
M  V30 17 1 15 18
M  V30 18 2 16 19
M  V30 19 1 16 20
M  V30 20 1 17 21
M  V30 21 2 20 22
M  V30 22 1 20 23
M  V30 23 1 21 24
M  V30 24 1 22 25
M  V30 25 2 23 26
M  V30 26 1 25 27
M  V30 27 2 25 28
M  V30 28 3 27 29
M  V30 29 1 28 30
M  V30 30 1 29 31
M  V30 31 1 31 32
M  V30 32 2 31 33
M  V30 33 1 32 34
M  V30 34 1 32 35
M  V30 35 1 33 36
M  V30 36 2 34 37
M  V30 37 1 35 38
M  V30 38 1 37 39
M  V30 39 1 10 11
M  V30 40 1 18 21
M  V30 41 1 26 28
M  V30 42 2 35 36
M  V30 43 2 38 39
M  V30 END BOND
M  V30 END CTAB
M  END
>  <Molecule Name>
Compound 586

>  <Molecule Name 2>
Compound 586

>  <Compound ID>
196

>  <Name>
Ponatinib

>  <Uniprot>
O43353

>  <Target>
RIPK2

>  <Smiles>
CC1=CC=C(C(=O)NC2=CC=C(CN3CCN(C)CC3)C(C(F)(F)F)=C2)C=C1C#CC1=CN=C2C=CC=NN12

>  <Kd (nM)>
83

>  <Assay (Kd)>
Kd apparent of RIPK2

>  <Ki (nM)>


>  <Assay (Ki)>


>  <IC50 (nM)>


>  <Assay (IC50)>


>  <EC50 (nM)>


>  <Assay (EC50)>


>  <Article DOI>
10.1126/science.aan4368

>  <Molecular Weight>
532.57

>  <Exact Mass>
532.2198441

>  <XLogP3>
4.11

>  <Heavy Atom Count>
39

>  <Ring Count>
5

>  <Hydrogen Bond Acceptor Count>
6

>  <Hydrogen Bond Donor Count>
1

>  <Rotatable Bond Count>
4

>  <Topological Polar Surface Area>
65.77

>  <Molecular Formula>
C29H27F3N6O

>  <InChI>
InChI=1S/C29H27F3N6O/c1-20-5-6-22(16-21(20)8-10-25-18-33-27-4-3-11-34-38(25)27)28(39)35-24-9-7-23(26(17-24)29(30,31)32)19-37-14-12-36(2)13-15-37/h3-7,9,11,16-18H,12-15,19H2,1-2H3,(H,35,39)

>  <InChI Key>
PHXJVRSECIGDHY-UHFFFAOYSA-N

>  <BindingDB>
50322535

>  <PubChem>
24826799

>  <ChEMBL>
CHEMBL1171837

$$$$
196
Actelion Java MolfileCreator 2.0

  0  0  0  0  0  0              0 V3000
M  V30 BEGIN CTAB
M  V30 COUNTS 39 43 0 0 0
M  V30 BEGIN ATOM
M  V30 1 F 5.6961 0.366 0.0 0
M  V30 2 C 5.1961 -0.5 0.0 0
M  V30 3 F 6.0621 -1.0 0.0 0
M  V30 4 F 4.6961 -1.366 0.0 0
M  V30 5 C 4.3301 0.0 0.0 0
M  V30 6 C 4.3301 1.0 0.0 0
M  V30 7 C 3.4641 -0.4999 0.0 0
M  V30 8 C 3.4641 1.5 0.0 0
M  V30 9 C 5.1961 1.5 0.0 0
M  V30 10 C 2.598 0.0 0.0 0
M  V30 11 C 2.598 1.0 0.0 0
M  V30 12 N 5.1961 2.5 0.0 0
M  V30 13 N 1.732 -0.5 0.0 0
M  V30 14 C 6.0621 2.9999 0.0 0
M  V30 15 C 4.3301 3.0 0.0 0
M  V30 16 C 0.866 0.0 0.0 0
M  V30 17 C 6.0621 3.9999 0.0 0
M  V30 18 C 4.3301 4.0 0.0 0
M  V30 19 O 0.866 1.0 0.0 0
M  V30 20 C 0.0 -0.5 0.0 0
M  V30 21 N 5.1961 4.4999 0.0 0
M  V30 22 C -0.866 0.0 0.0 0
M  V30 23 C 0.0 -1.5 0.0 0
M  V30 24 C 5.1961 5.4999 0.0 0
M  V30 25 C -1.732 -0.4999 0.0 0
M  V30 26 C -0.866 -1.9999 0.0 0
M  V30 27 C -2.598 0.0 0.0 0
M  V30 28 C -1.732 -1.4999 0.0 0
M  V30 29 C -3.4641 0.5 0.0 0
M  V30 30 C -2.598 -1.9999 0.0 0
M  V30 31 C -4.3301 1.0 0.0 0
M  V30 32 N -4.4346 1.9945 0.0 0
M  V30 33 C -5.2436 0.5932 0.0 0
M  V30 34 N -3.7655 2.7376 0.0 0
M  V30 35 C -5.4128 2.2024 0.0 0
M  V30 36 N -5.9128 1.3364 0.0 0
M  V30 37 C -4.0745 3.6887 0.0 0
M  V30 38 C -5.7218 3.1534 0.0 0
M  V30 39 C -5.0526 3.8966 0.0 0
M  V30 END ATOM
M  V30 BEGIN BOND
M  V30 1 1 1 2
M  V30 2 1 2 3
M  V30 3 1 2 4
M  V30 4 1 2 5
M  V30 5 2 5 6
M  V30 6 1 5 7
M  V30 7 1 6 8
M  V30 8 1 6 9
M  V30 9 2 7 10
M  V30 10 2 8 11
M  V30 11 1 9 12
M  V30 12 1 10 13
M  V30 13 1 12 14
M  V30 14 1 12 15
M  V30 15 1 13 16
M  V30 16 1 14 17
M  V30 17 1 15 18
M  V30 18 2 16 19
M  V30 19 1 16 20
M  V30 20 1 17 21
M  V30 21 2 20 22
M  V30 22 1 20 23
M  V30 23 1 21 24
M  V30 24 1 22 25
M  V30 25 2 23 26
M  V30 26 1 25 27
M  V30 27 2 25 28
M  V30 28 3 27 29
M  V30 29 1 28 30
M  V30 30 1 29 31
M  V30 31 1 31 32
M  V30 32 2 31 33
M  V30 33 1 32 34
M  V30 34 1 32 35
M  V30 35 1 33 36
M  V30 36 2 34 37
M  V30 37 1 35 38
M  V30 38 1 37 39
M  V30 39 1 10 11
M  V30 40 1 18 21
M  V30 41 1 26 28
M  V30 42 2 35 36
M  V30 43 2 38 39
M  V30 END BOND
M  V30 END CTAB
M  END
>  <Molecule Name>
Compound 587

>  <Molecule Name 2>
Compound 587

>  <Compound ID>
196

>  <Name>
Ponatinib

>  <Uniprot>
P12931

>  <Target>
Src

>  <Smiles>
CC1=CC=C(C(=O)NC2=CC=C(CN3CCN(C)CC3)C(C(F)(F)F)=C2)C=C1C#CC1=CN=C2C=CC=NN12

>  <Kd (nM)>
367

>  <Assay (Kd)>
Kd apparent of Src

>  <Ki (nM)>


>  <Assay (Ki)>


>  <IC50 (nM)>


>  <Assay (IC50)>


>  <EC50 (nM)>


>  <Assay (EC50)>


>  <Article DOI>
10.1126/science.aan4368

>  <Molecular Weight>
532.57

>  <Exact Mass>
532.2198441

>  <XLogP3>
4.11

>  <Heavy Atom Count>
39

>  <Ring Count>
5

>  <Hydrogen Bond Acceptor Count>
6

>  <Hydrogen Bond Donor Count>
1

>  <Rotatable Bond Count>
4

>  <Topological Polar Surface Area>
65.77

>  <Molecular Formula>
C29H27F3N6O

>  <InChI>
InChI=1S/C29H27F3N6O/c1-20-5-6-22(16-21(20)8-10-25-18-33-27-4-3-11-34-38(25)27)28(39)35-24-9-7-23(26(17-24)29(30,31)32)19-37-14-12-36(2)13-15-37/h3-7,9,11,16-18H,12-15,19H2,1-2H3,(H,35,39)

>  <InChI Key>
PHXJVRSECIGDHY-UHFFFAOYSA-N

>  <BindingDB>
50322535

>  <PubChem>
24826799

>  <ChEMBL>
CHEMBL1171837

$$$$
196
Actelion Java MolfileCreator 2.0

  0  0  0  0  0  0              0 V3000
M  V30 BEGIN CTAB
M  V30 COUNTS 39 43 0 0 0
M  V30 BEGIN ATOM
M  V30 1 F 5.6961 0.366 0.0 0
M  V30 2 C 5.1961 -0.5 0.0 0
M  V30 3 F 6.0621 -1.0 0.0 0
M  V30 4 F 4.6961 -1.366 0.0 0
M  V30 5 C 4.3301 0.0 0.0 0
M  V30 6 C 4.3301 1.0 0.0 0
M  V30 7 C 3.4641 -0.4999 0.0 0
M  V30 8 C 3.4641 1.5 0.0 0
M  V30 9 C 5.1961 1.5 0.0 0
M  V30 10 C 2.598 0.0 0.0 0
M  V30 11 C 2.598 1.0 0.0 0
M  V30 12 N 5.1961 2.5 0.0 0
M  V30 13 N 1.732 -0.5 0.0 0
M  V30 14 C 6.0621 2.9999 0.0 0
M  V30 15 C 4.3301 3.0 0.0 0
M  V30 16 C 0.866 0.0 0.0 0
M  V30 17 C 6.0621 3.9999 0.0 0
M  V30 18 C 4.3301 4.0 0.0 0
M  V30 19 O 0.866 1.0 0.0 0
M  V30 20 C 0.0 -0.5 0.0 0
M  V30 21 N 5.1961 4.4999 0.0 0
M  V30 22 C -0.866 0.0 0.0 0
M  V30 23 C 0.0 -1.5 0.0 0
M  V30 24 C 5.1961 5.4999 0.0 0
M  V30 25 C -1.732 -0.4999 0.0 0
M  V30 26 C -0.866 -1.9999 0.0 0
M  V30 27 C -2.598 0.0 0.0 0
M  V30 28 C -1.732 -1.4999 0.0 0
M  V30 29 C -3.4641 0.5 0.0 0
M  V30 30 C -2.598 -1.9999 0.0 0
M  V30 31 C -4.3301 1.0 0.0 0
M  V30 32 N -4.4346 1.9945 0.0 0
M  V30 33 C -5.2436 0.5932 0.0 0
M  V30 34 N -3.7655 2.7376 0.0 0
M  V30 35 C -5.4128 2.2024 0.0 0
M  V30 36 N -5.9128 1.3364 0.0 0
M  V30 37 C -4.0745 3.6887 0.0 0
M  V30 38 C -5.7218 3.1534 0.0 0
M  V30 39 C -5.0526 3.8966 0.0 0
M  V30 END ATOM
M  V30 BEGIN BOND
M  V30 1 1 1 2
M  V30 2 1 2 3
M  V30 3 1 2 4
M  V30 4 1 2 5
M  V30 5 2 5 6
M  V30 6 1 5 7
M  V30 7 1 6 8
M  V30 8 1 6 9
M  V30 9 2 7 10
M  V30 10 2 8 11
M  V30 11 1 9 12
M  V30 12 1 10 13
M  V30 13 1 12 14
M  V30 14 1 12 15
M  V30 15 1 13 16
M  V30 16 1 14 17
M  V30 17 1 15 18
M  V30 18 2 16 19
M  V30 19 1 16 20
M  V30 20 1 17 21
M  V30 21 2 20 22
M  V30 22 1 20 23
M  V30 23 1 21 24
M  V30 24 1 22 25
M  V30 25 2 23 26
M  V30 26 1 25 27
M  V30 27 2 25 28
M  V30 28 3 27 29
M  V30 29 1 28 30
M  V30 30 1 29 31
M  V30 31 1 31 32
M  V30 32 2 31 33
M  V30 33 1 32 34
M  V30 34 1 32 35
M  V30 35 1 33 36
M  V30 36 2 34 37
M  V30 37 1 35 38
M  V30 38 1 37 39
M  V30 39 1 10 11
M  V30 40 1 18 21
M  V30 41 1 26 28
M  V30 42 2 35 36
M  V30 43 2 38 39
M  V30 END BOND
M  V30 END CTAB
M  END
>  <Molecule Name>
Compound 588

>  <Molecule Name 2>
Compound 588

>  <Compound ID>
196

>  <Name>
Ponatinib

>  <Uniprot>
O94804

>  <Target>
STK10

>  <Smiles>
CC1=CC=C(C(=O)NC2=CC=C(CN3CCN(C)CC3)C(C(F)(F)F)=C2)C=C1C#CC1=CN=C2C=CC=NN12

>  <Kd (nM)>


>  <Assay (Kd)>


>  <Ki (nM)>


>  <Assay (Ki)>


>  <IC50 (nM)>


>  <Assay (IC50)>


>  <EC50 (nM)>


>  <Assay (EC50)>


>  <Article DOI>
10.1016/j.cell.2020.10.038

>  <Molecular Weight>
532.57

>  <Exact Mass>
532.2198441

>  <XLogP3>
4.11

>  <Heavy Atom Count>
39

>  <Ring Count>
5

>  <Hydrogen Bond Acceptor Count>
6

>  <Hydrogen Bond Donor Count>
1

>  <Rotatable Bond Count>
4

>  <Topological Polar Surface Area>
65.77

>  <Molecular Formula>
C29H27F3N6O

>  <InChI>
InChI=1S/C29H27F3N6O/c1-20-5-6-22(16-21(20)8-10-25-18-33-27-4-3-11-34-38(25)27)28(39)35-24-9-7-23(26(17-24)29(30,31)32)19-37-14-12-36(2)13-15-37/h3-7,9,11,16-18H,12-15,19H2,1-2H3,(H,35,39)

>  <InChI Key>
PHXJVRSECIGDHY-UHFFFAOYSA-N

>  <BindingDB>
50322535

>  <PubChem>
24826799

>  <ChEMBL>
CHEMBL1171837

$$$$
196
Actelion Java MolfileCreator 2.0

  0  0  0  0  0  0              0 V3000
M  V30 BEGIN CTAB
M  V30 COUNTS 39 43 0 0 0
M  V30 BEGIN ATOM
M  V30 1 F 5.6961 0.366 0.0 0
M  V30 2 C 5.1961 -0.5 0.0 0
M  V30 3 F 6.0621 -1.0 0.0 0
M  V30 4 F 4.6961 -1.366 0.0 0
M  V30 5 C 4.3301 0.0 0.0 0
M  V30 6 C 4.3301 1.0 0.0 0
M  V30 7 C 3.4641 -0.4999 0.0 0
M  V30 8 C 3.4641 1.5 0.0 0
M  V30 9 C 5.1961 1.5 0.0 0
M  V30 10 C 2.598 0.0 0.0 0
M  V30 11 C 2.598 1.0 0.0 0
M  V30 12 N 5.1961 2.5 0.0 0
M  V30 13 N 1.732 -0.5 0.0 0
M  V30 14 C 6.0621 2.9999 0.0 0
M  V30 15 C 4.3301 3.0 0.0 0
M  V30 16 C 0.866 0.0 0.0 0
M  V30 17 C 6.0621 3.9999 0.0 0
M  V30 18 C 4.3301 4.0 0.0 0
M  V30 19 O 0.866 1.0 0.0 0
M  V30 20 C 0.0 -0.5 0.0 0
M  V30 21 N 5.1961 4.4999 0.0 0
M  V30 22 C -0.866 0.0 0.0 0
M  V30 23 C 0.0 -1.5 0.0 0
M  V30 24 C 5.1961 5.4999 0.0 0
M  V30 25 C -1.732 -0.4999 0.0 0
M  V30 26 C -0.866 -1.9999 0.0 0
M  V30 27 C -2.598 0.0 0.0 0
M  V30 28 C -1.732 -1.4999 0.0 0
M  V30 29 C -3.4641 0.5 0.0 0
M  V30 30 C -2.598 -1.9999 0.0 0
M  V30 31 C -4.3301 1.0 0.0 0
M  V30 32 N -4.4346 1.9945 0.0 0
M  V30 33 C -5.2436 0.5932 0.0 0
M  V30 34 N -3.7655 2.7376 0.0 0
M  V30 35 C -5.4128 2.2024 0.0 0
M  V30 36 N -5.9128 1.3364 0.0 0
M  V30 37 C -4.0745 3.6887 0.0 0
M  V30 38 C -5.7218 3.1534 0.0 0
M  V30 39 C -5.0526 3.8966 0.0 0
M  V30 END ATOM
M  V30 BEGIN BOND
M  V30 1 1 1 2
M  V30 2 1 2 3
M  V30 3 1 2 4
M  V30 4 1 2 5
M  V30 5 2 5 6
M  V30 6 1 5 7
M  V30 7 1 6 8
M  V30 8 1 6 9
M  V30 9 2 7 10
M  V30 10 2 8 11
M  V30 11 1 9 12
M  V30 12 1 10 13
M  V30 13 1 12 14
M  V30 14 1 12 15
M  V30 15 1 13 16
M  V30 16 1 14 17
M  V30 17 1 15 18
M  V30 18 2 16 19
M  V30 19 1 16 20
M  V30 20 1 17 21
M  V30 21 2 20 22
M  V30 22 1 20 23
M  V30 23 1 21 24
M  V30 24 1 22 25
M  V30 25 2 23 26
M  V30 26 1 25 27
M  V30 27 2 25 28
M  V30 28 3 27 29
M  V30 29 1 28 30
M  V30 30 1 29 31
M  V30 31 1 31 32
M  V30 32 2 31 33
M  V30 33 1 32 34
M  V30 34 1 32 35
M  V30 35 1 33 36
M  V30 36 2 34 37
M  V30 37 1 35 38
M  V30 38 1 37 39
M  V30 39 1 10 11
M  V30 40 1 18 21
M  V30 41 1 26 28
M  V30 42 2 35 36
M  V30 43 2 38 39
M  V30 END BOND
M  V30 END CTAB
M  END
>  <Molecule Name>
Compound 589

>  <Molecule Name 2>
Compound 589

>  <Compound ID>
196

>  <Name>
Ponatinib

>  <Uniprot>
Q9H2K8

>  <Target>
TAOK3

>  <Smiles>
CC1=CC=C(C(=O)NC2=CC=C(CN3CCN(C)CC3)C(C(F)(F)F)=C2)C=C1C#CC1=CN=C2C=CC=NN12

>  <Kd (nM)>


>  <Assay (Kd)>


>  <Ki (nM)>


>  <Assay (Ki)>


>  <IC50 (nM)>


>  <Assay (IC50)>


>  <EC50 (nM)>


>  <Assay (EC50)>


>  <Article DOI>
10.1016/j.cell.2020.10.038

>  <Molecular Weight>
532.57

>  <Exact Mass>
532.2198441

>  <XLogP3>
4.11

>  <Heavy Atom Count>
39

>  <Ring Count>
5

>  <Hydrogen Bond Acceptor Count>
6

>  <Hydrogen Bond Donor Count>
1

>  <Rotatable Bond Count>
4

>  <Topological Polar Surface Area>
65.77

>  <Molecular Formula>
C29H27F3N6O

>  <InChI>
InChI=1S/C29H27F3N6O/c1-20-5-6-22(16-21(20)8-10-25-18-33-27-4-3-11-34-38(25)27)28(39)35-24-9-7-23(26(17-24)29(30,31)32)19-37-14-12-36(2)13-15-37/h3-7,9,11,16-18H,12-15,19H2,1-2H3,(H,35,39)

>  <InChI Key>
PHXJVRSECIGDHY-UHFFFAOYSA-N

>  <BindingDB>
50322535

>  <PubChem>
24826799

>  <ChEMBL>
CHEMBL1171837

$$$$
196
Actelion Java MolfileCreator 2.0

  0  0  0  0  0  0              0 V3000
M  V30 BEGIN CTAB
M  V30 COUNTS 39 43 0 0 0
M  V30 BEGIN ATOM
M  V30 1 F 5.6961 0.366 0.0 0
M  V30 2 C 5.1961 -0.5 0.0 0
M  V30 3 F 6.0621 -1.0 0.0 0
M  V30 4 F 4.6961 -1.366 0.0 0
M  V30 5 C 4.3301 0.0 0.0 0
M  V30 6 C 4.3301 1.0 0.0 0
M  V30 7 C 3.4641 -0.4999 0.0 0
M  V30 8 C 3.4641 1.5 0.0 0
M  V30 9 C 5.1961 1.5 0.0 0
M  V30 10 C 2.598 0.0 0.0 0
M  V30 11 C 2.598 1.0 0.0 0
M  V30 12 N 5.1961 2.5 0.0 0
M  V30 13 N 1.732 -0.5 0.0 0
M  V30 14 C 6.0621 2.9999 0.0 0
M  V30 15 C 4.3301 3.0 0.0 0
M  V30 16 C 0.866 0.0 0.0 0
M  V30 17 C 6.0621 3.9999 0.0 0
M  V30 18 C 4.3301 4.0 0.0 0
M  V30 19 O 0.866 1.0 0.0 0
M  V30 20 C 0.0 -0.5 0.0 0
M  V30 21 N 5.1961 4.4999 0.0 0
M  V30 22 C -0.866 0.0 0.0 0
M  V30 23 C 0.0 -1.5 0.0 0
M  V30 24 C 5.1961 5.4999 0.0 0
M  V30 25 C -1.732 -0.4999 0.0 0
M  V30 26 C -0.866 -1.9999 0.0 0
M  V30 27 C -2.598 0.0 0.0 0
M  V30 28 C -1.732 -1.4999 0.0 0
M  V30 29 C -3.4641 0.5 0.0 0
M  V30 30 C -2.598 -1.9999 0.0 0
M  V30 31 C -4.3301 1.0 0.0 0
M  V30 32 N -4.4346 1.9945 0.0 0
M  V30 33 C -5.2436 0.5932 0.0 0
M  V30 34 N -3.7655 2.7376 0.0 0
M  V30 35 C -5.4128 2.2024 0.0 0
M  V30 36 N -5.9128 1.3364 0.0 0
M  V30 37 C -4.0745 3.6887 0.0 0
M  V30 38 C -5.7218 3.1534 0.0 0
M  V30 39 C -5.0526 3.8966 0.0 0
M  V30 END ATOM
M  V30 BEGIN BOND
M  V30 1 1 1 2
M  V30 2 1 2 3
M  V30 3 1 2 4
M  V30 4 1 2 5
M  V30 5 2 5 6
M  V30 6 1 5 7
M  V30 7 1 6 8
M  V30 8 1 6 9
M  V30 9 2 7 10
M  V30 10 2 8 11
M  V30 11 1 9 12
M  V30 12 1 10 13
M  V30 13 1 12 14
M  V30 14 1 12 15
M  V30 15 1 13 16
M  V30 16 1 14 17
M  V30 17 1 15 18
M  V30 18 2 16 19
M  V30 19 1 16 20
M  V30 20 1 17 21
M  V30 21 2 20 22
M  V30 22 1 20 23
M  V30 23 1 21 24
M  V30 24 1 22 25
M  V30 25 2 23 26
M  V30 26 1 25 27
M  V30 27 2 25 28
M  V30 28 3 27 29
M  V30 29 1 28 30
M  V30 30 1 29 31
M  V30 31 1 31 32
M  V30 32 2 31 33
M  V30 33 1 32 34
M  V30 34 1 32 35
M  V30 35 1 33 36
M  V30 36 2 34 37
M  V30 37 1 35 38
M  V30 38 1 37 39
M  V30 39 1 10 11
M  V30 40 1 18 21
M  V30 41 1 26 28
M  V30 42 2 35 36
M  V30 43 2 38 39
M  V30 END BOND
M  V30 END CTAB
M  END
>  <Molecule Name>
Compound 590

>  <Molecule Name 2>
Compound 590

>  <Compound ID>
196

>  <Name>
Ponatinib

>  <Uniprot>
P07947

>  <Target>
YES1

>  <Smiles>
CC1=CC=C(C(=O)NC2=CC=C(CN3CCN(C)CC3)C(C(F)(F)F)=C2)C=C1C#CC1=CN=C2C=CC=NN12

>  <Kd (nM)>


>  <Assay (Kd)>


>  <Ki (nM)>


>  <Assay (Ki)>


>  <IC50 (nM)>


>  <Assay (IC50)>


>  <EC50 (nM)>


>  <Assay (EC50)>


>  <Article DOI>
10.1016/j.cell.2020.10.038

>  <Molecular Weight>
532.57

>  <Exact Mass>
532.2198441

>  <XLogP3>
4.11

>  <Heavy Atom Count>
39

>  <Ring Count>
5

>  <Hydrogen Bond Acceptor Count>
6

>  <Hydrogen Bond Donor Count>
1

>  <Rotatable Bond Count>
4

>  <Topological Polar Surface Area>
65.77

>  <Molecular Formula>
C29H27F3N6O

>  <InChI>
InChI=1S/C29H27F3N6O/c1-20-5-6-22(16-21(20)8-10-25-18-33-27-4-3-11-34-38(25)27)28(39)35-24-9-7-23(26(17-24)29(30,31)32)19-37-14-12-36(2)13-15-37/h3-7,9,11,16-18H,12-15,19H2,1-2H3,(H,35,39)

>  <InChI Key>
PHXJVRSECIGDHY-UHFFFAOYSA-N

>  <BindingDB>
50322535

>  <PubChem>
24826799

>  <ChEMBL>
CHEMBL1171837

$$$$
197
Actelion Java MolfileCreator 2.0

  0  0  0  0  0  0              0 V3000
M  V30 BEGIN CTAB
M  V30 COUNTS 35 38 0 0 0
M  V30 BEGIN ATOM
M  V30 1 S 5.9576 -5.9945 0.0 0
M  V30 2 C 6.0621 -4.9999 0.0 0
M  V30 3 C 4.9795 -6.2024 0.0 0
M  V30 4 N 5.1486 -4.5932 0.0 0
M  V30 5 N 6.9282 -4.4999 0.0 0
M  V30 6 C 4.4795 -5.3364 0.0 0
M  V30 7 C 4.5727 -7.1159 0.0 0
M  V30 8 C 6.9282 -3.4999 0.0 0
M  V30 9 C 3.5782 -7.2205 0.0 0
M  V30 10 N 7.7942 -2.9999 0.0 0
M  V30 11 C 6.0621 -2.9999 0.0 0
M  V30 12 C 3.1715 -8.134 0.0 0
M  V30 13 C 7.7942 -1.9999 0.0 0
M  V30 14 C 6.0621 -1.9999 0.0 0
M  V30 15 C 2.1769 -8.2385 0.0 0
M  V30 16 C 3.7592 -8.943 0.0 0
M  V30 17 N 6.9282 -1.4999 0.0 0
M  V30 18 C 8.6602 -1.4999 0.0 0
M  V30 19 N 5.1961 -1.4999 0.0 0
M  V30 20 C 1.7702 -9.1521 0.0 0
M  V30 21 C 3.3525 -9.8566 0.0 0
M  V30 22 C 5.1961 -0.5 0.0 0
M  V30 23 C 4.3301 -1.9999 0.0 0
M  V30 24 C 2.358 -9.9611 0.0 0
M  V30 25 C 0.7757 -9.2566 0.0 0
M  V30 26 C 4.3301 0.0 0.0 0
M  V30 27 C 3.4641 -1.5 0.0 0
M  V30 28 N 3.4641 -0.5 0.0 0
M  V30 29 C 2.598 0.0 0.0 0
M  V30 30 O 2.598 1.0 0.0 0
M  V30 31 C 1.732 -0.5 0.0 0
M  V30 32 C 0.866 0.0 0.0 0
M  V30 33 C 0.0 -0.5 0.0 0
M  V30 34 C 0.0 -1.5 0.0 0
M  V30 35 C 0.0 -2.5 0.0 0
M  V30 END ATOM
M  V30 BEGIN BOND
M  V30 1 1 1 2
M  V30 2 1 1 3
M  V30 3 2 2 4
M  V30 4 1 2 5
M  V30 5 2 3 6
M  V30 6 1 3 7
M  V30 7 1 5 8
M  V30 8 2 7 9
M  V30 9 2 8 10
M  V30 10 1 8 11
M  V30 11 1 9 12
M  V30 12 1 10 13
M  V30 13 2 11 14
M  V30 14 2 12 15
M  V30 15 1 12 16
M  V30 16 2 13 17
M  V30 17 1 13 18
M  V30 18 1 14 19
M  V30 19 1 15 20
M  V30 20 2 16 21
M  V30 21 1 19 22
M  V30 22 1 19 23
M  V30 23 2 20 24
M  V30 24 1 20 25
M  V30 25 1 22 26
M  V30 26 1 23 27
M  V30 27 1 26 28
M  V30 28 1 28 29
M  V30 29 2 29 30
M  V30 30 1 29 31
M  V30 31 1 31 32
M  V30 32 1 32 33
M  V30 33 1 33 34
M  V30 34 3 34 35
M  V30 35 1 4 6
M  V30 36 1 14 17
M  V30 37 1 21 24
M  V30 38 1 27 28
M  V30 END BOND
M  V30 END CTAB
M  END
>  <Molecule Name>
Compound 591

>  <Molecule Name 2>
Compound 591

>  <Compound ID>
197

>  <Name>


>  <Uniprot>


>  <Target>
BCR-ABL T315I

>  <Smiles>
C#CCCCC(=O)N1CCN(C2=CC(NC3=NC=C(/C=C/C4=CC=CC(C)=C4)S3)=NC(C)=N2)CC1

>  <Kd (nM)>


>  <Assay (Kd)>


>  <Ki (nM)>


>  <Assay (Ki)>


>  <IC50 (nM)>


>  <Assay (IC50)>


>  <EC50 (nM)>
450

>  <Assay (EC50)>
Inhibit viability of BaF3 BCR-ABL(T315I) cells

>  <Article DOI>
10.1021/acs.jmedchem.0c00967

>  <Molecular Weight>
486.645

>  <Exact Mass>
486.2201806

>  <XLogP3>
5.11

>  <Heavy Atom Count>
35

>  <Ring Count>
4

>  <Hydrogen Bond Acceptor Count>
7

>  <Hydrogen Bond Donor Count>
1

>  <Rotatable Bond Count>
8

>  <Topological Polar Surface Area>
74.25

>  <Molecular Formula>
C27H30N6OS

>  <InChI>
InChI=1S/C27H30N6OS/c1-4-5-6-10-26(34)33-15-13-32(14-16-33)25-18-24(29-21(3)30-25)31-27-28-19-23(35-27)12-11-22-9-7-8-20(2)17-22/h1,7-9,11-12,17-19H,5-6,10,13-16H2,2-3H3,(H,28,29,30,31)/b12-11+

>  <InChI Key>
DGCBTTMLYPMYQE-VAWYXSNFSA-N

>  <BindingDB>


>  <PubChem>


>  <ChEMBL>


$$$$
198
Actelion Java MolfileCreator 2.0

  0  0  0  0  0  0              0 V3000
M  V30 BEGIN CTAB
M  V30 COUNTS 30 32 0 0 0
M  V30 BEGIN ATOM
M  V30 1 Br 3.4641 -1.4999 0.0 0
M  V30 2 C 3.4641 -0.4999 0.0 0
M  V30 3 C 4.3301 0.0 0.0 0
M  V30 4 C 2.598 0.0 0.0 0
M  V30 5 O 5.1961 -0.5 0.0 0
M  V30 6 N 4.3301 1.0 0.0 0
M  V30 7 O 1.732 -0.5 0.0 0
M  V30 8 C 2.598 1.0 0.0 0
M  V30 9 C 5.1961 1.5 0.0 0
M  V30 10 C 3.4641 1.5 0.0 0
M  V30 11 C 0.866 0.0 0.0 0
M  V30 12 C 6.0621 0.9999 0.0 0
M  V30 13 C 5.1961 2.4999 0.0 0
M  V30 14 C 3.4641 2.5 0.0 0
M  V30 15 C 0.0 -0.5 0.0 0
M  V30 16 C 6.9282 1.4999 0.0 0
M  V30 17 C 6.0621 0.0 0.0 0
M  V30 18 C 6.0621 2.9999 0.0 0
M  V30 19 C -0.866 0.0 0.0 0
M  V30 20 C 0.0 -1.4999 0.0 0
M  V30 21 C 6.9282 2.4999 0.0 0
M  V30 22 C 6.0621 3.9999 0.0 0
M  V30 23 F -0.866 1.0 0.0 0
M  V30 24 C -1.732 -0.4999 0.0 0
M  V30 25 C -0.866 -1.9999 0.0 0
M  V30 26 O 5.1961 4.5 0.0 0
M  V30 27 N 6.9282 4.4999 0.0 0
M  V30 28 C -1.732 -1.4999 0.0 0
M  V30 29 C 6.9282 5.4999 0.0 0
M  V30 30 F -2.598 -1.9999 0.0 0
M  V30 END ATOM
M  V30 BEGIN BOND
M  V30 1 1 1 2
M  V30 2 1 2 3
M  V30 3 2 2 4
M  V30 4 2 3 5
M  V30 5 1 3 6
M  V30 6 1 4 7
M  V30 7 1 4 8
M  V30 8 1 6 9
M  V30 9 1 6 10
M  V30 10 1 7 11
M  V30 11 2 9 12
M  V30 12 1 9 13
M  V30 13 1 10 14
M  V30 14 1 11 15
M  V30 15 1 12 16
M  V30 16 1 12 17
M  V30 17 2 13 18
M  V30 18 2 15 19
M  V30 19 1 15 20
M  V30 20 2 16 21
M  V30 21 1 18 22
M  V30 22 1 19 23
M  V30 23 1 19 24
M  V30 24 2 20 25
M  V30 25 2 22 26
M  V30 26 1 22 27
M  V30 27 2 24 28
M  V30 28 1 27 29
M  V30 29 1 28 30
M  V30 30 2 8 10
M  V30 31 1 18 21
M  V30 32 1 25 28
M  V30 END BOND
M  V30 END CTAB
M  END
>  <Molecule Name>
Compound 592

>  <Molecule Name 2>
Compound 592

>  <Compound ID>
198

>  <Name>
PH-797804

>  <Uniprot>
Q16539

>  <Target>
p38alpha

>  <Smiles>
CNC(=O)C1=CC=C(C)C(N2C(C)=CC(OCC3=CC=C(F)C=C3F)=C(Br)C2=O)=C1

>  <Kd (nM)>


>  <Assay (Kd)>


>  <Ki (nM)>
5.8

>  <Assay (Ki)>
Ki of p38alpha

>  <IC50 (nM)>


>  <Assay (IC50)>


>  <EC50 (nM)>


>  <Assay (EC50)>


>  <Article DOI>
10.1021/bi900655f

>  <Molecular Weight>
477.305

>  <Exact Mass>
476.054711

>  <XLogP3>
4.25

>  <Heavy Atom Count>
30

>  <Ring Count>
3

>  <Hydrogen Bond Acceptor Count>
4

>  <Hydrogen Bond Donor Count>
1

>  <Rotatable Bond Count>
5

>  <Topological Polar Surface Area>
60.33

>  <Molecular Formula>
C22H19BrF2N2O3

>  <InChI>
InChI=1S/C22H19BrF2N2O3/c1-12-4-5-14(21(28)26-3)9-18(12)27-13(2)8-19(20(23)22(27)29)30-11-15-6-7-16(24)10-17(15)25/h4-10H,11H2,1-3H3,(H,26,28)

>  <InChI Key>
KCAJXIDMCNPGHZ-UHFFFAOYSA-N

>  <BindingDB>
50314073

>  <PubChem>
22049997

>  <ChEMBL>
CHEMBL1088751

$$$$
198
Actelion Java MolfileCreator 2.0

  0  0  0  0  0  0              0 V3000
M  V30 BEGIN CTAB
M  V30 COUNTS 30 32 0 0 0
M  V30 BEGIN ATOM
M  V30 1 Br 3.4641 -1.4999 0.0 0
M  V30 2 C 3.4641 -0.4999 0.0 0
M  V30 3 C 4.3301 0.0 0.0 0
M  V30 4 C 2.598 0.0 0.0 0
M  V30 5 O 5.1961 -0.5 0.0 0
M  V30 6 N 4.3301 1.0 0.0 0
M  V30 7 O 1.732 -0.5 0.0 0
M  V30 8 C 2.598 1.0 0.0 0
M  V30 9 C 5.1961 1.5 0.0 0
M  V30 10 C 3.4641 1.5 0.0 0
M  V30 11 C 0.866 0.0 0.0 0
M  V30 12 C 6.0621 0.9999 0.0 0
M  V30 13 C 5.1961 2.4999 0.0 0
M  V30 14 C 3.4641 2.5 0.0 0
M  V30 15 C 0.0 -0.5 0.0 0
M  V30 16 C 6.9282 1.4999 0.0 0
M  V30 17 C 6.0621 0.0 0.0 0
M  V30 18 C 6.0621 2.9999 0.0 0
M  V30 19 C -0.866 0.0 0.0 0
M  V30 20 C 0.0 -1.4999 0.0 0
M  V30 21 C 6.9282 2.4999 0.0 0
M  V30 22 C 6.0621 3.9999 0.0 0
M  V30 23 F -0.866 1.0 0.0 0
M  V30 24 C -1.732 -0.4999 0.0 0
M  V30 25 C -0.866 -1.9999 0.0 0
M  V30 26 O 5.1961 4.5 0.0 0
M  V30 27 N 6.9282 4.4999 0.0 0
M  V30 28 C -1.732 -1.4999 0.0 0
M  V30 29 C 6.9282 5.4999 0.0 0
M  V30 30 F -2.598 -1.9999 0.0 0
M  V30 END ATOM
M  V30 BEGIN BOND
M  V30 1 1 1 2
M  V30 2 1 2 3
M  V30 3 2 2 4
M  V30 4 2 3 5
M  V30 5 1 3 6
M  V30 6 1 4 7
M  V30 7 1 4 8
M  V30 8 1 6 9
M  V30 9 1 6 10
M  V30 10 1 7 11
M  V30 11 2 9 12
M  V30 12 1 9 13
M  V30 13 1 10 14
M  V30 14 1 11 15
M  V30 15 1 12 16
M  V30 16 1 12 17
M  V30 17 2 13 18
M  V30 18 2 15 19
M  V30 19 1 15 20
M  V30 20 2 16 21
M  V30 21 1 18 22
M  V30 22 1 19 23
M  V30 23 1 19 24
M  V30 24 2 20 25
M  V30 25 2 22 26
M  V30 26 1 22 27
M  V30 27 2 24 28
M  V30 28 1 27 29
M  V30 29 1 28 30
M  V30 30 2 8 10
M  V30 31 1 18 21
M  V30 32 1 25 28
M  V30 END BOND
M  V30 END CTAB
M  END
>  <Molecule Name>
Compound 593

>  <Molecule Name 2>
Compound 593

>  <Compound ID>
198

>  <Name>
PH-797804

>  <Uniprot>
Q15759

>  <Target>
p38beta

>  <Smiles>
CNC(=O)C1=CC=C(C)C(N2C(C)=CC(OCC3=CC=C(F)C=C3F)=C(Br)C2=O)=C1

>  <Kd (nM)>


>  <Assay (Kd)>


>  <Ki (nM)>
40

>  <Assay (Ki)>
Ki of p38beta

>  <IC50 (nM)>


>  <Assay (IC50)>


>  <EC50 (nM)>


>  <Assay (EC50)>


>  <Article DOI>
10.1021/bi900655f

>  <Molecular Weight>
477.305

>  <Exact Mass>
476.054711

>  <XLogP3>
4.25

>  <Heavy Atom Count>
30

>  <Ring Count>
3

>  <Hydrogen Bond Acceptor Count>
4

>  <Hydrogen Bond Donor Count>
1

>  <Rotatable Bond Count>
5

>  <Topological Polar Surface Area>
60.33

>  <Molecular Formula>
C22H19BrF2N2O3

>  <InChI>
InChI=1S/C22H19BrF2N2O3/c1-12-4-5-14(21(28)26-3)9-18(12)27-13(2)8-19(20(23)22(27)29)30-11-15-6-7-16(24)10-17(15)25/h4-10H,11H2,1-3H3,(H,26,28)

>  <InChI Key>
KCAJXIDMCNPGHZ-UHFFFAOYSA-N

>  <BindingDB>
50314073

>  <PubChem>
22049997

>  <ChEMBL>
CHEMBL1088751

$$$$
199
Actelion Java MolfileCreator 2.0

  0  0  0  0  0  0              0 V3000
M  V30 BEGIN CTAB
M  V30 COUNTS 47 52 0 0 0
M  V30 BEGIN ATOM
M  V30 1 S 1.9738 4.3814 0.0 0
M  V30 2 C 2.4738 5.2475 0.0 0
M  V30 3 C 0.9957 4.5894 0.0 0
M  V30 4 N 1.8047 5.9906 0.0 0
M  V30 5 N 3.4683 5.352 0.0 0
M  V30 6 C 0.8912 5.5839 0.0 0
M  V30 7 C 0.1867 4.0016 0.0 0
M  V30 8 C 4.0561 4.543 0.0 0
M  V30 9 C -0.0223 5.9906 0.0 0
M  V30 10 C -0.7268 4.4083 0.0 0
M  V30 11 O 3.6494 3.6294 0.0 0
M  V30 12 C 5.0507 4.6475 0.0 0
M  V30 13 C -0.8313 5.4028 0.0 0
M  V30 14 C 5.6384 3.8385 0.0 0
M  V30 15 C 5.4574 5.5611 0.0 0
M  V30 16 C 6.633 3.943 0.0 0
M  V30 17 C 5.2317 2.9249 0.0 0
M  V30 18 C 6.4519 5.6656 0.0 0
M  V30 19 C 7.0397 4.8566 0.0 0
M  V30 20 C 7.2207 3.134 0.0 0
M  V30 21 N 5.8195 2.1159 0.0 0
M  V30 22 C 6.814 2.2205 0.0 0
M  V30 23 C 5.4128 1.2024 0.0 0
M  V30 24 S 4.4346 0.9945 0.0 0
M  V30 25 N 5.9128 0.3364 0.0 0
M  V30 26 C 4.3301 0.0 0.0 0
M  V30 27 C 5.2436 -0.4067 0.0 0
M  V30 28 C 3.4641 -0.5 0.0 0
M  V30 29 C 5.4515 -1.3848 0.0 0
M  V30 30 C 2.598 0.0 0.0 0
M  V30 31 O 4.7084 -2.054 0.0 0
M  V30 32 O 6.4026 -1.6939 0.0 0
M  V30 33 C 1.732 -0.5 0.0 0
M  V30 34 O 0.866 0.0 0.0 0
M  V30 35 C 0.0 -0.5 0.0 0
M  V30 36 C -0.866 0.0 0.0 0
M  V30 37 C 0.0 -1.4999 0.0 0
M  V30 38 F -0.866 1.0 0.0 0
M  V30 39 C -1.732 -0.4999 0.0 0
M  V30 40 C -0.866 -1.9999 0.0 0
M  V30 41 C -1.732 -1.4999 0.0 0
M  V30 42 C -2.598 -1.9999 0.0 0
M  V30 43 C -3.4641 -2.4999 0.0 0
M  V30 44 C -4.3301 -2.9999 0.0 0
M  V30 45 N -4.3301 -3.9999 0.0 0
M  V30 46 C -5.1961 -4.4999 0.0 0
M  V30 47 C -3.4641 -4.4999 0.0 0
M  V30 END ATOM
M  V30 BEGIN BOND
M  V30 1 1 1 2
M  V30 2 1 1 3
M  V30 3 2 2 4
M  V30 4 1 2 5
M  V30 5 2 3 6
M  V30 6 1 3 7
M  V30 7 1 5 8
M  V30 8 1 6 9
M  V30 9 2 7 10
M  V30 10 2 8 11
M  V30 11 1 8 12
M  V30 12 2 9 13
M  V30 13 2 12 14
M  V30 14 1 12 15
M  V30 15 1 14 16
M  V30 16 1 14 17
M  V30 17 2 15 18
M  V30 18 2 16 19
M  V30 19 1 16 20
M  V30 20 1 17 21
M  V30 21 1 20 22
M  V30 22 1 21 23
M  V30 23 1 23 24
M  V30 24 2 23 25
M  V30 25 1 24 26
M  V30 26 1 25 27
M  V30 27 1 26 28
M  V30 28 1 27 29
M  V30 29 1 28 30
M  V30 30 2 29 31
M  V30 31 1 29 32
M  V30 32 1 30 33
M  V30 33 1 33 34
M  V30 34 1 34 35
M  V30 35 2 35 36
M  V30 36 1 35 37
M  V30 37 1 36 38
M  V30 38 1 36 39
M  V30 39 2 37 40
M  V30 40 2 39 41
M  V30 41 1 41 42
M  V30 42 3 42 43
M  V30 43 1 43 44
M  V30 44 1 44 45
M  V30 45 1 45 46
M  V30 46 1 45 47
M  V30 47 1 4 6
M  V30 48 1 10 13
M  V30 49 1 18 19
M  V30 50 1 21 22
M  V30 51 2 26 27
M  V30 52 1 40 41
M  V30 END BOND
M  V30 END CTAB
M  END
>  <Molecule Name>
Compound 594

>  <Molecule Name 2>
Compound 594

>  <Compound ID>
199

>  <Name>
A-1155463

>  <Uniprot>
Q07817

>  <Target>
BCL-xL

>  <Smiles>
CN(C)CC#CC1=CC=C(OCCCC2=C(C(=O)O)N=C(N3CCC4=CC=CC(C(=O)NC5=NC6=CC=CC=C6S5)=C4C3)S2)C(F)=C1

>  <Kd (nM)>


>  <Assay (Kd)>


>  <Ki (nM)>
<0.01

>  <Assay (Ki)>
Ki was assessed by TR-FRET assay

>  <IC50 (nM)>


>  <Assay (IC50)>


>  <EC50 (nM)>


>  <Assay (EC50)>


>  <Article DOI>
10.1021/ml5001867

>  <Molecular Weight>
669.804

>  <Exact Mass>
669.1879747

>  <XLogP3>
4.79

>  <Heavy Atom Count>
47

>  <Ring Count>
6

>  <Hydrogen Bond Acceptor Count>
9

>  <Hydrogen Bond Donor Count>
2

>  <Rotatable Bond Count>
10

>  <Topological Polar Surface Area>
107.89

>  <Molecular Formula>
C35H32FN5O4S2

>  <InChI>
InChI=1S/C35H32FN5O4S2/c1-40(2)17-6-8-22-14-15-28(26(36)20-22)45-19-7-13-30-31(33(43)44)38-35(47-30)41-18-16-23-9-5-10-24(25(23)21-41)32(42)39-34-37-27-11-3-4-12-29(27)46-34/h3-5,9-12,14-15,20H,7,13,16-19,21H2,1-2H3,(H,43,44)(H,37,39,42)

>  <InChI Key>
SOYCFODXNRVBTI-UHFFFAOYSA-N

>  <BindingDB>
50030754

>  <PubChem>
59447577

>  <ChEMBL>
CHEMBL3342332

$$$$
200
Actelion Java MolfileCreator 2.0

  0  0  0  0  0  0              0 V3000
M  V30 BEGIN CTAB
M  V30 COUNTS 31 34 0 0 0
M  V30 BEGIN ATOM
M  V30 1 Cl 6.4951 -3.0 0.0 0
M  V30 2 C 5.1961 -2.25 0.0 0
M  V30 3 C 5.1961 -0.75 0.0 0
M  V30 4 C 3.8971 -2.9999 0.0 0
M  V30 5 C 3.8971 0.0 0.0 0
M  V30 6 C 2.598 -2.25 0.0 0
M  V30 7 C 2.598 -0.75 0.0 0
M  V30 8 N 1.299 0.0 0.0 0
M  V30 9 C 0.0 -0.75 0.0 0 CFG=1
M  V30 10 C -1.299 0.0 0.0 0
M  V30 11 C 0.0 -2.25 0.0 0
M  V30 12 C -2.598 -0.7499 0.0 0
M  V30 13 C -1.299 1.5 0.0 0
M  V30 14 C -1.299 -2.9999 0.0 0 CFG=1
M  V30 15 N -2.598 -2.2499 0.0 0
M  V30 16 C -3.8971 0.0 0.0 0
M  V30 17 C -2.598 2.25 0.0 0
M  V30 18 C -1.299 -4.4999 0.0 0
M  V30 19 C -3.8971 -2.9999 0.0 0
M  V30 20 C -3.8971 1.5 0.0 0
M  V30 21 C -2.598 3.75 0.0 0
M  V30 22 O -5.1961 -2.2499 0.0 0
M  V30 23 C -3.8971 -4.4999 0.0 0
M  V30 24 C -1.299 4.5 0.0 0
M  V30 25 C -3.8971 4.5 0.0 0
M  V30 26 C -1.299 6.0 0.0 0
M  V30 27 C -3.8971 6.0 0.0 0
M  V30 28 C -2.598 6.75 0.0 0
M  V30 29 C -2.598 8.25 0.0 0
M  V30 30 O -1.299 9.0 0.0 0
M  V30 31 O -3.8971 9.0 0.0 0
M  V30 END ATOM
M  V30 BEGIN BOND
M  V30 1 1 1 2
M  V30 2 2 2 3
M  V30 3 1 2 4
M  V30 4 1 3 5
M  V30 5 2 4 6
M  V30 6 2 5 7
M  V30 7 1 7 8
M  V30 8 1 9 8 CFG=3
M  V30 9 1 9 10
M  V30 10 1 9 11
M  V30 11 2 10 12
M  V30 12 1 10 13
M  V30 13 1 14 11
M  V30 14 1 12 15
M  V30 15 1 12 16
M  V30 16 2 13 17
M  V30 17 1 14 18 CFG=3
M  V30 18 1 15 19
M  V30 19 2 16 20
M  V30 20 1 17 21
M  V30 21 2 19 22
M  V30 22 1 19 23
M  V30 23 2 21 24
M  V30 24 1 21 25
M  V30 25 1 24 26
M  V30 26 2 25 27
M  V30 27 2 26 28
M  V30 28 1 28 29
M  V30 29 2 29 30
M  V30 30 1 29 31
M  V30 31 1 6 7
M  V30 32 1 14 15
M  V30 33 1 17 20
M  V30 34 1 27 28
M  V30 END BOND
M  V30 BEGIN COLLECTION
M  V30 MDLV30/STEABS ATOMS=(2 9 14)
M  V30 END COLLECTION
M  V30 END CTAB
M  END
>  <Molecule Name>
Compound 595

>  <Molecule Name 2>
Compound 595

>  <Compound ID>
200

>  <Name>
I-BET726

>  <Uniprot>
P25440

>  <Target>
BRD2

>  <Smiles>
CC(=O)N1C2=CC=C(C3=CC=C(C(=O)O)C=C3)C=C2[C@H](NC2=CC=C(Cl)C=C2)C[C@@H]1C

>  <Kd (nM)>
25

>  <Assay (Kd)>
SPR

>  <Ki (nM)>


>  <Assay (Ki)>


>  <IC50 (nM)>
39.8

>  <Assay (IC50)>
Peptide-based FRET

>  <EC50 (nM)>


>  <Assay (EC50)>


>  <Article DOI>
10.1021/jm5010539

>  <Molecular Weight>
434.923

>  <Exact Mass>
434.1397203

>  <XLogP3>
5.14

>  <Heavy Atom Count>
31

>  <Ring Count>
4

>  <Hydrogen Bond Acceptor Count>
3

>  <Hydrogen Bond Donor Count>
2

>  <Rotatable Bond Count>
4

>  <Topological Polar Surface Area>
69.64

>  <Molecular Formula>
C25H23ClN2O3

>  <InChI>
InChI=1S/C25H23ClN2O3/c1-15-13-23(27-21-10-8-20(26)9-11-21)22-14-19(7-12-24(22)28(15)16(2)29)17-3-5-18(6-4-17)25(30)31/h3-12,14-15,23,27H,13H2,1-2H3,(H,30,31)/t15-,23+/m0/s1

>  <InChI Key>
FAWSUKOIROHXAP-NPMXOYFQSA-N

>  <BindingDB>
50028142

>  <PubChem>
52912222

>  <ChEMBL>
CHEMBL2177300

$$$$
200
Actelion Java MolfileCreator 2.0

  0  0  0  0  0  0              0 V3000
M  V30 BEGIN CTAB
M  V30 COUNTS 31 34 0 0 0
M  V30 BEGIN ATOM
M  V30 1 Cl 6.4951 -3.0 0.0 0
M  V30 2 C 5.1961 -2.25 0.0 0
M  V30 3 C 5.1961 -0.75 0.0 0
M  V30 4 C 3.8971 -2.9999 0.0 0
M  V30 5 C 3.8971 0.0 0.0 0
M  V30 6 C 2.598 -2.25 0.0 0
M  V30 7 C 2.598 -0.75 0.0 0
M  V30 8 N 1.299 0.0 0.0 0
M  V30 9 C 0.0 -0.75 0.0 0 CFG=1
M  V30 10 C -1.299 0.0 0.0 0
M  V30 11 C 0.0 -2.25 0.0 0
M  V30 12 C -2.598 -0.7499 0.0 0
M  V30 13 C -1.299 1.5 0.0 0
M  V30 14 C -1.299 -2.9999 0.0 0 CFG=1
M  V30 15 N -2.598 -2.2499 0.0 0
M  V30 16 C -3.8971 0.0 0.0 0
M  V30 17 C -2.598 2.25 0.0 0
M  V30 18 C -1.299 -4.4999 0.0 0
M  V30 19 C -3.8971 -2.9999 0.0 0
M  V30 20 C -3.8971 1.5 0.0 0
M  V30 21 C -2.598 3.75 0.0 0
M  V30 22 O -5.1961 -2.2499 0.0 0
M  V30 23 C -3.8971 -4.4999 0.0 0
M  V30 24 C -1.299 4.5 0.0 0
M  V30 25 C -3.8971 4.5 0.0 0
M  V30 26 C -1.299 6.0 0.0 0
M  V30 27 C -3.8971 6.0 0.0 0
M  V30 28 C -2.598 6.75 0.0 0
M  V30 29 C -2.598 8.25 0.0 0
M  V30 30 O -1.299 9.0 0.0 0
M  V30 31 O -3.8971 9.0 0.0 0
M  V30 END ATOM
M  V30 BEGIN BOND
M  V30 1 1 1 2
M  V30 2 2 2 3
M  V30 3 1 2 4
M  V30 4 1 3 5
M  V30 5 2 4 6
M  V30 6 2 5 7
M  V30 7 1 7 8
M  V30 8 1 9 8 CFG=3
M  V30 9 1 9 10
M  V30 10 1 9 11
M  V30 11 2 10 12
M  V30 12 1 10 13
M  V30 13 1 14 11
M  V30 14 1 12 15
M  V30 15 1 12 16
M  V30 16 2 13 17
M  V30 17 1 14 18 CFG=3
M  V30 18 1 15 19
M  V30 19 2 16 20
M  V30 20 1 17 21
M  V30 21 2 19 22
M  V30 22 1 19 23
M  V30 23 2 21 24
M  V30 24 1 21 25
M  V30 25 1 24 26
M  V30 26 2 25 27
M  V30 27 2 26 28
M  V30 28 1 28 29
M  V30 29 2 29 30
M  V30 30 1 29 31
M  V30 31 1 6 7
M  V30 32 1 14 15
M  V30 33 1 17 20
M  V30 34 1 27 28
M  V30 END BOND
M  V30 BEGIN COLLECTION
M  V30 MDLV30/STEABS ATOMS=(2 9 14)
M  V30 END COLLECTION
M  V30 END CTAB
M  END
>  <Molecule Name>
Compound 596

>  <Molecule Name 2>
Compound 596

>  <Compound ID>
200

>  <Name>
I-BET726

>  <Uniprot>
Q15059

>  <Target>
BRD3

>  <Smiles>
CC(=O)N1C2=CC=C(C3=CC=C(C(=O)O)C=C3)C=C2[C@H](NC2=CC=C(Cl)C=C2)C[C@@H]1C

>  <Kd (nM)>
20

>  <Assay (Kd)>
SPR

>  <Ki (nM)>


>  <Assay (Ki)>


>  <IC50 (nM)>
79.4

>  <Assay (IC50)>
Peptide-based FRET

>  <EC50 (nM)>


>  <Assay (EC50)>


>  <Article DOI>
10.1021/jm5010539

>  <Molecular Weight>
434.923

>  <Exact Mass>
434.1397203

>  <XLogP3>
5.14

>  <Heavy Atom Count>
31

>  <Ring Count>
4

>  <Hydrogen Bond Acceptor Count>
3

>  <Hydrogen Bond Donor Count>
2

>  <Rotatable Bond Count>
4

>  <Topological Polar Surface Area>
69.64

>  <Molecular Formula>
C25H23ClN2O3

>  <InChI>
InChI=1S/C25H23ClN2O3/c1-15-13-23(27-21-10-8-20(26)9-11-21)22-14-19(7-12-24(22)28(15)16(2)29)17-3-5-18(6-4-17)25(30)31/h3-12,14-15,23,27H,13H2,1-2H3,(H,30,31)/t15-,23+/m0/s1

>  <InChI Key>
FAWSUKOIROHXAP-NPMXOYFQSA-N

>  <BindingDB>
50028142

>  <PubChem>
52912222

>  <ChEMBL>
CHEMBL2177300

$$$$
200
Actelion Java MolfileCreator 2.0

  0  0  0  0  0  0              0 V3000
M  V30 BEGIN CTAB
M  V30 COUNTS 31 34 0 0 0
M  V30 BEGIN ATOM
M  V30 1 Cl 6.4951 -3.0 0.0 0
M  V30 2 C 5.1961 -2.25 0.0 0
M  V30 3 C 5.1961 -0.75 0.0 0
M  V30 4 C 3.8971 -2.9999 0.0 0
M  V30 5 C 3.8971 0.0 0.0 0
M  V30 6 C 2.598 -2.25 0.0 0
M  V30 7 C 2.598 -0.75 0.0 0
M  V30 8 N 1.299 0.0 0.0 0
M  V30 9 C 0.0 -0.75 0.0 0 CFG=1
M  V30 10 C -1.299 0.0 0.0 0
M  V30 11 C 0.0 -2.25 0.0 0
M  V30 12 C -2.598 -0.7499 0.0 0
M  V30 13 C -1.299 1.5 0.0 0
M  V30 14 C -1.299 -2.9999 0.0 0 CFG=1
M  V30 15 N -2.598 -2.2499 0.0 0
M  V30 16 C -3.8971 0.0 0.0 0
M  V30 17 C -2.598 2.25 0.0 0
M  V30 18 C -1.299 -4.4999 0.0 0
M  V30 19 C -3.8971 -2.9999 0.0 0
M  V30 20 C -3.8971 1.5 0.0 0
M  V30 21 C -2.598 3.75 0.0 0
M  V30 22 O -5.1961 -2.2499 0.0 0
M  V30 23 C -3.8971 -4.4999 0.0 0
M  V30 24 C -1.299 4.5 0.0 0
M  V30 25 C -3.8971 4.5 0.0 0
M  V30 26 C -1.299 6.0 0.0 0
M  V30 27 C -3.8971 6.0 0.0 0
M  V30 28 C -2.598 6.75 0.0 0
M  V30 29 C -2.598 8.25 0.0 0
M  V30 30 O -1.299 9.0 0.0 0
M  V30 31 O -3.8971 9.0 0.0 0
M  V30 END ATOM
M  V30 BEGIN BOND
M  V30 1 1 1 2
M  V30 2 2 2 3
M  V30 3 1 2 4
M  V30 4 1 3 5
M  V30 5 2 4 6
M  V30 6 2 5 7
M  V30 7 1 7 8
M  V30 8 1 9 8 CFG=3
M  V30 9 1 9 10
M  V30 10 1 9 11
M  V30 11 2 10 12
M  V30 12 1 10 13
M  V30 13 1 14 11
M  V30 14 1 12 15
M  V30 15 1 12 16
M  V30 16 2 13 17
M  V30 17 1 14 18 CFG=3
M  V30 18 1 15 19
M  V30 19 2 16 20
M  V30 20 1 17 21
M  V30 21 2 19 22
M  V30 22 1 19 23
M  V30 23 2 21 24
M  V30 24 1 21 25
M  V30 25 1 24 26
M  V30 26 2 25 27
M  V30 27 2 26 28
M  V30 28 1 28 29
M  V30 29 2 29 30
M  V30 30 1 29 31
M  V30 31 1 6 7
M  V30 32 1 14 15
M  V30 33 1 17 20
M  V30 34 1 27 28
M  V30 END BOND
M  V30 BEGIN COLLECTION
M  V30 MDLV30/STEABS ATOMS=(2 9 14)
M  V30 END COLLECTION
M  V30 END CTAB
M  END
>  <Molecule Name>
Compound 597

>  <Molecule Name 2>
Compound 597

>  <Compound ID>
200

>  <Name>
I-BET726

>  <Uniprot>
O60885

>  <Target>
BRD4

>  <Smiles>
CC(=O)N1C2=CC=C(C3=CC=C(C(=O)O)C=C3)C=C2[C@H](NC2=CC=C(Cl)C=C2)C[C@@H]1C

>  <Kd (nM)>
23/4.4

>  <Assay (Kd)>
ITC

>  <Ki (nM)>


>  <Assay (Ki)>


>  <IC50 (nM)>
100

>  <Assay (IC50)>
Peptide-based FRET

>  <EC50 (nM)>


>  <Assay (EC50)>


>  <Article DOI>
10.1021/jm5010539

>  <Molecular Weight>
434.923

>  <Exact Mass>
434.1397203

>  <XLogP3>
5.14

>  <Heavy Atom Count>
31

>  <Ring Count>
4

>  <Hydrogen Bond Acceptor Count>
3

>  <Hydrogen Bond Donor Count>
2

>  <Rotatable Bond Count>
4

>  <Topological Polar Surface Area>
69.64

>  <Molecular Formula>
C25H23ClN2O3

>  <InChI>
InChI=1S/C25H23ClN2O3/c1-15-13-23(27-21-10-8-20(26)9-11-21)22-14-19(7-12-24(22)28(15)16(2)29)17-3-5-18(6-4-17)25(30)31/h3-12,14-15,23,27H,13H2,1-2H3,(H,30,31)/t15-,23+/m0/s1

>  <InChI Key>
FAWSUKOIROHXAP-NPMXOYFQSA-N

>  <BindingDB>
50028142

>  <PubChem>
52912222

>  <ChEMBL>
CHEMBL2177300

$$$$
201
Actelion Java MolfileCreator 2.0

  0  0  0  0  0  0              0 V3000
M  V30 BEGIN CTAB
M  V30 COUNTS 40 44 0 0 0
M  V30 BEGIN ATOM
M  V30 1 F 13.7403 0.549 0.0 0
M  V30 2 C 12.9903 -0.75 0.0 0
M  V30 3 F 14.2894 -1.5 0.0 0
M  V30 4 F 12.2403 -2.049 0.0 0
M  V30 5 C 11.6913 0.0 0.0 0
M  V30 6 C 11.6913 1.5 0.0 0
M  V30 7 C 10.3923 -0.7499 0.0 0
M  V30 8 O 12.9903 2.2499 0.0 0
M  V30 9 N 10.3923 2.25 0.0 0
M  V30 10 N 9.0932 0.0 0.0 0
M  V30 11 C 12.9903 3.75 0.0 0
M  V30 12 C 9.0932 1.5 0.0 0
M  V30 13 C 14.2894 4.5 0.0 0
M  V30 14 C 11.6913 4.5 0.0 0
M  V30 15 N 7.7942 2.25 0.0 0
M  V30 16 C 15.716 4.0364 0.0 0
M  V30 17 C 14.2894 5.9999 0.0 0
M  V30 18 C 11.6913 6.0 0.0 0
M  V30 19 C 6.4951 1.5 0.0 0
M  V30 20 O 16.1795 2.6098 0.0 0
M  V30 21 C 16.5976 5.2499 0.0 0
M  V30 22 C 12.9903 6.75 0.0 0
M  V30 23 C 15.716 6.4635 0.0 0
M  V30 24 C 5.1961 2.25 0.0 0
M  V30 25 C 6.4951 0.0 0.0 0
M  V30 26 O 5.1961 3.75 0.0 0
M  V30 27 C 3.8971 1.5 0.0 0
M  V30 28 C 5.1961 -0.7499 0.0 0
M  V30 29 C 3.8971 4.5 0.0 0
M  V30 30 C 3.8971 0.0 0.0 0
M  V30 31 C 2.598 -0.75 0.0 0
M  V30 32 O 2.598 -2.25 0.0 0
M  V30 33 N 1.299 0.0 0.0 0
M  V30 34 C 0.0 -0.75 0.0 0
M  V30 35 C -1.299 0.0 0.0 0
M  V30 36 C 0.0 -2.2499 0.0 0
M  V30 37 C -2.598 -0.7499 0.0 0
M  V30 38 C -1.299 -2.9999 0.0 0
M  V30 39 N -2.598 -2.2499 0.0 0
M  V30 40 C -3.8971 -2.9999 0.0 0
M  V30 END ATOM
M  V30 BEGIN BOND
M  V30 1 1 1 2
M  V30 2 1 2 3
M  V30 3 1 2 4
M  V30 4 1 2 5
M  V30 5 2 5 6
M  V30 6 1 5 7
M  V30 7 1 6 8
M  V30 8 1 6 9
M  V30 9 2 7 10
M  V30 10 1 8 11
M  V30 11 2 9 12
M  V30 12 2 11 13
M  V30 13 1 11 14
M  V30 14 1 12 15
M  V30 15 1 13 16
M  V30 16 1 13 17
M  V30 17 2 14 18
M  V30 18 1 15 19
M  V30 19 2 16 20
M  V30 20 1 16 21
M  V30 21 2 17 22
M  V30 22 1 17 23
M  V30 23 2 19 24
M  V30 24 1 19 25
M  V30 25 1 24 26
M  V30 26 1 24 27
M  V30 27 2 25 28
M  V30 28 1 26 29
M  V30 29 2 27 30
M  V30 30 1 30 31
M  V30 31 2 31 32
M  V30 32 1 31 33
M  V30 33 1 33 34
M  V30 34 1 34 35
M  V30 35 1 34 36
M  V30 36 1 35 37
M  V30 37 1 36 38
M  V30 38 1 37 39
M  V30 39 1 39 40
M  V30 40 1 10 12
M  V30 41 1 18 22
M  V30 42 1 21 23
M  V30 43 1 28 30
M  V30 44 1 38 39
M  V30 END BOND
M  V30 END CTAB
M  END
>  <Molecule Name>
Compound 598

>  <Molecule Name 2>
Compound 598

>  <Compound ID>
201

>  <Name>
BI-4464

>  <Uniprot>
Q05397

>  <Target>
FAK

>  <Smiles>
COC1=CC(C(=O)NC2CCN(C)CC2)=CC=C1NC1=NC=C(C(F)(F)F)C(OC2=CC=CC3=C2C(=O)CC3)=N1

>  <Kd (nM)>


>  <Assay (Kd)>


>  <Ki (nM)>


>  <Assay (Ki)>


>  <IC50 (nM)>
17

>  <Assay (IC50)>
Inhibition of FAK

>  <EC50 (nM)>


>  <Assay (EC50)>


>  <Article DOI>
10.1021/acs.jmedchem.8b01826

>  <Molecular Weight>
555.557

>  <Exact Mass>
555.209339

>  <XLogP3>
4.41

>  <Heavy Atom Count>
40

>  <Ring Count>
5

>  <Hydrogen Bond Acceptor Count>
8

>  <Hydrogen Bond Donor Count>
2

>  <Rotatable Bond Count>
7

>  <Topological Polar Surface Area>
105.68

>  <Molecular Formula>
C28H28F3N5O4

>  <InChI>
InChI=1S/C28H28F3N5O4/c1-36-12-10-18(11-13-36)33-25(38)17-6-8-20(23(14-17)39-2)34-27-32-15-19(28(29,30)31)26(35-27)40-22-5-3-4-16-7-9-21(37)24(16)22/h3-6,8,14-15,18H,7,9-13H2,1-2H3,(H,33,38)(H,32,34,35)

>  <InChI Key>
QUSSZSMDFABHLI-UHFFFAOYSA-N

>  <BindingDB>
134019

>  <PubChem>
58522530

>  <ChEMBL>
CHEMBL3657265

$$$$
202
Actelion Java MolfileCreator 2.0

  0  0  0  0  0  0              0 V3000
M  V30 BEGIN CTAB
M  V30 COUNTS 43 48 0 0 0
M  V30 BEGIN ATOM
M  V30 1 Cl 2.598 3.0 0.0 0
M  V30 2 C 2.598 4.0 0.0 0
M  V30 3 C 3.4641 4.5 0.0 0
M  V30 4 C 1.732 4.5 0.0 0
M  V30 5 C 4.3301 3.9999 0.0 0
M  V30 6 C 3.4641 5.5 0.0 0
M  V30 7 C 1.732 5.5 0.0 0
M  V30 8 N 4.3301 3.0 0.0 0
M  V30 9 C 5.1961 4.4999 0.0 0
M  V30 10 C 2.598 6.0 0.0 0
M  V30 11 C 4.3301 6.0 0.0 0
M  V30 12 C 3.4641 2.5 0.0 0
M  V30 13 C 5.1961 2.4999 0.0 0
M  V30 14 C 5.1961 5.4999 0.0 0
M  V30 15 C 3.4641 1.5 0.0 0
M  V30 16 C 5.1961 1.4999 0.0 0
M  V30 17 N 2.598 1.0 0.0 0
M  V30 18 C 4.3301 0.9999 0.0 0
M  V30 19 C 2.598 0.0 0.0 0
M  V30 20 C 4.3301 0.0 0.0 0
M  V30 21 O 1.732 -0.5 0.0 0
M  V30 22 N 3.4641 -0.4999 0.0 0
M  V30 23 N 5.1961 -0.5 0.0 0
M  V30 24 C 0.866 0.0 0.0 0
M  V30 25 C 5.1961 -1.5 0.0 0
M  V30 26 C 6.0621 0.0 0.0 0
M  V30 27 C 0.0 -0.5 0.0 0 CFG=1
M  V30 28 C 6.0621 -2.0 0.0 0 CFG=1
M  V30 29 C 6.9282 -0.5 0.0 0
M  V30 30 N -0.9135 -0.0932 0.0 0
M  V30 31 C -0.1045 -1.4945 0.0 0
M  V30 32 N 6.9282 -1.5 0.0 0
M  V30 33 C 6.0621 -3.0 0.0 0
M  V30 34 C -1.5826 -0.8364 0.0 0
M  V30 35 C -1.1214 0.8848 0.0 0
M  V30 36 C -1.0826 -1.7024 0.0 0
M  V30 37 C 7.7942 -2.0 0.0 0
M  V30 38 C 6.9282 -3.5 0.0 0
M  V30 39 O 7.7942 -3.0 0.0 0
M  V30 40 C 8.6602 -1.5 0.0 0
M  V30 41 N 7.7942 -4.0 0.0 0
M  V30 42 F 8.6602 -0.5 0.0 0
M  V30 43 C 9.5262 -2.0 0.0 0
M  V30 END ATOM
M  V30 BEGIN BOND
M  V30 1 1 1 2
M  V30 2 1 2 3
M  V30 3 2 2 4
M  V30 4 2 3 5
M  V30 5 1 3 6
M  V30 6 1 4 7
M  V30 7 1 5 8
M  V30 8 1 5 9
M  V30 9 1 6 10
M  V30 10 2 6 11
M  V30 11 1 8 12
M  V30 12 1 8 13
M  V30 13 2 9 14
M  V30 14 1 12 15
M  V30 15 1 13 16
M  V30 16 2 15 17
M  V30 17 1 15 18
M  V30 18 1 17 19
M  V30 19 2 18 20
M  V30 20 1 19 21
M  V30 21 2 19 22
M  V30 22 1 20 23
M  V30 23 1 21 24
M  V30 24 1 23 25
M  V30 25 1 23 26
M  V30 26 1 27 24 CFG=3
M  V30 27 1 28 25
M  V30 28 1 26 29
M  V30 29 1 27 30
M  V30 30 1 27 31
M  V30 31 1 28 32
M  V30 32 1 28 33 CFG=1
M  V30 33 1 30 34
M  V30 34 1 30 35
M  V30 35 1 31 36
M  V30 36 1 32 37
M  V30 37 1 33 38
M  V30 38 2 37 39
M  V30 39 1 37 40
M  V30 40 3 38 41
M  V30 41 1 40 42
M  V30 42 2 40 43
M  V30 43 2 7 10
M  V30 44 1 11 14
M  V30 45 1 16 18
M  V30 46 1 20 22
M  V30 47 1 29 32
M  V30 48 1 34 36
M  V30 END BOND
M  V30 BEGIN COLLECTION
M  V30 MDLV30/STEABS ATOMS=(2 27 28)
M  V30 END COLLECTION
M  V30 END CTAB
M  END
>  <Molecule Name>
Compound 599

>  <Molecule Name 2>
Compound 599

>  <Compound ID>
202

>  <Name>
MRTX849

>  <Uniprot>
P01116

>  <Target>
KRAS G12C

>  <Smiles>
C=C(F)C(=O)N1CCN(C2=NC(OC[C@@H]3CCCN3C)=NC3=C2CCN(C2=CC=CC4=CC=CC(Cl)=C24)C3)C[C@@H]1CC#N

>  <Kd (nM)>


>  <Assay (Kd)>


>  <Ki (nM)>


>  <Assay (Ki)>


>  <IC50 (nM)>
2800/440

>  <Assay (IC50)>
Inhibit viability of NCI-H2030/NCI-H23 cells

>  <EC50 (nM)>


>  <Assay (EC50)>


>  <Article DOI>
10.1021/acscentsci.0c00411

>  <Molecular Weight>
604.13

>  <Exact Mass>
603.2524793

>  <XLogP3>
5.05

>  <Heavy Atom Count>
43

>  <Ring Count>
6

>  <Hydrogen Bond Acceptor Count>
8

>  <Hydrogen Bond Donor Count>
0

>  <Rotatable Bond Count>
7

>  <Topological Polar Surface Area>
88.83

>  <Molecular Formula>
C32H35ClFN7O2

>  <InChI>
InChI=1S/C32H35ClFN7O2/c1-21(34)31(42)41-17-16-40(18-23(41)11-13-35)30-25-12-15-39(28-10-4-7-22-6-3-9-26(33)29(22)28)19-27(25)36-32(37-30)43-20-24-8-5-14-38(24)2/h3-4,6-7,9-10,23-24H,1,5,8,11-12,14-20H2,2H3/t23-,24-/m0/s1

>  <InChI Key>
PEMUGDMSUDYLHU-ZEQRLZLVSA-N

>  <BindingDB>


>  <PubChem>
138611145

>  <ChEMBL>


$$$$
203
Actelion Java MolfileCreator 2.0

  0  0  0  0  0  0              0 V3000
M  V30 BEGIN CTAB
M  V30 COUNTS 18 20 0 0 0
M  V30 BEGIN ATOM
M  V30 1 Cl 2.598 -3.0 0.0 0
M  V30 2 C 2.598 -1.9999 0.0 0
M  V30 3 C 3.4641 -1.5 0.0 0
M  V30 4 C 1.732 -1.5 0.0 0
M  V30 5 C 4.3301 -2.0 0.0 0
M  V30 6 C 3.4641 -0.5 0.0 0
M  V30 7 C 1.732 -0.5 0.0 0
M  V30 8 N 5.1961 -2.5 0.0 0
M  V30 9 C 2.598 0.0 0.0 0
M  V30 10 O 0.866 0.0 0.0 0
M  V30 11 C 0.0 -0.5 0.0 0 CFG=2
M  V30 12 C 0.0 -1.4999 0.0 0
M  V30 13 C -0.866 0.0 0.0 0
M  V30 14 C -1.2085 -2.1319 0.0 0 CFG=1
M  V30 15 C -2.0175 -0.7306 0.0 0 CFG=2
M  V30 16 N -1.104 -1.1374 0.0 0
M  V30 17 C -2.1866 -2.3398 0.0 0
M  V30 18 C -2.6866 -1.4738 0.0 0
M  V30 END ATOM
M  V30 BEGIN BOND
M  V30 1 1 1 2
M  V30 2 2 2 3
M  V30 3 1 2 4
M  V30 4 1 3 5
M  V30 5 1 3 6
M  V30 6 2 4 7
M  V30 7 3 5 8
M  V30 8 2 6 9
M  V30 9 1 7 10
M  V30 10 1 11 10 CFG=3
M  V30 11 1 11 12
M  V30 12 1 11 13
M  V30 13 1 14 12
M  V30 14 1 15 13
M  V30 15 1 14 16 CFG=1
M  V30 16 1 14 17
M  V30 17 1 15 18
M  V30 18 1 7 9
M  V30 19 1 15 16 CFG=1
M  V30 20 1 17 18
M  V30 END BOND
M  V30 BEGIN COLLECTION
M  V30 MDLV30/STEABS ATOMS=(3 11 14 15)
M  V30 END COLLECTION
M  V30 END CTAB
M  END
>  <Molecule Name>
Compound 600

>  <Molecule Name 2>
Compound 600

>  <Compound ID>
203

>  <Name>


>  <Uniprot>
P10275

>  <Target>
AR

>  <Smiles>
N#CC1=CC=C(O[C@@H]2C[C@@H]3CC[C@H](C2)N3)C=C1Cl

>  <Kd (nM)>


>  <Assay (Kd)>


>  <Ki (nM)>


>  <Assay (Ki)>


>  <IC50 (nM)>


>  <Assay (IC50)>


>  <EC50 (nM)>


>  <Assay (EC50)>


>  <Article DOI>
10.1016/j.ejmech.2021.113307

>  <Molecular Weight>
262.74

>  <Exact Mass>
262.0872908

>  <XLogP3>
2.98

>  <Heavy Atom Count>
18

>  <Ring Count>
3

>  <Hydrogen Bond Acceptor Count>
3

>  <Hydrogen Bond Donor Count>
1

>  <Rotatable Bond Count>
2

>  <Topological Polar Surface Area>
45.05

>  <Molecular Formula>
C14H15ClN2O

>  <InChI>
InChI=1S/C14H15ClN2O/c15-14-7-12(4-1-9(14)8-16)18-13-5-10-2-3-11(6-13)17-10/h1,4,7,10-11,13,17H,2-3,5-6H2/t10-,11+,13+

>  <InChI Key>
HISMEXSZSTZMDK-PJXYFTJBSA-N

>  <BindingDB>


>  <PubChem>


>  <ChEMBL>


$$$$
204
Actelion Java MolfileCreator 2.0

  0  0  0  0  0  0              0 V3000
M  V30 BEGIN CTAB
M  V30 COUNTS 17 19 0 0 0
M  V30 BEGIN ATOM
M  V30 1 S 0.9705 0.9945 0.0 0
M  V30 2 C 0.866 0.0 0.0 0
M  V30 3 C 1.9487 1.2024 0.0 0
M  V30 4 N 1.7795 -0.4067 0.0 0
M  V30 5 N 0.0 -0.5 0.0 0
M  V30 6 C 2.4487 0.3364 0.0 0
M  V30 7 C -0.866 0.0 0.0 0
M  V30 8 C 0.0 -1.4999 0.0 0
M  V30 9 C 3.4432 0.2318 0.0 0
M  V30 10 C -1.732 -0.4999 0.0 0
M  V30 11 C -0.866 -1.9999 0.0 0
M  V30 12 C 3.8499 -0.6816 0.0 0
M  V30 13 C 4.031 1.0408 0.0 0
M  V30 14 O -1.732 -1.4999 0.0 0
M  V30 15 C 4.8444 -0.7861 0.0 0
M  V30 16 C 5.0255 0.9363 0.0 0
M  V30 17 C 5.4322 0.0228 0.0 0
M  V30 END ATOM
M  V30 BEGIN BOND
M  V30 1 1 1 2
M  V30 2 1 1 3
M  V30 3 2 2 4
M  V30 4 1 2 5
M  V30 5 2 3 6
M  V30 6 1 5 7
M  V30 7 1 5 8
M  V30 8 1 6 9
M  V30 9 1 7 10
M  V30 10 1 8 11
M  V30 11 2 9 12
M  V30 12 1 9 13
M  V30 13 1 10 14
M  V30 14 1 12 15
M  V30 15 2 13 16
M  V30 16 2 15 17
M  V30 17 1 4 6
M  V30 18 1 11 14
M  V30 19 1 16 17
M  V30 END BOND
M  V30 END CTAB
M  END
>  <Molecule Name>
Compound 601

>  <Molecule Name 2>
Compound 601

>  <Compound ID>
204

>  <Name>
VPC-14228

>  <Uniprot>
P10275

>  <Target>
AR

>  <Smiles>
C1=CC=C(C2=CSC(N3CCOCC3)=N2)C=C1

>  <Kd (nM)>


>  <Assay (Kd)>


>  <Ki (nM)>


>  <Assay (Ki)>


>  <IC50 (nM)>
280

>  <Assay (IC50)>
Inhibition of the PSA expression

>  <EC50 (nM)>


>  <Assay (EC50)>


>  <Article DOI>
10.1021/jm500802j

>  <Molecular Weight>
246.335

>  <Exact Mass>
246.0826841

>  <XLogP3>
2.7

>  <Heavy Atom Count>
17

>  <Ring Count>
3

>  <Hydrogen Bond Acceptor Count>
4

>  <Hydrogen Bond Donor Count>
0

>  <Rotatable Bond Count>
2

>  <Topological Polar Surface Area>
25.36

>  <Molecular Formula>
C13H14N2OS

>  <InChI>
InChI=1S/C13H14N2OS/c1-2-4-11(5-3-1)12-10-17-13(14-12)15-6-8-16-9-7-15/h1-5,10H,6-9H2

>  <InChI Key>
MRNNJVNMXOZEQC-UHFFFAOYSA-N

>  <BindingDB>
50497993

>  <PubChem>
727584

>  <ChEMBL>
CHEMBL1623389

$$$$
204
Actelion Java MolfileCreator 2.0

  0  0  0  0  0  0              0 V3000
M  V30 BEGIN CTAB
M  V30 COUNTS 17 19 0 0 0
M  V30 BEGIN ATOM
M  V30 1 S 0.9705 0.9945 0.0 0
M  V30 2 C 0.866 0.0 0.0 0
M  V30 3 C 1.9487 1.2024 0.0 0
M  V30 4 N 1.7795 -0.4067 0.0 0
M  V30 5 N 0.0 -0.5 0.0 0
M  V30 6 C 2.4487 0.3364 0.0 0
M  V30 7 C -0.866 0.0 0.0 0
M  V30 8 C 0.0 -1.4999 0.0 0
M  V30 9 C 3.4432 0.2318 0.0 0
M  V30 10 C -1.732 -0.4999 0.0 0
M  V30 11 C -0.866 -1.9999 0.0 0
M  V30 12 C 3.8499 -0.6816 0.0 0
M  V30 13 C 4.031 1.0408 0.0 0
M  V30 14 O -1.732 -1.4999 0.0 0
M  V30 15 C 4.8444 -0.7861 0.0 0
M  V30 16 C 5.0255 0.9363 0.0 0
M  V30 17 C 5.4322 0.0228 0.0 0
M  V30 END ATOM
M  V30 BEGIN BOND
M  V30 1 1 1 2
M  V30 2 1 1 3
M  V30 3 2 2 4
M  V30 4 1 2 5
M  V30 5 2 3 6
M  V30 6 1 5 7
M  V30 7 1 5 8
M  V30 8 1 6 9
M  V30 9 1 7 10
M  V30 10 1 8 11
M  V30 11 2 9 12
M  V30 12 1 9 13
M  V30 13 1 10 14
M  V30 14 1 12 15
M  V30 15 2 13 16
M  V30 16 2 15 17
M  V30 17 1 4 6
M  V30 18 1 11 14
M  V30 19 1 16 17
M  V30 END BOND
M  V30 END CTAB
M  END
>  <Molecule Name>
Compound 602

>  <Molecule Name 2>
Compound 602

>  <Compound ID>
204

>  <Name>
VPC-14228

>  <Uniprot>
P10275

>  <Target>
AR-V7

>  <Smiles>
C1=CC=C(C2=CSC(N3CCOCC3)=N2)C=C1

>  <Kd (nM)>


>  <Assay (Kd)>


>  <Ki (nM)>


>  <Assay (Ki)>


>  <IC50 (nM)>
280

>  <Assay (IC50)>
Inhibition of the PSA expression

>  <EC50 (nM)>


>  <Assay (EC50)>


>  <Article DOI>
10.1021/jm500802j

>  <Molecular Weight>
246.335

>  <Exact Mass>
246.0826841

>  <XLogP3>
2.7

>  <Heavy Atom Count>
17

>  <Ring Count>
3

>  <Hydrogen Bond Acceptor Count>
4

>  <Hydrogen Bond Donor Count>
0

>  <Rotatable Bond Count>
2

>  <Topological Polar Surface Area>
25.36

>  <Molecular Formula>
C13H14N2OS

>  <InChI>
InChI=1S/C13H14N2OS/c1-2-4-11(5-3-1)12-10-17-13(14-12)15-6-8-16-9-7-15/h1-5,10H,6-9H2

>  <InChI Key>
MRNNJVNMXOZEQC-UHFFFAOYSA-N

>  <BindingDB>
50497993

>  <PubChem>
727584

>  <ChEMBL>
CHEMBL1623389

$$$$
205
Actelion Java MolfileCreator 2.0

  0  0  0  0  0  0              0 V3000
M  V30 BEGIN CTAB
M  V30 COUNTS 35 38 0 0 0
M  V30 BEGIN ATOM
M  V30 1 S 2.598 -0.75 0.0 0
M  V30 2 O 1.848 -2.049 0.0 0
M  V30 3 O 3.348 -2.049 0.0 0
M  V30 4 N 1.299 0.0 0.0 0
M  V30 5 C 3.8971 0.0 0.0 0
M  V30 6 C 0.0 -0.75 0.0 0
M  V30 7 C 5.1961 -0.75 0.0 0
M  V30 8 C 3.8971 1.5 0.0 0
M  V30 9 C -1.299 0.0 0.0 0
M  V30 10 C 0.0 -2.25 0.0 0
M  V30 11 F 5.1961 -2.25 0.0 0
M  V30 12 C 6.4951 0.0 0.0 0
M  V30 13 F 2.598 2.25 0.0 0
M  V30 14 C 5.1961 2.25 0.0 0
M  V30 15 F -1.299 1.5 0.0 0
M  V30 16 C -2.598 -0.75 0.0 0
M  V30 17 C -1.299 -3.0 0.0 0
M  V30 18 C 6.4951 1.5 0.0 0
M  V30 19 C -3.8971 0.0 0.0 0
M  V30 20 C -2.598 -2.25 0.0 0
M  V30 21 N -4.0539 1.4917 0.0 0
M  V30 22 C -5.2674 -0.6101 0.0 0
M  V30 23 C -5.5211 1.8036 0.0 0
M  V30 24 S -6.2711 0.5046 0.0 0
M  V30 25 C -5.5793 -2.0773 0.0 0
M  V30 26 C -6.1312 3.1739 0.0 0
M  V30 27 N -7.0058 -2.5408 0.0 0
M  V30 28 C -4.4645 -3.081 0.0 0
M  V30 29 C -7.5015 2.5638 0.0 0
M  V30 30 C -6.7413 4.5442 0.0 0
M  V30 31 C -4.7609 3.784 0.0 0
M  V30 32 C -7.3177 -4.008 0.0 0
M  V30 33 C -4.7764 -4.5482 0.0 0
M  V30 34 N -6.203 -5.0117 0.0 0
M  V30 35 N -8.7443 -4.4716 0.0 0
M  V30 END ATOM
M  V30 BEGIN BOND
M  V30 1 2 1 2
M  V30 2 2 1 3
M  V30 3 1 1 4
M  V30 4 1 1 5
M  V30 5 1 4 6
M  V30 6 2 5 7
M  V30 7 1 5 8
M  V30 8 2 6 9
M  V30 9 1 6 10
M  V30 10 1 7 11
M  V30 11 1 7 12
M  V30 12 1 8 13
M  V30 13 2 8 14
M  V30 14 1 9 15
M  V30 15 1 9 16
M  V30 16 2 10 17
M  V30 17 2 12 18
M  V30 18 1 16 19
M  V30 19 2 16 20
M  V30 20 1 19 21
M  V30 21 2 19 22
M  V30 22 2 21 23
M  V30 23 1 22 24
M  V30 24 1 22 25
M  V30 25 1 23 26
M  V30 26 2 25 27
M  V30 27 1 25 28
M  V30 28 1 26 29
M  V30 29 1 26 30
M  V30 30 1 26 31
M  V30 31 1 27 32
M  V30 32 2 28 33
M  V30 33 2 32 34
M  V30 34 1 32 35
M  V30 35 1 14 18
M  V30 36 1 17 20
M  V30 37 1 23 24
M  V30 38 1 33 34
M  V30 END BOND
M  V30 END CTAB
M  END
>  <Molecule Name>
Compound 603

>  <Molecule Name 2>
Compound 603

>  <Compound ID>
205

>  <Name>
Dabrafenib

>  <Uniprot>
O14965

>  <Target>
AURKA

>  <Smiles>
CC(C)(C)C1=NC(C2=CC=CC(NS(=O)(=O)C3=C(F)C=CC=C3F)=C2F)=C(C2=CC=NC(N)=N2)S1

>  <Kd (nM)>


>  <Assay (Kd)>


>  <Ki (nM)>


>  <Assay (Ki)>


>  <IC50 (nM)>


>  <Assay (IC50)>


>  <EC50 (nM)>


>  <Assay (EC50)>


>  <Article DOI>
10.1016/j.cell.2020.10.038

>  <Molecular Weight>
519.574

>  <Exact Mass>
519.1010515

>  <XLogP3>
4.78

>  <Heavy Atom Count>
35

>  <Ring Count>
4

>  <Hydrogen Bond Acceptor Count>
7

>  <Hydrogen Bond Donor Count>
2

>  <Rotatable Bond Count>
5

>  <Topological Polar Surface Area>
110.86

>  <Molecular Formula>
C23H20F3N5O2S2

>  <InChI>
InChI=1S/C23H20F3N5O2S2/c1-23(2,3)21-30-18(19(34-21)16-10-11-28-22(27)29-16)12-6-4-9-15(17(12)26)31-35(32,33)20-13(24)7-5-8-14(20)25/h4-11,31H,1-3H3,(H2,27,28,29)

>  <InChI Key>
BFSMGDJOXZAERB-UHFFFAOYSA-N

>  <BindingDB>
50428286

>  <PubChem>
44462760

>  <ChEMBL>
CHEMBL2028663

$$$$
205
Actelion Java MolfileCreator 2.0

  0  0  0  0  0  0              0 V3000
M  V30 BEGIN CTAB
M  V30 COUNTS 35 38 0 0 0
M  V30 BEGIN ATOM
M  V30 1 S 2.598 -0.75 0.0 0
M  V30 2 O 1.848 -2.049 0.0 0
M  V30 3 O 3.348 -2.049 0.0 0
M  V30 4 N 1.299 0.0 0.0 0
M  V30 5 C 3.8971 0.0 0.0 0
M  V30 6 C 0.0 -0.75 0.0 0
M  V30 7 C 5.1961 -0.75 0.0 0
M  V30 8 C 3.8971 1.5 0.0 0
M  V30 9 C -1.299 0.0 0.0 0
M  V30 10 C 0.0 -2.25 0.0 0
M  V30 11 F 5.1961 -2.25 0.0 0
M  V30 12 C 6.4951 0.0 0.0 0
M  V30 13 F 2.598 2.25 0.0 0
M  V30 14 C 5.1961 2.25 0.0 0
M  V30 15 F -1.299 1.5 0.0 0
M  V30 16 C -2.598 -0.75 0.0 0
M  V30 17 C -1.299 -3.0 0.0 0
M  V30 18 C 6.4951 1.5 0.0 0
M  V30 19 C -3.8971 0.0 0.0 0
M  V30 20 C -2.598 -2.25 0.0 0
M  V30 21 N -4.0539 1.4917 0.0 0
M  V30 22 C -5.2674 -0.6101 0.0 0
M  V30 23 C -5.5211 1.8036 0.0 0
M  V30 24 S -6.2711 0.5046 0.0 0
M  V30 25 C -5.5793 -2.0773 0.0 0
M  V30 26 C -6.1312 3.1739 0.0 0
M  V30 27 N -7.0058 -2.5408 0.0 0
M  V30 28 C -4.4645 -3.081 0.0 0
M  V30 29 C -7.5015 2.5638 0.0 0
M  V30 30 C -6.7413 4.5442 0.0 0
M  V30 31 C -4.7609 3.784 0.0 0
M  V30 32 C -7.3177 -4.008 0.0 0
M  V30 33 C -4.7764 -4.5482 0.0 0
M  V30 34 N -6.203 -5.0117 0.0 0
M  V30 35 N -8.7443 -4.4716 0.0 0
M  V30 END ATOM
M  V30 BEGIN BOND
M  V30 1 2 1 2
M  V30 2 2 1 3
M  V30 3 1 1 4
M  V30 4 1 1 5
M  V30 5 1 4 6
M  V30 6 2 5 7
M  V30 7 1 5 8
M  V30 8 2 6 9
M  V30 9 1 6 10
M  V30 10 1 7 11
M  V30 11 1 7 12
M  V30 12 1 8 13
M  V30 13 2 8 14
M  V30 14 1 9 15
M  V30 15 1 9 16
M  V30 16 2 10 17
M  V30 17 2 12 18
M  V30 18 1 16 19
M  V30 19 2 16 20
M  V30 20 1 19 21
M  V30 21 2 19 22
M  V30 22 2 21 23
M  V30 23 1 22 24
M  V30 24 1 22 25
M  V30 25 1 23 26
M  V30 26 2 25 27
M  V30 27 1 25 28
M  V30 28 1 26 29
M  V30 29 1 26 30
M  V30 30 1 26 31
M  V30 31 1 27 32
M  V30 32 2 28 33
M  V30 33 2 32 34
M  V30 34 1 32 35
M  V30 35 1 14 18
M  V30 36 1 17 20
M  V30 37 1 23 24
M  V30 38 1 33 34
M  V30 END BOND
M  V30 END CTAB
M  END
>  <Molecule Name>
Compound 604

>  <Molecule Name 2>
Compound 604

>  <Compound ID>
205

>  <Name>
Dabrafenib

>  <Uniprot>
O14874

>  <Target>
BCKDK

>  <Smiles>
CC(C)(C)C1=NC(C2=CC=CC(NS(=O)(=O)C3=C(F)C=CC=C3F)=C2F)=C(C2=CC=NC(N)=N2)S1

>  <Kd (nM)>


>  <Assay (Kd)>


>  <Ki (nM)>


>  <Assay (Ki)>


>  <IC50 (nM)>


>  <Assay (IC50)>


>  <EC50 (nM)>


>  <Assay (EC50)>


>  <Article DOI>
10.1016/j.cell.2020.10.038

>  <Molecular Weight>
519.574

>  <Exact Mass>
519.1010515

>  <XLogP3>
4.78

>  <Heavy Atom Count>
35

>  <Ring Count>
4

>  <Hydrogen Bond Acceptor Count>
7

>  <Hydrogen Bond Donor Count>
2

>  <Rotatable Bond Count>
5

>  <Topological Polar Surface Area>
110.86

>  <Molecular Formula>
C23H20F3N5O2S2

>  <InChI>
InChI=1S/C23H20F3N5O2S2/c1-23(2,3)21-30-18(19(34-21)16-10-11-28-22(27)29-16)12-6-4-9-15(17(12)26)31-35(32,33)20-13(24)7-5-8-14(20)25/h4-11,31H,1-3H3,(H2,27,28,29)

>  <InChI Key>
BFSMGDJOXZAERB-UHFFFAOYSA-N

>  <BindingDB>
50428286

>  <PubChem>
44462760

>  <ChEMBL>
CHEMBL2028663

$$$$
205
Actelion Java MolfileCreator 2.0

  0  0  0  0  0  0              0 V3000
M  V30 BEGIN CTAB
M  V30 COUNTS 35 38 0 0 0
M  V30 BEGIN ATOM
M  V30 1 S 2.598 -0.75 0.0 0
M  V30 2 O 1.848 -2.049 0.0 0
M  V30 3 O 3.348 -2.049 0.0 0
M  V30 4 N 1.299 0.0 0.0 0
M  V30 5 C 3.8971 0.0 0.0 0
M  V30 6 C 0.0 -0.75 0.0 0
M  V30 7 C 5.1961 -0.75 0.0 0
M  V30 8 C 3.8971 1.5 0.0 0
M  V30 9 C -1.299 0.0 0.0 0
M  V30 10 C 0.0 -2.25 0.0 0
M  V30 11 F 5.1961 -2.25 0.0 0
M  V30 12 C 6.4951 0.0 0.0 0
M  V30 13 F 2.598 2.25 0.0 0
M  V30 14 C 5.1961 2.25 0.0 0
M  V30 15 F -1.299 1.5 0.0 0
M  V30 16 C -2.598 -0.75 0.0 0
M  V30 17 C -1.299 -3.0 0.0 0
M  V30 18 C 6.4951 1.5 0.0 0
M  V30 19 C -3.8971 0.0 0.0 0
M  V30 20 C -2.598 -2.25 0.0 0
M  V30 21 N -4.0539 1.4917 0.0 0
M  V30 22 C -5.2674 -0.6101 0.0 0
M  V30 23 C -5.5211 1.8036 0.0 0
M  V30 24 S -6.2711 0.5046 0.0 0
M  V30 25 C -5.5793 -2.0773 0.0 0
M  V30 26 C -6.1312 3.1739 0.0 0
M  V30 27 N -7.0058 -2.5408 0.0 0
M  V30 28 C -4.4645 -3.081 0.0 0
M  V30 29 C -7.5015 2.5638 0.0 0
M  V30 30 C -6.7413 4.5442 0.0 0
M  V30 31 C -4.7609 3.784 0.0 0
M  V30 32 C -7.3177 -4.008 0.0 0
M  V30 33 C -4.7764 -4.5482 0.0 0
M  V30 34 N -6.203 -5.0117 0.0 0
M  V30 35 N -8.7443 -4.4716 0.0 0
M  V30 END ATOM
M  V30 BEGIN BOND
M  V30 1 2 1 2
M  V30 2 2 1 3
M  V30 3 1 1 4
M  V30 4 1 1 5
M  V30 5 1 4 6
M  V30 6 2 5 7
M  V30 7 1 5 8
M  V30 8 2 6 9
M  V30 9 1 6 10
M  V30 10 1 7 11
M  V30 11 1 7 12
M  V30 12 1 8 13
M  V30 13 2 8 14
M  V30 14 1 9 15
M  V30 15 1 9 16
M  V30 16 2 10 17
M  V30 17 2 12 18
M  V30 18 1 16 19
M  V30 19 2 16 20
M  V30 20 1 19 21
M  V30 21 2 19 22
M  V30 22 2 21 23
M  V30 23 1 22 24
M  V30 24 1 22 25
M  V30 25 1 23 26
M  V30 26 2 25 27
M  V30 27 1 25 28
M  V30 28 1 26 29
M  V30 29 1 26 30
M  V30 30 1 26 31
M  V30 31 1 27 32
M  V30 32 2 28 33
M  V30 33 2 32 34
M  V30 34 1 32 35
M  V30 35 1 14 18
M  V30 36 1 17 20
M  V30 37 1 23 24
M  V30 38 1 33 34
M  V30 END BOND
M  V30 END CTAB
M  END
>  <Molecule Name>
Compound 605

>  <Molecule Name 2>
Compound 605

>  <Compound ID>
205

>  <Name>
Dabrafenib

>  <Uniprot>
P15056

>  <Target>
BRAF V600E

>  <Smiles>
CC(C)(C)C1=NC(C2=CC=CC(NS(=O)(=O)C3=C(F)C=CC=C3F)=C2F)=C(C2=CC=NC(N)=N2)S1

>  <Kd (nM)>


>  <Assay (Kd)>


>  <Ki (nM)>


>  <Assay (Ki)>


>  <IC50 (nM)>
0.8

>  <Assay (IC50)>
Inhibition of BRAF V600E

>  <EC50 (nM)>


>  <Assay (EC50)>


>  <Article DOI>
10.1021/acs.jmedchem.7b01306

>  <Molecular Weight>
519.574

>  <Exact Mass>
519.1010515

>  <XLogP3>
4.78

>  <Heavy Atom Count>
35

>  <Ring Count>
4

>  <Hydrogen Bond Acceptor Count>
7

>  <Hydrogen Bond Donor Count>
2

>  <Rotatable Bond Count>
5

>  <Topological Polar Surface Area>
110.86

>  <Molecular Formula>
C23H20F3N5O2S2

>  <InChI>
InChI=1S/C23H20F3N5O2S2/c1-23(2,3)21-30-18(19(34-21)16-10-11-28-22(27)29-16)12-6-4-9-15(17(12)26)31-35(32,33)20-13(24)7-5-8-14(20)25/h4-11,31H,1-3H3,(H2,27,28,29)

>  <InChI Key>
BFSMGDJOXZAERB-UHFFFAOYSA-N

>  <BindingDB>
50428286

>  <PubChem>
44462760

>  <ChEMBL>
CHEMBL2028663

$$$$
205
Actelion Java MolfileCreator 2.0

  0  0  0  0  0  0              0 V3000
M  V30 BEGIN CTAB
M  V30 COUNTS 35 38 0 0 0
M  V30 BEGIN ATOM
M  V30 1 S 2.598 -0.75 0.0 0
M  V30 2 O 1.848 -2.049 0.0 0
M  V30 3 O 3.348 -2.049 0.0 0
M  V30 4 N 1.299 0.0 0.0 0
M  V30 5 C 3.8971 0.0 0.0 0
M  V30 6 C 0.0 -0.75 0.0 0
M  V30 7 C 5.1961 -0.75 0.0 0
M  V30 8 C 3.8971 1.5 0.0 0
M  V30 9 C -1.299 0.0 0.0 0
M  V30 10 C 0.0 -2.25 0.0 0
M  V30 11 F 5.1961 -2.25 0.0 0
M  V30 12 C 6.4951 0.0 0.0 0
M  V30 13 F 2.598 2.25 0.0 0
M  V30 14 C 5.1961 2.25 0.0 0
M  V30 15 F -1.299 1.5 0.0 0
M  V30 16 C -2.598 -0.75 0.0 0
M  V30 17 C -1.299 -3.0 0.0 0
M  V30 18 C 6.4951 1.5 0.0 0
M  V30 19 C -3.8971 0.0 0.0 0
M  V30 20 C -2.598 -2.25 0.0 0
M  V30 21 N -4.0539 1.4917 0.0 0
M  V30 22 C -5.2674 -0.6101 0.0 0
M  V30 23 C -5.5211 1.8036 0.0 0
M  V30 24 S -6.2711 0.5046 0.0 0
M  V30 25 C -5.5793 -2.0773 0.0 0
M  V30 26 C -6.1312 3.1739 0.0 0
M  V30 27 N -7.0058 -2.5408 0.0 0
M  V30 28 C -4.4645 -3.081 0.0 0
M  V30 29 C -7.5015 2.5638 0.0 0
M  V30 30 C -6.7413 4.5442 0.0 0
M  V30 31 C -4.7609 3.784 0.0 0
M  V30 32 C -7.3177 -4.008 0.0 0
M  V30 33 C -4.7764 -4.5482 0.0 0
M  V30 34 N -6.203 -5.0117 0.0 0
M  V30 35 N -8.7443 -4.4716 0.0 0
M  V30 END ATOM
M  V30 BEGIN BOND
M  V30 1 2 1 2
M  V30 2 2 1 3
M  V30 3 1 1 4
M  V30 4 1 1 5
M  V30 5 1 4 6
M  V30 6 2 5 7
M  V30 7 1 5 8
M  V30 8 2 6 9
M  V30 9 1 6 10
M  V30 10 1 7 11
M  V30 11 1 7 12
M  V30 12 1 8 13
M  V30 13 2 8 14
M  V30 14 1 9 15
M  V30 15 1 9 16
M  V30 16 2 10 17
M  V30 17 2 12 18
M  V30 18 1 16 19
M  V30 19 2 16 20
M  V30 20 1 19 21
M  V30 21 2 19 22
M  V30 22 2 21 23
M  V30 23 1 22 24
M  V30 24 1 22 25
M  V30 25 1 23 26
M  V30 26 2 25 27
M  V30 27 1 25 28
M  V30 28 1 26 29
M  V30 29 1 26 30
M  V30 30 1 26 31
M  V30 31 1 27 32
M  V30 32 2 28 33
M  V30 33 2 32 34
M  V30 34 1 32 35
M  V30 35 1 14 18
M  V30 36 1 17 20
M  V30 37 1 23 24
M  V30 38 1 33 34
M  V30 END BOND
M  V30 END CTAB
M  END
>  <Molecule Name>
Compound 606

>  <Molecule Name 2>
Compound 606

>  <Compound ID>
205

>  <Name>
Dabrafenib

>  <Uniprot>
Q00536

>  <Target>
CDK16

>  <Smiles>
CC(C)(C)C1=NC(C2=CC=CC(NS(=O)(=O)C3=C(F)C=CC=C3F)=C2F)=C(C2=CC=NC(N)=N2)S1

>  <Kd (nM)>
13

>  <Assay (Kd)>
Kd apparent of CDK16

>  <Ki (nM)>


>  <Assay (Ki)>


>  <IC50 (nM)>


>  <Assay (IC50)>


>  <EC50 (nM)>


>  <Assay (EC50)>


>  <Article DOI>
10.1126/science.aan4368

>  <Molecular Weight>
519.574

>  <Exact Mass>
519.1010515

>  <XLogP3>
4.78

>  <Heavy Atom Count>
35

>  <Ring Count>
4

>  <Hydrogen Bond Acceptor Count>
7

>  <Hydrogen Bond Donor Count>
2

>  <Rotatable Bond Count>
5

>  <Topological Polar Surface Area>
110.86

>  <Molecular Formula>
C23H20F3N5O2S2

>  <InChI>
InChI=1S/C23H20F3N5O2S2/c1-23(2,3)21-30-18(19(34-21)16-10-11-28-22(27)29-16)12-6-4-9-15(17(12)26)31-35(32,33)20-13(24)7-5-8-14(20)25/h4-11,31H,1-3H3,(H2,27,28,29)

>  <InChI Key>
BFSMGDJOXZAERB-UHFFFAOYSA-N

>  <BindingDB>
50428286

>  <PubChem>
44462760

>  <ChEMBL>
CHEMBL2028663

$$$$
205
Actelion Java MolfileCreator 2.0

  0  0  0  0  0  0              0 V3000
M  V30 BEGIN CTAB
M  V30 COUNTS 35 38 0 0 0
M  V30 BEGIN ATOM
M  V30 1 S 2.598 -0.75 0.0 0
M  V30 2 O 1.848 -2.049 0.0 0
M  V30 3 O 3.348 -2.049 0.0 0
M  V30 4 N 1.299 0.0 0.0 0
M  V30 5 C 3.8971 0.0 0.0 0
M  V30 6 C 0.0 -0.75 0.0 0
M  V30 7 C 5.1961 -0.75 0.0 0
M  V30 8 C 3.8971 1.5 0.0 0
M  V30 9 C -1.299 0.0 0.0 0
M  V30 10 C 0.0 -2.25 0.0 0
M  V30 11 F 5.1961 -2.25 0.0 0
M  V30 12 C 6.4951 0.0 0.0 0
M  V30 13 F 2.598 2.25 0.0 0
M  V30 14 C 5.1961 2.25 0.0 0
M  V30 15 F -1.299 1.5 0.0 0
M  V30 16 C -2.598 -0.75 0.0 0
M  V30 17 C -1.299 -3.0 0.0 0
M  V30 18 C 6.4951 1.5 0.0 0
M  V30 19 C -3.8971 0.0 0.0 0
M  V30 20 C -2.598 -2.25 0.0 0
M  V30 21 N -4.0539 1.4917 0.0 0
M  V30 22 C -5.2674 -0.6101 0.0 0
M  V30 23 C -5.5211 1.8036 0.0 0
M  V30 24 S -6.2711 0.5046 0.0 0
M  V30 25 C -5.5793 -2.0773 0.0 0
M  V30 26 C -6.1312 3.1739 0.0 0
M  V30 27 N -7.0058 -2.5408 0.0 0
M  V30 28 C -4.4645 -3.081 0.0 0
M  V30 29 C -7.5015 2.5638 0.0 0
M  V30 30 C -6.7413 4.5442 0.0 0
M  V30 31 C -4.7609 3.784 0.0 0
M  V30 32 C -7.3177 -4.008 0.0 0
M  V30 33 C -4.7764 -4.5482 0.0 0
M  V30 34 N -6.203 -5.0117 0.0 0
M  V30 35 N -8.7443 -4.4716 0.0 0
M  V30 END ATOM
M  V30 BEGIN BOND
M  V30 1 2 1 2
M  V30 2 2 1 3
M  V30 3 1 1 4
M  V30 4 1 1 5
M  V30 5 1 4 6
M  V30 6 2 5 7
M  V30 7 1 5 8
M  V30 8 2 6 9
M  V30 9 1 6 10
M  V30 10 1 7 11
M  V30 11 1 7 12
M  V30 12 1 8 13
M  V30 13 2 8 14
M  V30 14 1 9 15
M  V30 15 1 9 16
M  V30 16 2 10 17
M  V30 17 2 12 18
M  V30 18 1 16 19
M  V30 19 2 16 20
M  V30 20 1 19 21
M  V30 21 2 19 22
M  V30 22 2 21 23
M  V30 23 1 22 24
M  V30 24 1 22 25
M  V30 25 1 23 26
M  V30 26 2 25 27
M  V30 27 1 25 28
M  V30 28 1 26 29
M  V30 29 1 26 30
M  V30 30 1 26 31
M  V30 31 1 27 32
M  V30 32 2 28 33
M  V30 33 2 32 34
M  V30 34 1 32 35
M  V30 35 1 14 18
M  V30 36 1 17 20
M  V30 37 1 23 24
M  V30 38 1 33 34
M  V30 END BOND
M  V30 END CTAB
M  END
>  <Molecule Name>
Compound 607

>  <Molecule Name 2>
Compound 607

>  <Compound ID>
205

>  <Name>
Dabrafenib

>  <Uniprot>
Q00537

>  <Target>
CDK17

>  <Smiles>
CC(C)(C)C1=NC(C2=CC=CC(NS(=O)(=O)C3=C(F)C=CC=C3F)=C2F)=C(C2=CC=NC(N)=N2)S1

>  <Kd (nM)>


>  <Assay (Kd)>


>  <Ki (nM)>


>  <Assay (Ki)>


>  <IC50 (nM)>


>  <Assay (IC50)>


>  <EC50 (nM)>


>  <Assay (EC50)>


>  <Article DOI>
10.1016/j.cell.2020.10.038

>  <Molecular Weight>
519.574

>  <Exact Mass>
519.1010515

>  <XLogP3>
4.78

>  <Heavy Atom Count>
35

>  <Ring Count>
4

>  <Hydrogen Bond Acceptor Count>
7

>  <Hydrogen Bond Donor Count>
2

>  <Rotatable Bond Count>
5

>  <Topological Polar Surface Area>
110.86

>  <Molecular Formula>
C23H20F3N5O2S2

>  <InChI>
InChI=1S/C23H20F3N5O2S2/c1-23(2,3)21-30-18(19(34-21)16-10-11-28-22(27)29-16)12-6-4-9-15(17(12)26)31-35(32,33)20-13(24)7-5-8-14(20)25/h4-11,31H,1-3H3,(H2,27,28,29)

>  <InChI Key>
BFSMGDJOXZAERB-UHFFFAOYSA-N

>  <BindingDB>
50428286

>  <PubChem>
44462760

>  <ChEMBL>
CHEMBL2028663

$$$$
205
Actelion Java MolfileCreator 2.0

  0  0  0  0  0  0              0 V3000
M  V30 BEGIN CTAB
M  V30 COUNTS 35 38 0 0 0
M  V30 BEGIN ATOM
M  V30 1 S 2.598 -0.75 0.0 0
M  V30 2 O 1.848 -2.049 0.0 0
M  V30 3 O 3.348 -2.049 0.0 0
M  V30 4 N 1.299 0.0 0.0 0
M  V30 5 C 3.8971 0.0 0.0 0
M  V30 6 C 0.0 -0.75 0.0 0
M  V30 7 C 5.1961 -0.75 0.0 0
M  V30 8 C 3.8971 1.5 0.0 0
M  V30 9 C -1.299 0.0 0.0 0
M  V30 10 C 0.0 -2.25 0.0 0
M  V30 11 F 5.1961 -2.25 0.0 0
M  V30 12 C 6.4951 0.0 0.0 0
M  V30 13 F 2.598 2.25 0.0 0
M  V30 14 C 5.1961 2.25 0.0 0
M  V30 15 F -1.299 1.5 0.0 0
M  V30 16 C -2.598 -0.75 0.0 0
M  V30 17 C -1.299 -3.0 0.0 0
M  V30 18 C 6.4951 1.5 0.0 0
M  V30 19 C -3.8971 0.0 0.0 0
M  V30 20 C -2.598 -2.25 0.0 0
M  V30 21 N -4.0539 1.4917 0.0 0
M  V30 22 C -5.2674 -0.6101 0.0 0
M  V30 23 C -5.5211 1.8036 0.0 0
M  V30 24 S -6.2711 0.5046 0.0 0
M  V30 25 C -5.5793 -2.0773 0.0 0
M  V30 26 C -6.1312 3.1739 0.0 0
M  V30 27 N -7.0058 -2.5408 0.0 0
M  V30 28 C -4.4645 -3.081 0.0 0
M  V30 29 C -7.5015 2.5638 0.0 0
M  V30 30 C -6.7413 4.5442 0.0 0
M  V30 31 C -4.7609 3.784 0.0 0
M  V30 32 C -7.3177 -4.008 0.0 0
M  V30 33 C -4.7764 -4.5482 0.0 0
M  V30 34 N -6.203 -5.0117 0.0 0
M  V30 35 N -8.7443 -4.4716 0.0 0
M  V30 END ATOM
M  V30 BEGIN BOND
M  V30 1 2 1 2
M  V30 2 2 1 3
M  V30 3 1 1 4
M  V30 4 1 1 5
M  V30 5 1 4 6
M  V30 6 2 5 7
M  V30 7 1 5 8
M  V30 8 2 6 9
M  V30 9 1 6 10
M  V30 10 1 7 11
M  V30 11 1 7 12
M  V30 12 1 8 13
M  V30 13 2 8 14
M  V30 14 1 9 15
M  V30 15 1 9 16
M  V30 16 2 10 17
M  V30 17 2 12 18
M  V30 18 1 16 19
M  V30 19 2 16 20
M  V30 20 1 19 21
M  V30 21 2 19 22
M  V30 22 2 21 23
M  V30 23 1 22 24
M  V30 24 1 22 25
M  V30 25 1 23 26
M  V30 26 2 25 27
M  V30 27 1 25 28
M  V30 28 1 26 29
M  V30 29 1 26 30
M  V30 30 1 26 31
M  V30 31 1 27 32
M  V30 32 2 28 33
M  V30 33 2 32 34
M  V30 34 1 32 35
M  V30 35 1 14 18
M  V30 36 1 17 20
M  V30 37 1 23 24
M  V30 38 1 33 34
M  V30 END BOND
M  V30 END CTAB
M  END
>  <Molecule Name>
Compound 608

>  <Molecule Name 2>
Compound 608

>  <Compound ID>
205

>  <Name>
Dabrafenib

>  <Uniprot>
P06493

>  <Target>
CDK1

>  <Smiles>
CC(C)(C)C1=NC(C2=CC=CC(NS(=O)(=O)C3=C(F)C=CC=C3F)=C2F)=C(C2=CC=NC(N)=N2)S1

>  <Kd (nM)>
>30000

>  <Assay (Kd)>
Kd apparent of CDK1

>  <Ki (nM)>


>  <Assay (Ki)>


>  <IC50 (nM)>


>  <Assay (IC50)>


>  <EC50 (nM)>


>  <Assay (EC50)>


>  <Article DOI>
10.1126/science.aan4368

>  <Molecular Weight>
519.574

>  <Exact Mass>
519.1010515

>  <XLogP3>
4.78

>  <Heavy Atom Count>
35

>  <Ring Count>
4

>  <Hydrogen Bond Acceptor Count>
7

>  <Hydrogen Bond Donor Count>
2

>  <Rotatable Bond Count>
5

>  <Topological Polar Surface Area>
110.86

>  <Molecular Formula>
C23H20F3N5O2S2

>  <InChI>
InChI=1S/C23H20F3N5O2S2/c1-23(2,3)21-30-18(19(34-21)16-10-11-28-22(27)29-16)12-6-4-9-15(17(12)26)31-35(32,33)20-13(24)7-5-8-14(20)25/h4-11,31H,1-3H3,(H2,27,28,29)

>  <InChI Key>
BFSMGDJOXZAERB-UHFFFAOYSA-N

>  <BindingDB>
50428286

>  <PubChem>
44462760

>  <ChEMBL>
CHEMBL2028663

$$$$
205
Actelion Java MolfileCreator 2.0

  0  0  0  0  0  0              0 V3000
M  V30 BEGIN CTAB
M  V30 COUNTS 35 38 0 0 0
M  V30 BEGIN ATOM
M  V30 1 S 2.598 -0.75 0.0 0
M  V30 2 O 1.848 -2.049 0.0 0
M  V30 3 O 3.348 -2.049 0.0 0
M  V30 4 N 1.299 0.0 0.0 0
M  V30 5 C 3.8971 0.0 0.0 0
M  V30 6 C 0.0 -0.75 0.0 0
M  V30 7 C 5.1961 -0.75 0.0 0
M  V30 8 C 3.8971 1.5 0.0 0
M  V30 9 C -1.299 0.0 0.0 0
M  V30 10 C 0.0 -2.25 0.0 0
M  V30 11 F 5.1961 -2.25 0.0 0
M  V30 12 C 6.4951 0.0 0.0 0
M  V30 13 F 2.598 2.25 0.0 0
M  V30 14 C 5.1961 2.25 0.0 0
M  V30 15 F -1.299 1.5 0.0 0
M  V30 16 C -2.598 -0.75 0.0 0
M  V30 17 C -1.299 -3.0 0.0 0
M  V30 18 C 6.4951 1.5 0.0 0
M  V30 19 C -3.8971 0.0 0.0 0
M  V30 20 C -2.598 -2.25 0.0 0
M  V30 21 N -4.0539 1.4917 0.0 0
M  V30 22 C -5.2674 -0.6101 0.0 0
M  V30 23 C -5.5211 1.8036 0.0 0
M  V30 24 S -6.2711 0.5046 0.0 0
M  V30 25 C -5.5793 -2.0773 0.0 0
M  V30 26 C -6.1312 3.1739 0.0 0
M  V30 27 N -7.0058 -2.5408 0.0 0
M  V30 28 C -4.4645 -3.081 0.0 0
M  V30 29 C -7.5015 2.5638 0.0 0
M  V30 30 C -6.7413 4.5442 0.0 0
M  V30 31 C -4.7609 3.784 0.0 0
M  V30 32 C -7.3177 -4.008 0.0 0
M  V30 33 C -4.7764 -4.5482 0.0 0
M  V30 34 N -6.203 -5.0117 0.0 0
M  V30 35 N -8.7443 -4.4716 0.0 0
M  V30 END ATOM
M  V30 BEGIN BOND
M  V30 1 2 1 2
M  V30 2 2 1 3
M  V30 3 1 1 4
M  V30 4 1 1 5
M  V30 5 1 4 6
M  V30 6 2 5 7
M  V30 7 1 5 8
M  V30 8 2 6 9
M  V30 9 1 6 10
M  V30 10 1 7 11
M  V30 11 1 7 12
M  V30 12 1 8 13
M  V30 13 2 8 14
M  V30 14 1 9 15
M  V30 15 1 9 16
M  V30 16 2 10 17
M  V30 17 2 12 18
M  V30 18 1 16 19
M  V30 19 2 16 20
M  V30 20 1 19 21
M  V30 21 2 19 22
M  V30 22 2 21 23
M  V30 23 1 22 24
M  V30 24 1 22 25
M  V30 25 1 23 26
M  V30 26 2 25 27
M  V30 27 1 25 28
M  V30 28 1 26 29
M  V30 29 1 26 30
M  V30 30 1 26 31
M  V30 31 1 27 32
M  V30 32 2 28 33
M  V30 33 2 32 34
M  V30 34 1 32 35
M  V30 35 1 14 18
M  V30 36 1 17 20
M  V30 37 1 23 24
M  V30 38 1 33 34
M  V30 END BOND
M  V30 END CTAB
M  END
>  <Molecule Name>
Compound 609

>  <Molecule Name 2>
Compound 609

>  <Compound ID>
205

>  <Name>
Dabrafenib

>  <Uniprot>
P24941

>  <Target>
CDK2

>  <Smiles>
CC(C)(C)C1=NC(C2=CC=CC(NS(=O)(=O)C3=C(F)C=CC=C3F)=C2F)=C(C2=CC=NC(N)=N2)S1

>  <Kd (nM)>


>  <Assay (Kd)>


>  <Ki (nM)>


>  <Assay (Ki)>


>  <IC50 (nM)>


>  <Assay (IC50)>


>  <EC50 (nM)>


>  <Assay (EC50)>


>  <Article DOI>
10.1016/j.cell.2020.10.038

>  <Molecular Weight>
519.574

>  <Exact Mass>
519.1010515

>  <XLogP3>
4.78

>  <Heavy Atom Count>
35

>  <Ring Count>
4

>  <Hydrogen Bond Acceptor Count>
7

>  <Hydrogen Bond Donor Count>
2

>  <Rotatable Bond Count>
5

>  <Topological Polar Surface Area>
110.86

>  <Molecular Formula>
C23H20F3N5O2S2

>  <InChI>
InChI=1S/C23H20F3N5O2S2/c1-23(2,3)21-30-18(19(34-21)16-10-11-28-22(27)29-16)12-6-4-9-15(17(12)26)31-35(32,33)20-13(24)7-5-8-14(20)25/h4-11,31H,1-3H3,(H2,27,28,29)

>  <InChI Key>
BFSMGDJOXZAERB-UHFFFAOYSA-N

>  <BindingDB>
50428286

>  <PubChem>
44462760

>  <ChEMBL>
CHEMBL2028663

$$$$
205
Actelion Java MolfileCreator 2.0

  0  0  0  0  0  0              0 V3000
M  V30 BEGIN CTAB
M  V30 COUNTS 35 38 0 0 0
M  V30 BEGIN ATOM
M  V30 1 S 2.598 -0.75 0.0 0
M  V30 2 O 1.848 -2.049 0.0 0
M  V30 3 O 3.348 -2.049 0.0 0
M  V30 4 N 1.299 0.0 0.0 0
M  V30 5 C 3.8971 0.0 0.0 0
M  V30 6 C 0.0 -0.75 0.0 0
M  V30 7 C 5.1961 -0.75 0.0 0
M  V30 8 C 3.8971 1.5 0.0 0
M  V30 9 C -1.299 0.0 0.0 0
M  V30 10 C 0.0 -2.25 0.0 0
M  V30 11 F 5.1961 -2.25 0.0 0
M  V30 12 C 6.4951 0.0 0.0 0
M  V30 13 F 2.598 2.25 0.0 0
M  V30 14 C 5.1961 2.25 0.0 0
M  V30 15 F -1.299 1.5 0.0 0
M  V30 16 C -2.598 -0.75 0.0 0
M  V30 17 C -1.299 -3.0 0.0 0
M  V30 18 C 6.4951 1.5 0.0 0
M  V30 19 C -3.8971 0.0 0.0 0
M  V30 20 C -2.598 -2.25 0.0 0
M  V30 21 N -4.0539 1.4917 0.0 0
M  V30 22 C -5.2674 -0.6101 0.0 0
M  V30 23 C -5.5211 1.8036 0.0 0
M  V30 24 S -6.2711 0.5046 0.0 0
M  V30 25 C -5.5793 -2.0773 0.0 0
M  V30 26 C -6.1312 3.1739 0.0 0
M  V30 27 N -7.0058 -2.5408 0.0 0
M  V30 28 C -4.4645 -3.081 0.0 0
M  V30 29 C -7.5015 2.5638 0.0 0
M  V30 30 C -6.7413 4.5442 0.0 0
M  V30 31 C -4.7609 3.784 0.0 0
M  V30 32 C -7.3177 -4.008 0.0 0
M  V30 33 C -4.7764 -4.5482 0.0 0
M  V30 34 N -6.203 -5.0117 0.0 0
M  V30 35 N -8.7443 -4.4716 0.0 0
M  V30 END ATOM
M  V30 BEGIN BOND
M  V30 1 2 1 2
M  V30 2 2 1 3
M  V30 3 1 1 4
M  V30 4 1 1 5
M  V30 5 1 4 6
M  V30 6 2 5 7
M  V30 7 1 5 8
M  V30 8 2 6 9
M  V30 9 1 6 10
M  V30 10 1 7 11
M  V30 11 1 7 12
M  V30 12 1 8 13
M  V30 13 2 8 14
M  V30 14 1 9 15
M  V30 15 1 9 16
M  V30 16 2 10 17
M  V30 17 2 12 18
M  V30 18 1 16 19
M  V30 19 2 16 20
M  V30 20 1 19 21
M  V30 21 2 19 22
M  V30 22 2 21 23
M  V30 23 1 22 24
M  V30 24 1 22 25
M  V30 25 1 23 26
M  V30 26 2 25 27
M  V30 27 1 25 28
M  V30 28 1 26 29
M  V30 29 1 26 30
M  V30 30 1 26 31
M  V30 31 1 27 32
M  V30 32 2 28 33
M  V30 33 2 32 34
M  V30 34 1 32 35
M  V30 35 1 14 18
M  V30 36 1 17 20
M  V30 37 1 23 24
M  V30 38 1 33 34
M  V30 END BOND
M  V30 END CTAB
M  END
>  <Molecule Name>
Compound 610

>  <Molecule Name 2>
Compound 610

>  <Compound ID>
205

>  <Name>
Dabrafenib

>  <Uniprot>
P11802

>  <Target>
CDK4

>  <Smiles>
CC(C)(C)C1=NC(C2=CC=CC(NS(=O)(=O)C3=C(F)C=CC=C3F)=C2F)=C(C2=CC=NC(N)=N2)S1

>  <Kd (nM)>


>  <Assay (Kd)>


>  <Ki (nM)>


>  <Assay (Ki)>


>  <IC50 (nM)>


>  <Assay (IC50)>


>  <EC50 (nM)>


>  <Assay (EC50)>


>  <Article DOI>
10.1016/j.cell.2020.10.038

>  <Molecular Weight>
519.574

>  <Exact Mass>
519.1010515

>  <XLogP3>
4.78

>  <Heavy Atom Count>
35

>  <Ring Count>
4

>  <Hydrogen Bond Acceptor Count>
7

>  <Hydrogen Bond Donor Count>
2

>  <Rotatable Bond Count>
5

>  <Topological Polar Surface Area>
110.86

>  <Molecular Formula>
C23H20F3N5O2S2

>  <InChI>
InChI=1S/C23H20F3N5O2S2/c1-23(2,3)21-30-18(19(34-21)16-10-11-28-22(27)29-16)12-6-4-9-15(17(12)26)31-35(32,33)20-13(24)7-5-8-14(20)25/h4-11,31H,1-3H3,(H2,27,28,29)

>  <InChI Key>
BFSMGDJOXZAERB-UHFFFAOYSA-N

>  <BindingDB>
50428286

>  <PubChem>
44462760

>  <ChEMBL>
CHEMBL2028663

$$$$
205
Actelion Java MolfileCreator 2.0

  0  0  0  0  0  0              0 V3000
M  V30 BEGIN CTAB
M  V30 COUNTS 35 38 0 0 0
M  V30 BEGIN ATOM
M  V30 1 S 2.598 -0.75 0.0 0
M  V30 2 O 1.848 -2.049 0.0 0
M  V30 3 O 3.348 -2.049 0.0 0
M  V30 4 N 1.299 0.0 0.0 0
M  V30 5 C 3.8971 0.0 0.0 0
M  V30 6 C 0.0 -0.75 0.0 0
M  V30 7 C 5.1961 -0.75 0.0 0
M  V30 8 C 3.8971 1.5 0.0 0
M  V30 9 C -1.299 0.0 0.0 0
M  V30 10 C 0.0 -2.25 0.0 0
M  V30 11 F 5.1961 -2.25 0.0 0
M  V30 12 C 6.4951 0.0 0.0 0
M  V30 13 F 2.598 2.25 0.0 0
M  V30 14 C 5.1961 2.25 0.0 0
M  V30 15 F -1.299 1.5 0.0 0
M  V30 16 C -2.598 -0.75 0.0 0
M  V30 17 C -1.299 -3.0 0.0 0
M  V30 18 C 6.4951 1.5 0.0 0
M  V30 19 C -3.8971 0.0 0.0 0
M  V30 20 C -2.598 -2.25 0.0 0
M  V30 21 N -4.0539 1.4917 0.0 0
M  V30 22 C -5.2674 -0.6101 0.0 0
M  V30 23 C -5.5211 1.8036 0.0 0
M  V30 24 S -6.2711 0.5046 0.0 0
M  V30 25 C -5.5793 -2.0773 0.0 0
M  V30 26 C -6.1312 3.1739 0.0 0
M  V30 27 N -7.0058 -2.5408 0.0 0
M  V30 28 C -4.4645 -3.081 0.0 0
M  V30 29 C -7.5015 2.5638 0.0 0
M  V30 30 C -6.7413 4.5442 0.0 0
M  V30 31 C -4.7609 3.784 0.0 0
M  V30 32 C -7.3177 -4.008 0.0 0
M  V30 33 C -4.7764 -4.5482 0.0 0
M  V30 34 N -6.203 -5.0117 0.0 0
M  V30 35 N -8.7443 -4.4716 0.0 0
M  V30 END ATOM
M  V30 BEGIN BOND
M  V30 1 2 1 2
M  V30 2 2 1 3
M  V30 3 1 1 4
M  V30 4 1 1 5
M  V30 5 1 4 6
M  V30 6 2 5 7
M  V30 7 1 5 8
M  V30 8 2 6 9
M  V30 9 1 6 10
M  V30 10 1 7 11
M  V30 11 1 7 12
M  V30 12 1 8 13
M  V30 13 2 8 14
M  V30 14 1 9 15
M  V30 15 1 9 16
M  V30 16 2 10 17
M  V30 17 2 12 18
M  V30 18 1 16 19
M  V30 19 2 16 20
M  V30 20 1 19 21
M  V30 21 2 19 22
M  V30 22 2 21 23
M  V30 23 1 22 24
M  V30 24 1 22 25
M  V30 25 1 23 26
M  V30 26 2 25 27
M  V30 27 1 25 28
M  V30 28 1 26 29
M  V30 29 1 26 30
M  V30 30 1 26 31
M  V30 31 1 27 32
M  V30 32 2 28 33
M  V30 33 2 32 34
M  V30 34 1 32 35
M  V30 35 1 14 18
M  V30 36 1 17 20
M  V30 37 1 23 24
M  V30 38 1 33 34
M  V30 END BOND
M  V30 END CTAB
M  END
>  <Molecule Name>
Compound 611

>  <Molecule Name 2>
Compound 611

>  <Compound ID>
205

>  <Name>
Dabrafenib

>  <Uniprot>
Q00534

>  <Target>
CDK6

>  <Smiles>
CC(C)(C)C1=NC(C2=CC=CC(NS(=O)(=O)C3=C(F)C=CC=C3F)=C2F)=C(C2=CC=NC(N)=N2)S1

>  <Kd (nM)>


>  <Assay (Kd)>


>  <Ki (nM)>


>  <Assay (Ki)>


>  <IC50 (nM)>


>  <Assay (IC50)>


>  <EC50 (nM)>


>  <Assay (EC50)>


>  <Article DOI>
10.1016/j.cell.2020.10.038

>  <Molecular Weight>
519.574

>  <Exact Mass>
519.1010515

>  <XLogP3>
4.78

>  <Heavy Atom Count>
35

>  <Ring Count>
4

>  <Hydrogen Bond Acceptor Count>
7

>  <Hydrogen Bond Donor Count>
2

>  <Rotatable Bond Count>
5

>  <Topological Polar Surface Area>
110.86

>  <Molecular Formula>
C23H20F3N5O2S2

>  <InChI>
InChI=1S/C23H20F3N5O2S2/c1-23(2,3)21-30-18(19(34-21)16-10-11-28-22(27)29-16)12-6-4-9-15(17(12)26)31-35(32,33)20-13(24)7-5-8-14(20)25/h4-11,31H,1-3H3,(H2,27,28,29)

>  <InChI Key>
BFSMGDJOXZAERB-UHFFFAOYSA-N

>  <BindingDB>
50428286

>  <PubChem>
44462760

>  <ChEMBL>
CHEMBL2028663

$$$$
205
Actelion Java MolfileCreator 2.0

  0  0  0  0  0  0              0 V3000
M  V30 BEGIN CTAB
M  V30 COUNTS 35 38 0 0 0
M  V30 BEGIN ATOM
M  V30 1 S 2.598 -0.75 0.0 0
M  V30 2 O 1.848 -2.049 0.0 0
M  V30 3 O 3.348 -2.049 0.0 0
M  V30 4 N 1.299 0.0 0.0 0
M  V30 5 C 3.8971 0.0 0.0 0
M  V30 6 C 0.0 -0.75 0.0 0
M  V30 7 C 5.1961 -0.75 0.0 0
M  V30 8 C 3.8971 1.5 0.0 0
M  V30 9 C -1.299 0.0 0.0 0
M  V30 10 C 0.0 -2.25 0.0 0
M  V30 11 F 5.1961 -2.25 0.0 0
M  V30 12 C 6.4951 0.0 0.0 0
M  V30 13 F 2.598 2.25 0.0 0
M  V30 14 C 5.1961 2.25 0.0 0
M  V30 15 F -1.299 1.5 0.0 0
M  V30 16 C -2.598 -0.75 0.0 0
M  V30 17 C -1.299 -3.0 0.0 0
M  V30 18 C 6.4951 1.5 0.0 0
M  V30 19 C -3.8971 0.0 0.0 0
M  V30 20 C -2.598 -2.25 0.0 0
M  V30 21 N -4.0539 1.4917 0.0 0
M  V30 22 C -5.2674 -0.6101 0.0 0
M  V30 23 C -5.5211 1.8036 0.0 0
M  V30 24 S -6.2711 0.5046 0.0 0
M  V30 25 C -5.5793 -2.0773 0.0 0
M  V30 26 C -6.1312 3.1739 0.0 0
M  V30 27 N -7.0058 -2.5408 0.0 0
M  V30 28 C -4.4645 -3.081 0.0 0
M  V30 29 C -7.5015 2.5638 0.0 0
M  V30 30 C -6.7413 4.5442 0.0 0
M  V30 31 C -4.7609 3.784 0.0 0
M  V30 32 C -7.3177 -4.008 0.0 0
M  V30 33 C -4.7764 -4.5482 0.0 0
M  V30 34 N -6.203 -5.0117 0.0 0
M  V30 35 N -8.7443 -4.4716 0.0 0
M  V30 END ATOM
M  V30 BEGIN BOND
M  V30 1 2 1 2
M  V30 2 2 1 3
M  V30 3 1 1 4
M  V30 4 1 1 5
M  V30 5 1 4 6
M  V30 6 2 5 7
M  V30 7 1 5 8
M  V30 8 2 6 9
M  V30 9 1 6 10
M  V30 10 1 7 11
M  V30 11 1 7 12
M  V30 12 1 8 13
M  V30 13 2 8 14
M  V30 14 1 9 15
M  V30 15 1 9 16
M  V30 16 2 10 17
M  V30 17 2 12 18
M  V30 18 1 16 19
M  V30 19 2 16 20
M  V30 20 1 19 21
M  V30 21 2 19 22
M  V30 22 2 21 23
M  V30 23 1 22 24
M  V30 24 1 22 25
M  V30 25 1 23 26
M  V30 26 2 25 27
M  V30 27 1 25 28
M  V30 28 1 26 29
M  V30 29 1 26 30
M  V30 30 1 26 31
M  V30 31 1 27 32
M  V30 32 2 28 33
M  V30 33 2 32 34
M  V30 34 1 32 35
M  V30 35 1 14 18
M  V30 36 1 17 20
M  V30 37 1 23 24
M  V30 38 1 33 34
M  V30 END BOND
M  V30 END CTAB
M  END
>  <Molecule Name>
Compound 612

>  <Molecule Name 2>
Compound 612

>  <Compound ID>
205

>  <Name>
Dabrafenib

>  <Uniprot>
Q8NI60

>  <Target>
COQ8A

>  <Smiles>
CC(C)(C)C1=NC(C2=CC=CC(NS(=O)(=O)C3=C(F)C=CC=C3F)=C2F)=C(C2=CC=NC(N)=N2)S1

>  <Kd (nM)>


>  <Assay (Kd)>


>  <Ki (nM)>


>  <Assay (Ki)>


>  <IC50 (nM)>


>  <Assay (IC50)>


>  <EC50 (nM)>


>  <Assay (EC50)>


>  <Article DOI>
10.1016/j.cell.2020.10.038

>  <Molecular Weight>
519.574

>  <Exact Mass>
519.1010515

>  <XLogP3>
4.78

>  <Heavy Atom Count>
35

>  <Ring Count>
4

>  <Hydrogen Bond Acceptor Count>
7

>  <Hydrogen Bond Donor Count>
2

>  <Rotatable Bond Count>
5

>  <Topological Polar Surface Area>
110.86

>  <Molecular Formula>
C23H20F3N5O2S2

>  <InChI>
InChI=1S/C23H20F3N5O2S2/c1-23(2,3)21-30-18(19(34-21)16-10-11-28-22(27)29-16)12-6-4-9-15(17(12)26)31-35(32,33)20-13(24)7-5-8-14(20)25/h4-11,31H,1-3H3,(H2,27,28,29)

>  <InChI Key>
BFSMGDJOXZAERB-UHFFFAOYSA-N

>  <BindingDB>
50428286

>  <PubChem>
44462760

>  <ChEMBL>
CHEMBL2028663

$$$$
205
Actelion Java MolfileCreator 2.0

  0  0  0  0  0  0              0 V3000
M  V30 BEGIN CTAB
M  V30 COUNTS 35 38 0 0 0
M  V30 BEGIN ATOM
M  V30 1 S 2.598 -0.75 0.0 0
M  V30 2 O 1.848 -2.049 0.0 0
M  V30 3 O 3.348 -2.049 0.0 0
M  V30 4 N 1.299 0.0 0.0 0
M  V30 5 C 3.8971 0.0 0.0 0
M  V30 6 C 0.0 -0.75 0.0 0
M  V30 7 C 5.1961 -0.75 0.0 0
M  V30 8 C 3.8971 1.5 0.0 0
M  V30 9 C -1.299 0.0 0.0 0
M  V30 10 C 0.0 -2.25 0.0 0
M  V30 11 F 5.1961 -2.25 0.0 0
M  V30 12 C 6.4951 0.0 0.0 0
M  V30 13 F 2.598 2.25 0.0 0
M  V30 14 C 5.1961 2.25 0.0 0
M  V30 15 F -1.299 1.5 0.0 0
M  V30 16 C -2.598 -0.75 0.0 0
M  V30 17 C -1.299 -3.0 0.0 0
M  V30 18 C 6.4951 1.5 0.0 0
M  V30 19 C -3.8971 0.0 0.0 0
M  V30 20 C -2.598 -2.25 0.0 0
M  V30 21 N -4.0539 1.4917 0.0 0
M  V30 22 C -5.2674 -0.6101 0.0 0
M  V30 23 C -5.5211 1.8036 0.0 0
M  V30 24 S -6.2711 0.5046 0.0 0
M  V30 25 C -5.5793 -2.0773 0.0 0
M  V30 26 C -6.1312 3.1739 0.0 0
M  V30 27 N -7.0058 -2.5408 0.0 0
M  V30 28 C -4.4645 -3.081 0.0 0
M  V30 29 C -7.5015 2.5638 0.0 0
M  V30 30 C -6.7413 4.5442 0.0 0
M  V30 31 C -4.7609 3.784 0.0 0
M  V30 32 C -7.3177 -4.008 0.0 0
M  V30 33 C -4.7764 -4.5482 0.0 0
M  V30 34 N -6.203 -5.0117 0.0 0
M  V30 35 N -8.7443 -4.4716 0.0 0
M  V30 END ATOM
M  V30 BEGIN BOND
M  V30 1 2 1 2
M  V30 2 2 1 3
M  V30 3 1 1 4
M  V30 4 1 1 5
M  V30 5 1 4 6
M  V30 6 2 5 7
M  V30 7 1 5 8
M  V30 8 2 6 9
M  V30 9 1 6 10
M  V30 10 1 7 11
M  V30 11 1 7 12
M  V30 12 1 8 13
M  V30 13 2 8 14
M  V30 14 1 9 15
M  V30 15 1 9 16
M  V30 16 2 10 17
M  V30 17 2 12 18
M  V30 18 1 16 19
M  V30 19 2 16 20
M  V30 20 1 19 21
M  V30 21 2 19 22
M  V30 22 2 21 23
M  V30 23 1 22 24
M  V30 24 1 22 25
M  V30 25 1 23 26
M  V30 26 2 25 27
M  V30 27 1 25 28
M  V30 28 1 26 29
M  V30 29 1 26 30
M  V30 30 1 26 31
M  V30 31 1 27 32
M  V30 32 2 28 33
M  V30 33 2 32 34
M  V30 34 1 32 35
M  V30 35 1 14 18
M  V30 36 1 17 20
M  V30 37 1 23 24
M  V30 38 1 33 34
M  V30 END BOND
M  V30 END CTAB
M  END
>  <Molecule Name>
Compound 613

>  <Molecule Name 2>
Compound 613

>  <Compound ID>
205

>  <Name>
Dabrafenib

>  <Uniprot>
Q96D53

>  <Target>
COQ8B

>  <Smiles>
CC(C)(C)C1=NC(C2=CC=CC(NS(=O)(=O)C3=C(F)C=CC=C3F)=C2F)=C(C2=CC=NC(N)=N2)S1

>  <Kd (nM)>


>  <Assay (Kd)>


>  <Ki (nM)>


>  <Assay (Ki)>


>  <IC50 (nM)>


>  <Assay (IC50)>


>  <EC50 (nM)>


>  <Assay (EC50)>


>  <Article DOI>
10.1016/j.cell.2020.10.038

>  <Molecular Weight>
519.574

>  <Exact Mass>
519.1010515

>  <XLogP3>
4.78

>  <Heavy Atom Count>
35

>  <Ring Count>
4

>  <Hydrogen Bond Acceptor Count>
7

>  <Hydrogen Bond Donor Count>
2

>  <Rotatable Bond Count>
5

>  <Topological Polar Surface Area>
110.86

>  <Molecular Formula>
C23H20F3N5O2S2

>  <InChI>
InChI=1S/C23H20F3N5O2S2/c1-23(2,3)21-30-18(19(34-21)16-10-11-28-22(27)29-16)12-6-4-9-15(17(12)26)31-35(32,33)20-13(24)7-5-8-14(20)25/h4-11,31H,1-3H3,(H2,27,28,29)

>  <InChI Key>
BFSMGDJOXZAERB-UHFFFAOYSA-N

>  <BindingDB>
50428286

>  <PubChem>
44462760

>  <ChEMBL>
CHEMBL2028663

$$$$
205
Actelion Java MolfileCreator 2.0

  0  0  0  0  0  0              0 V3000
M  V30 BEGIN CTAB
M  V30 COUNTS 35 38 0 0 0
M  V30 BEGIN ATOM
M  V30 1 S 2.598 -0.75 0.0 0
M  V30 2 O 1.848 -2.049 0.0 0
M  V30 3 O 3.348 -2.049 0.0 0
M  V30 4 N 1.299 0.0 0.0 0
M  V30 5 C 3.8971 0.0 0.0 0
M  V30 6 C 0.0 -0.75 0.0 0
M  V30 7 C 5.1961 -0.75 0.0 0
M  V30 8 C 3.8971 1.5 0.0 0
M  V30 9 C -1.299 0.0 0.0 0
M  V30 10 C 0.0 -2.25 0.0 0
M  V30 11 F 5.1961 -2.25 0.0 0
M  V30 12 C 6.4951 0.0 0.0 0
M  V30 13 F 2.598 2.25 0.0 0
M  V30 14 C 5.1961 2.25 0.0 0
M  V30 15 F -1.299 1.5 0.0 0
M  V30 16 C -2.598 -0.75 0.0 0
M  V30 17 C -1.299 -3.0 0.0 0
M  V30 18 C 6.4951 1.5 0.0 0
M  V30 19 C -3.8971 0.0 0.0 0
M  V30 20 C -2.598 -2.25 0.0 0
M  V30 21 N -4.0539 1.4917 0.0 0
M  V30 22 C -5.2674 -0.6101 0.0 0
M  V30 23 C -5.5211 1.8036 0.0 0
M  V30 24 S -6.2711 0.5046 0.0 0
M  V30 25 C -5.5793 -2.0773 0.0 0
M  V30 26 C -6.1312 3.1739 0.0 0
M  V30 27 N -7.0058 -2.5408 0.0 0
M  V30 28 C -4.4645 -3.081 0.0 0
M  V30 29 C -7.5015 2.5638 0.0 0
M  V30 30 C -6.7413 4.5442 0.0 0
M  V30 31 C -4.7609 3.784 0.0 0
M  V30 32 C -7.3177 -4.008 0.0 0
M  V30 33 C -4.7764 -4.5482 0.0 0
M  V30 34 N -6.203 -5.0117 0.0 0
M  V30 35 N -8.7443 -4.4716 0.0 0
M  V30 END ATOM
M  V30 BEGIN BOND
M  V30 1 2 1 2
M  V30 2 2 1 3
M  V30 3 1 1 4
M  V30 4 1 1 5
M  V30 5 1 4 6
M  V30 6 2 5 7
M  V30 7 1 5 8
M  V30 8 2 6 9
M  V30 9 1 6 10
M  V30 10 1 7 11
M  V30 11 1 7 12
M  V30 12 1 8 13
M  V30 13 2 8 14
M  V30 14 1 9 15
M  V30 15 1 9 16
M  V30 16 2 10 17
M  V30 17 2 12 18
M  V30 18 1 16 19
M  V30 19 2 16 20
M  V30 20 1 19 21
M  V30 21 2 19 22
M  V30 22 2 21 23
M  V30 23 1 22 24
M  V30 24 1 22 25
M  V30 25 1 23 26
M  V30 26 2 25 27
M  V30 27 1 25 28
M  V30 28 1 26 29
M  V30 29 1 26 30
M  V30 30 1 26 31
M  V30 31 1 27 32
M  V30 32 2 28 33
M  V30 33 2 32 34
M  V30 34 1 32 35
M  V30 35 1 14 18
M  V30 36 1 17 20
M  V30 37 1 23 24
M  V30 38 1 33 34
M  V30 END BOND
M  V30 END CTAB
M  END
>  <Molecule Name>
Compound 614

>  <Molecule Name 2>
Compound 614

>  <Compound ID>
205

>  <Name>
Dabrafenib

>  <Uniprot>
P41240

>  <Target>
CSK

>  <Smiles>
CC(C)(C)C1=NC(C2=CC=CC(NS(=O)(=O)C3=C(F)C=CC=C3F)=C2F)=C(C2=CC=NC(N)=N2)S1

>  <Kd (nM)>
851

>  <Assay (Kd)>
Kd apparent of CSK

>  <Ki (nM)>


>  <Assay (Ki)>


>  <IC50 (nM)>


>  <Assay (IC50)>


>  <EC50 (nM)>


>  <Assay (EC50)>


>  <Article DOI>
10.1126/science.aan4368

>  <Molecular Weight>
519.574

>  <Exact Mass>
519.1010515

>  <XLogP3>
4.78

>  <Heavy Atom Count>
35

>  <Ring Count>
4

>  <Hydrogen Bond Acceptor Count>
7

>  <Hydrogen Bond Donor Count>
2

>  <Rotatable Bond Count>
5

>  <Topological Polar Surface Area>
110.86

>  <Molecular Formula>
C23H20F3N5O2S2

>  <InChI>
InChI=1S/C23H20F3N5O2S2/c1-23(2,3)21-30-18(19(34-21)16-10-11-28-22(27)29-16)12-6-4-9-15(17(12)26)31-35(32,33)20-13(24)7-5-8-14(20)25/h4-11,31H,1-3H3,(H2,27,28,29)

>  <InChI Key>
BFSMGDJOXZAERB-UHFFFAOYSA-N

>  <BindingDB>
50428286

>  <PubChem>
44462760

>  <ChEMBL>
CHEMBL2028663

$$$$
205
Actelion Java MolfileCreator 2.0

  0  0  0  0  0  0              0 V3000
M  V30 BEGIN CTAB
M  V30 COUNTS 35 38 0 0 0
M  V30 BEGIN ATOM
M  V30 1 S 2.598 -0.75 0.0 0
M  V30 2 O 1.848 -2.049 0.0 0
M  V30 3 O 3.348 -2.049 0.0 0
M  V30 4 N 1.299 0.0 0.0 0
M  V30 5 C 3.8971 0.0 0.0 0
M  V30 6 C 0.0 -0.75 0.0 0
M  V30 7 C 5.1961 -0.75 0.0 0
M  V30 8 C 3.8971 1.5 0.0 0
M  V30 9 C -1.299 0.0 0.0 0
M  V30 10 C 0.0 -2.25 0.0 0
M  V30 11 F 5.1961 -2.25 0.0 0
M  V30 12 C 6.4951 0.0 0.0 0
M  V30 13 F 2.598 2.25 0.0 0
M  V30 14 C 5.1961 2.25 0.0 0
M  V30 15 F -1.299 1.5 0.0 0
M  V30 16 C -2.598 -0.75 0.0 0
M  V30 17 C -1.299 -3.0 0.0 0
M  V30 18 C 6.4951 1.5 0.0 0
M  V30 19 C -3.8971 0.0 0.0 0
M  V30 20 C -2.598 -2.25 0.0 0
M  V30 21 N -4.0539 1.4917 0.0 0
M  V30 22 C -5.2674 -0.6101 0.0 0
M  V30 23 C -5.5211 1.8036 0.0 0
M  V30 24 S -6.2711 0.5046 0.0 0
M  V30 25 C -5.5793 -2.0773 0.0 0
M  V30 26 C -6.1312 3.1739 0.0 0
M  V30 27 N -7.0058 -2.5408 0.0 0
M  V30 28 C -4.4645 -3.081 0.0 0
M  V30 29 C -7.5015 2.5638 0.0 0
M  V30 30 C -6.7413 4.5442 0.0 0
M  V30 31 C -4.7609 3.784 0.0 0
M  V30 32 C -7.3177 -4.008 0.0 0
M  V30 33 C -4.7764 -4.5482 0.0 0
M  V30 34 N -6.203 -5.0117 0.0 0
M  V30 35 N -8.7443 -4.4716 0.0 0
M  V30 END ATOM
M  V30 BEGIN BOND
M  V30 1 2 1 2
M  V30 2 2 1 3
M  V30 3 1 1 4
M  V30 4 1 1 5
M  V30 5 1 4 6
M  V30 6 2 5 7
M  V30 7 1 5 8
M  V30 8 2 6 9
M  V30 9 1 6 10
M  V30 10 1 7 11
M  V30 11 1 7 12
M  V30 12 1 8 13
M  V30 13 2 8 14
M  V30 14 1 9 15
M  V30 15 1 9 16
M  V30 16 2 10 17
M  V30 17 2 12 18
M  V30 18 1 16 19
M  V30 19 2 16 20
M  V30 20 1 19 21
M  V30 21 2 19 22
M  V30 22 2 21 23
M  V30 23 1 22 24
M  V30 24 1 22 25
M  V30 25 1 23 26
M  V30 26 2 25 27
M  V30 27 1 25 28
M  V30 28 1 26 29
M  V30 29 1 26 30
M  V30 30 1 26 31
M  V30 31 1 27 32
M  V30 32 2 28 33
M  V30 33 2 32 34
M  V30 34 1 32 35
M  V30 35 1 14 18
M  V30 36 1 17 20
M  V30 37 1 23 24
M  V30 38 1 33 34
M  V30 END BOND
M  V30 END CTAB
M  END
>  <Molecule Name>
Compound 615

>  <Molecule Name 2>
Compound 615

>  <Compound ID>
205

>  <Name>
Dabrafenib

>  <Uniprot>
P19525

>  <Target>
EIF2AK2

>  <Smiles>
CC(C)(C)C1=NC(C2=CC=CC(NS(=O)(=O)C3=C(F)C=CC=C3F)=C2F)=C(C2=CC=NC(N)=N2)S1

>  <Kd (nM)>


>  <Assay (Kd)>


>  <Ki (nM)>


>  <Assay (Ki)>


>  <IC50 (nM)>


>  <Assay (IC50)>


>  <EC50 (nM)>


>  <Assay (EC50)>


>  <Article DOI>
10.1016/j.cell.2020.10.038

>  <Molecular Weight>
519.574

>  <Exact Mass>
519.1010515

>  <XLogP3>
4.78

>  <Heavy Atom Count>
35

>  <Ring Count>
4

>  <Hydrogen Bond Acceptor Count>
7

>  <Hydrogen Bond Donor Count>
2

>  <Rotatable Bond Count>
5

>  <Topological Polar Surface Area>
110.86

>  <Molecular Formula>
C23H20F3N5O2S2

>  <InChI>
InChI=1S/C23H20F3N5O2S2/c1-23(2,3)21-30-18(19(34-21)16-10-11-28-22(27)29-16)12-6-4-9-15(17(12)26)31-35(32,33)20-13(24)7-5-8-14(20)25/h4-11,31H,1-3H3,(H2,27,28,29)

>  <InChI Key>
BFSMGDJOXZAERB-UHFFFAOYSA-N

>  <BindingDB>
50428286

>  <PubChem>
44462760

>  <ChEMBL>
CHEMBL2028663

$$$$
205
Actelion Java MolfileCreator 2.0

  0  0  0  0  0  0              0 V3000
M  V30 BEGIN CTAB
M  V30 COUNTS 35 38 0 0 0
M  V30 BEGIN ATOM
M  V30 1 S 2.598 -0.75 0.0 0
M  V30 2 O 1.848 -2.049 0.0 0
M  V30 3 O 3.348 -2.049 0.0 0
M  V30 4 N 1.299 0.0 0.0 0
M  V30 5 C 3.8971 0.0 0.0 0
M  V30 6 C 0.0 -0.75 0.0 0
M  V30 7 C 5.1961 -0.75 0.0 0
M  V30 8 C 3.8971 1.5 0.0 0
M  V30 9 C -1.299 0.0 0.0 0
M  V30 10 C 0.0 -2.25 0.0 0
M  V30 11 F 5.1961 -2.25 0.0 0
M  V30 12 C 6.4951 0.0 0.0 0
M  V30 13 F 2.598 2.25 0.0 0
M  V30 14 C 5.1961 2.25 0.0 0
M  V30 15 F -1.299 1.5 0.0 0
M  V30 16 C -2.598 -0.75 0.0 0
M  V30 17 C -1.299 -3.0 0.0 0
M  V30 18 C 6.4951 1.5 0.0 0
M  V30 19 C -3.8971 0.0 0.0 0
M  V30 20 C -2.598 -2.25 0.0 0
M  V30 21 N -4.0539 1.4917 0.0 0
M  V30 22 C -5.2674 -0.6101 0.0 0
M  V30 23 C -5.5211 1.8036 0.0 0
M  V30 24 S -6.2711 0.5046 0.0 0
M  V30 25 C -5.5793 -2.0773 0.0 0
M  V30 26 C -6.1312 3.1739 0.0 0
M  V30 27 N -7.0058 -2.5408 0.0 0
M  V30 28 C -4.4645 -3.081 0.0 0
M  V30 29 C -7.5015 2.5638 0.0 0
M  V30 30 C -6.7413 4.5442 0.0 0
M  V30 31 C -4.7609 3.784 0.0 0
M  V30 32 C -7.3177 -4.008 0.0 0
M  V30 33 C -4.7764 -4.5482 0.0 0
M  V30 34 N -6.203 -5.0117 0.0 0
M  V30 35 N -8.7443 -4.4716 0.0 0
M  V30 END ATOM
M  V30 BEGIN BOND
M  V30 1 2 1 2
M  V30 2 2 1 3
M  V30 3 1 1 4
M  V30 4 1 1 5
M  V30 5 1 4 6
M  V30 6 2 5 7
M  V30 7 1 5 8
M  V30 8 2 6 9
M  V30 9 1 6 10
M  V30 10 1 7 11
M  V30 11 1 7 12
M  V30 12 1 8 13
M  V30 13 2 8 14
M  V30 14 1 9 15
M  V30 15 1 9 16
M  V30 16 2 10 17
M  V30 17 2 12 18
M  V30 18 1 16 19
M  V30 19 2 16 20
M  V30 20 1 19 21
M  V30 21 2 19 22
M  V30 22 2 21 23
M  V30 23 1 22 24
M  V30 24 1 22 25
M  V30 25 1 23 26
M  V30 26 2 25 27
M  V30 27 1 25 28
M  V30 28 1 26 29
M  V30 29 1 26 30
M  V30 30 1 26 31
M  V30 31 1 27 32
M  V30 32 2 28 33
M  V30 33 2 32 34
M  V30 34 1 32 35
M  V30 35 1 14 18
M  V30 36 1 17 20
M  V30 37 1 23 24
M  V30 38 1 33 34
M  V30 END BOND
M  V30 END CTAB
M  END
>  <Molecule Name>
Compound 616

>  <Molecule Name 2>
Compound 616

>  <Compound ID>
205

>  <Name>
Dabrafenib

>  <Uniprot>
P53667

>  <Target>
LIMK1

>  <Smiles>
CC(C)(C)C1=NC(C2=CC=CC(NS(=O)(=O)C3=C(F)C=CC=C3F)=C2F)=C(C2=CC=NC(N)=N2)S1

>  <Kd (nM)>


>  <Assay (Kd)>


>  <Ki (nM)>


>  <Assay (Ki)>


>  <IC50 (nM)>


>  <Assay (IC50)>


>  <EC50 (nM)>


>  <Assay (EC50)>


>  <Article DOI>
10.1016/j.cell.2020.10.038

>  <Molecular Weight>
519.574

>  <Exact Mass>
519.1010515

>  <XLogP3>
4.78

>  <Heavy Atom Count>
35

>  <Ring Count>
4

>  <Hydrogen Bond Acceptor Count>
7

>  <Hydrogen Bond Donor Count>
2

>  <Rotatable Bond Count>
5

>  <Topological Polar Surface Area>
110.86

>  <Molecular Formula>
C23H20F3N5O2S2

>  <InChI>
InChI=1S/C23H20F3N5O2S2/c1-23(2,3)21-30-18(19(34-21)16-10-11-28-22(27)29-16)12-6-4-9-15(17(12)26)31-35(32,33)20-13(24)7-5-8-14(20)25/h4-11,31H,1-3H3,(H2,27,28,29)

>  <InChI Key>
BFSMGDJOXZAERB-UHFFFAOYSA-N

>  <BindingDB>
50428286

>  <PubChem>
44462760

>  <ChEMBL>
CHEMBL2028663

$$$$
205
Actelion Java MolfileCreator 2.0

  0  0  0  0  0  0              0 V3000
M  V30 BEGIN CTAB
M  V30 COUNTS 35 38 0 0 0
M  V30 BEGIN ATOM
M  V30 1 S 2.598 -0.75 0.0 0
M  V30 2 O 1.848 -2.049 0.0 0
M  V30 3 O 3.348 -2.049 0.0 0
M  V30 4 N 1.299 0.0 0.0 0
M  V30 5 C 3.8971 0.0 0.0 0
M  V30 6 C 0.0 -0.75 0.0 0
M  V30 7 C 5.1961 -0.75 0.0 0
M  V30 8 C 3.8971 1.5 0.0 0
M  V30 9 C -1.299 0.0 0.0 0
M  V30 10 C 0.0 -2.25 0.0 0
M  V30 11 F 5.1961 -2.25 0.0 0
M  V30 12 C 6.4951 0.0 0.0 0
M  V30 13 F 2.598 2.25 0.0 0
M  V30 14 C 5.1961 2.25 0.0 0
M  V30 15 F -1.299 1.5 0.0 0
M  V30 16 C -2.598 -0.75 0.0 0
M  V30 17 C -1.299 -3.0 0.0 0
M  V30 18 C 6.4951 1.5 0.0 0
M  V30 19 C -3.8971 0.0 0.0 0
M  V30 20 C -2.598 -2.25 0.0 0
M  V30 21 N -4.0539 1.4917 0.0 0
M  V30 22 C -5.2674 -0.6101 0.0 0
M  V30 23 C -5.5211 1.8036 0.0 0
M  V30 24 S -6.2711 0.5046 0.0 0
M  V30 25 C -5.5793 -2.0773 0.0 0
M  V30 26 C -6.1312 3.1739 0.0 0
M  V30 27 N -7.0058 -2.5408 0.0 0
M  V30 28 C -4.4645 -3.081 0.0 0
M  V30 29 C -7.5015 2.5638 0.0 0
M  V30 30 C -6.7413 4.5442 0.0 0
M  V30 31 C -4.7609 3.784 0.0 0
M  V30 32 C -7.3177 -4.008 0.0 0
M  V30 33 C -4.7764 -4.5482 0.0 0
M  V30 34 N -6.203 -5.0117 0.0 0
M  V30 35 N -8.7443 -4.4716 0.0 0
M  V30 END ATOM
M  V30 BEGIN BOND
M  V30 1 2 1 2
M  V30 2 2 1 3
M  V30 3 1 1 4
M  V30 4 1 1 5
M  V30 5 1 4 6
M  V30 6 2 5 7
M  V30 7 1 5 8
M  V30 8 2 6 9
M  V30 9 1 6 10
M  V30 10 1 7 11
M  V30 11 1 7 12
M  V30 12 1 8 13
M  V30 13 2 8 14
M  V30 14 1 9 15
M  V30 15 1 9 16
M  V30 16 2 10 17
M  V30 17 2 12 18
M  V30 18 1 16 19
M  V30 19 2 16 20
M  V30 20 1 19 21
M  V30 21 2 19 22
M  V30 22 2 21 23
M  V30 23 1 22 24
M  V30 24 1 22 25
M  V30 25 1 23 26
M  V30 26 2 25 27
M  V30 27 1 25 28
M  V30 28 1 26 29
M  V30 29 1 26 30
M  V30 30 1 26 31
M  V30 31 1 27 32
M  V30 32 2 28 33
M  V30 33 2 32 34
M  V30 34 1 32 35
M  V30 35 1 14 18
M  V30 36 1 17 20
M  V30 37 1 23 24
M  V30 38 1 33 34
M  V30 END BOND
M  V30 END CTAB
M  END
>  <Molecule Name>
Compound 617

>  <Molecule Name 2>
Compound 617

>  <Compound ID>
205

>  <Name>
Dabrafenib

>  <Uniprot>
P53671

>  <Target>
LIMK2

>  <Smiles>
CC(C)(C)C1=NC(C2=CC=CC(NS(=O)(=O)C3=C(F)C=CC=C3F)=C2F)=C(C2=CC=NC(N)=N2)S1

>  <Kd (nM)>


>  <Assay (Kd)>


>  <Ki (nM)>


>  <Assay (Ki)>


>  <IC50 (nM)>


>  <Assay (IC50)>


>  <EC50 (nM)>


>  <Assay (EC50)>


>  <Article DOI>
10.1016/j.cell.2020.10.038

>  <Molecular Weight>
519.574

>  <Exact Mass>
519.1010515

>  <XLogP3>
4.78

>  <Heavy Atom Count>
35

>  <Ring Count>
4

>  <Hydrogen Bond Acceptor Count>
7

>  <Hydrogen Bond Donor Count>
2

>  <Rotatable Bond Count>
5

>  <Topological Polar Surface Area>
110.86

>  <Molecular Formula>
C23H20F3N5O2S2

>  <InChI>
InChI=1S/C23H20F3N5O2S2/c1-23(2,3)21-30-18(19(34-21)16-10-11-28-22(27)29-16)12-6-4-9-15(17(12)26)31-35(32,33)20-13(24)7-5-8-14(20)25/h4-11,31H,1-3H3,(H2,27,28,29)

>  <InChI Key>
BFSMGDJOXZAERB-UHFFFAOYSA-N

>  <BindingDB>
50428286

>  <PubChem>
44462760

>  <ChEMBL>
CHEMBL2028663

$$$$
205
Actelion Java MolfileCreator 2.0

  0  0  0  0  0  0              0 V3000
M  V30 BEGIN CTAB
M  V30 COUNTS 35 38 0 0 0
M  V30 BEGIN ATOM
M  V30 1 S 2.598 -0.75 0.0 0
M  V30 2 O 1.848 -2.049 0.0 0
M  V30 3 O 3.348 -2.049 0.0 0
M  V30 4 N 1.299 0.0 0.0 0
M  V30 5 C 3.8971 0.0 0.0 0
M  V30 6 C 0.0 -0.75 0.0 0
M  V30 7 C 5.1961 -0.75 0.0 0
M  V30 8 C 3.8971 1.5 0.0 0
M  V30 9 C -1.299 0.0 0.0 0
M  V30 10 C 0.0 -2.25 0.0 0
M  V30 11 F 5.1961 -2.25 0.0 0
M  V30 12 C 6.4951 0.0 0.0 0
M  V30 13 F 2.598 2.25 0.0 0
M  V30 14 C 5.1961 2.25 0.0 0
M  V30 15 F -1.299 1.5 0.0 0
M  V30 16 C -2.598 -0.75 0.0 0
M  V30 17 C -1.299 -3.0 0.0 0
M  V30 18 C 6.4951 1.5 0.0 0
M  V30 19 C -3.8971 0.0 0.0 0
M  V30 20 C -2.598 -2.25 0.0 0
M  V30 21 N -4.0539 1.4917 0.0 0
M  V30 22 C -5.2674 -0.6101 0.0 0
M  V30 23 C -5.5211 1.8036 0.0 0
M  V30 24 S -6.2711 0.5046 0.0 0
M  V30 25 C -5.5793 -2.0773 0.0 0
M  V30 26 C -6.1312 3.1739 0.0 0
M  V30 27 N -7.0058 -2.5408 0.0 0
M  V30 28 C -4.4645 -3.081 0.0 0
M  V30 29 C -7.5015 2.5638 0.0 0
M  V30 30 C -6.7413 4.5442 0.0 0
M  V30 31 C -4.7609 3.784 0.0 0
M  V30 32 C -7.3177 -4.008 0.0 0
M  V30 33 C -4.7764 -4.5482 0.0 0
M  V30 34 N -6.203 -5.0117 0.0 0
M  V30 35 N -8.7443 -4.4716 0.0 0
M  V30 END ATOM
M  V30 BEGIN BOND
M  V30 1 2 1 2
M  V30 2 2 1 3
M  V30 3 1 1 4
M  V30 4 1 1 5
M  V30 5 1 4 6
M  V30 6 2 5 7
M  V30 7 1 5 8
M  V30 8 2 6 9
M  V30 9 1 6 10
M  V30 10 1 7 11
M  V30 11 1 7 12
M  V30 12 1 8 13
M  V30 13 2 8 14
M  V30 14 1 9 15
M  V30 15 1 9 16
M  V30 16 2 10 17
M  V30 17 2 12 18
M  V30 18 1 16 19
M  V30 19 2 16 20
M  V30 20 1 19 21
M  V30 21 2 19 22
M  V30 22 2 21 23
M  V30 23 1 22 24
M  V30 24 1 22 25
M  V30 25 1 23 26
M  V30 26 2 25 27
M  V30 27 1 25 28
M  V30 28 1 26 29
M  V30 29 1 26 30
M  V30 30 1 26 31
M  V30 31 1 27 32
M  V30 32 2 28 33
M  V30 33 2 32 34
M  V30 34 1 32 35
M  V30 35 1 14 18
M  V30 36 1 17 20
M  V30 37 1 23 24
M  V30 38 1 33 34
M  V30 END BOND
M  V30 END CTAB
M  END
>  <Molecule Name>
Compound 618

>  <Molecule Name 2>
Compound 618

>  <Compound ID>
205

>  <Name>
Dabrafenib

>  <Uniprot>
Q9NYL2

>  <Target>
MAP3K20

>  <Smiles>
CC(C)(C)C1=NC(C2=CC=CC(NS(=O)(=O)C3=C(F)C=CC=C3F)=C2F)=C(C2=CC=NC(N)=N2)S1

>  <Kd (nM)>


>  <Assay (Kd)>


>  <Ki (nM)>


>  <Assay (Ki)>


>  <IC50 (nM)>


>  <Assay (IC50)>


>  <EC50 (nM)>


>  <Assay (EC50)>


>  <Article DOI>
10.1016/j.cell.2020.10.038

>  <Molecular Weight>
519.574

>  <Exact Mass>
519.1010515

>  <XLogP3>
4.78

>  <Heavy Atom Count>
35

>  <Ring Count>
4

>  <Hydrogen Bond Acceptor Count>
7

>  <Hydrogen Bond Donor Count>
2

>  <Rotatable Bond Count>
5

>  <Topological Polar Surface Area>
110.86

>  <Molecular Formula>
C23H20F3N5O2S2

>  <InChI>
InChI=1S/C23H20F3N5O2S2/c1-23(2,3)21-30-18(19(34-21)16-10-11-28-22(27)29-16)12-6-4-9-15(17(12)26)31-35(32,33)20-13(24)7-5-8-14(20)25/h4-11,31H,1-3H3,(H2,27,28,29)

>  <InChI Key>
BFSMGDJOXZAERB-UHFFFAOYSA-N

>  <BindingDB>
50428286

>  <PubChem>
44462760

>  <ChEMBL>
CHEMBL2028663

$$$$
205
Actelion Java MolfileCreator 2.0

  0  0  0  0  0  0              0 V3000
M  V30 BEGIN CTAB
M  V30 COUNTS 35 38 0 0 0
M  V30 BEGIN ATOM
M  V30 1 S 2.598 -0.75 0.0 0
M  V30 2 O 1.848 -2.049 0.0 0
M  V30 3 O 3.348 -2.049 0.0 0
M  V30 4 N 1.299 0.0 0.0 0
M  V30 5 C 3.8971 0.0 0.0 0
M  V30 6 C 0.0 -0.75 0.0 0
M  V30 7 C 5.1961 -0.75 0.0 0
M  V30 8 C 3.8971 1.5 0.0 0
M  V30 9 C -1.299 0.0 0.0 0
M  V30 10 C 0.0 -2.25 0.0 0
M  V30 11 F 5.1961 -2.25 0.0 0
M  V30 12 C 6.4951 0.0 0.0 0
M  V30 13 F 2.598 2.25 0.0 0
M  V30 14 C 5.1961 2.25 0.0 0
M  V30 15 F -1.299 1.5 0.0 0
M  V30 16 C -2.598 -0.75 0.0 0
M  V30 17 C -1.299 -3.0 0.0 0
M  V30 18 C 6.4951 1.5 0.0 0
M  V30 19 C -3.8971 0.0 0.0 0
M  V30 20 C -2.598 -2.25 0.0 0
M  V30 21 N -4.0539 1.4917 0.0 0
M  V30 22 C -5.2674 -0.6101 0.0 0
M  V30 23 C -5.5211 1.8036 0.0 0
M  V30 24 S -6.2711 0.5046 0.0 0
M  V30 25 C -5.5793 -2.0773 0.0 0
M  V30 26 C -6.1312 3.1739 0.0 0
M  V30 27 N -7.0058 -2.5408 0.0 0
M  V30 28 C -4.4645 -3.081 0.0 0
M  V30 29 C -7.5015 2.5638 0.0 0
M  V30 30 C -6.7413 4.5442 0.0 0
M  V30 31 C -4.7609 3.784 0.0 0
M  V30 32 C -7.3177 -4.008 0.0 0
M  V30 33 C -4.7764 -4.5482 0.0 0
M  V30 34 N -6.203 -5.0117 0.0 0
M  V30 35 N -8.7443 -4.4716 0.0 0
M  V30 END ATOM
M  V30 BEGIN BOND
M  V30 1 2 1 2
M  V30 2 2 1 3
M  V30 3 1 1 4
M  V30 4 1 1 5
M  V30 5 1 4 6
M  V30 6 2 5 7
M  V30 7 1 5 8
M  V30 8 2 6 9
M  V30 9 1 6 10
M  V30 10 1 7 11
M  V30 11 1 7 12
M  V30 12 1 8 13
M  V30 13 2 8 14
M  V30 14 1 9 15
M  V30 15 1 9 16
M  V30 16 2 10 17
M  V30 17 2 12 18
M  V30 18 1 16 19
M  V30 19 2 16 20
M  V30 20 1 19 21
M  V30 21 2 19 22
M  V30 22 2 21 23
M  V30 23 1 22 24
M  V30 24 1 22 25
M  V30 25 1 23 26
M  V30 26 2 25 27
M  V30 27 1 25 28
M  V30 28 1 26 29
M  V30 29 1 26 30
M  V30 30 1 26 31
M  V30 31 1 27 32
M  V30 32 2 28 33
M  V30 33 2 32 34
M  V30 34 1 32 35
M  V30 35 1 14 18
M  V30 36 1 17 20
M  V30 37 1 23 24
M  V30 38 1 33 34
M  V30 END BOND
M  V30 END CTAB
M  END
>  <Molecule Name>
Compound 619

>  <Molecule Name 2>
Compound 619

>  <Compound ID>
205

>  <Name>
Dabrafenib

>  <Uniprot>
Q9UBE8

>  <Target>
NLK

>  <Smiles>
CC(C)(C)C1=NC(C2=CC=CC(NS(=O)(=O)C3=C(F)C=CC=C3F)=C2F)=C(C2=CC=NC(N)=N2)S1

>  <Kd (nM)>
>30000

>  <Assay (Kd)>
Kd apparent of NLK

>  <Ki (nM)>


>  <Assay (Ki)>


>  <IC50 (nM)>


>  <Assay (IC50)>


>  <EC50 (nM)>


>  <Assay (EC50)>


>  <Article DOI>
10.1126/science.aan4368

>  <Molecular Weight>
519.574

>  <Exact Mass>
519.1010515

>  <XLogP3>
4.78

>  <Heavy Atom Count>
35

>  <Ring Count>
4

>  <Hydrogen Bond Acceptor Count>
7

>  <Hydrogen Bond Donor Count>
2

>  <Rotatable Bond Count>
5

>  <Topological Polar Surface Area>
110.86

>  <Molecular Formula>
C23H20F3N5O2S2

>  <InChI>
InChI=1S/C23H20F3N5O2S2/c1-23(2,3)21-30-18(19(34-21)16-10-11-28-22(27)29-16)12-6-4-9-15(17(12)26)31-35(32,33)20-13(24)7-5-8-14(20)25/h4-11,31H,1-3H3,(H2,27,28,29)

>  <InChI Key>
BFSMGDJOXZAERB-UHFFFAOYSA-N

>  <BindingDB>
50428286

>  <PubChem>
44462760

>  <ChEMBL>
CHEMBL2028663

$$$$
205
Actelion Java MolfileCreator 2.0

  0  0  0  0  0  0              0 V3000
M  V30 BEGIN CTAB
M  V30 COUNTS 35 38 0 0 0
M  V30 BEGIN ATOM
M  V30 1 S 2.598 -0.75 0.0 0
M  V30 2 O 1.848 -2.049 0.0 0
M  V30 3 O 3.348 -2.049 0.0 0
M  V30 4 N 1.299 0.0 0.0 0
M  V30 5 C 3.8971 0.0 0.0 0
M  V30 6 C 0.0 -0.75 0.0 0
M  V30 7 C 5.1961 -0.75 0.0 0
M  V30 8 C 3.8971 1.5 0.0 0
M  V30 9 C -1.299 0.0 0.0 0
M  V30 10 C 0.0 -2.25 0.0 0
M  V30 11 F 5.1961 -2.25 0.0 0
M  V30 12 C 6.4951 0.0 0.0 0
M  V30 13 F 2.598 2.25 0.0 0
M  V30 14 C 5.1961 2.25 0.0 0
M  V30 15 F -1.299 1.5 0.0 0
M  V30 16 C -2.598 -0.75 0.0 0
M  V30 17 C -1.299 -3.0 0.0 0
M  V30 18 C 6.4951 1.5 0.0 0
M  V30 19 C -3.8971 0.0 0.0 0
M  V30 20 C -2.598 -2.25 0.0 0
M  V30 21 N -4.0539 1.4917 0.0 0
M  V30 22 C -5.2674 -0.6101 0.0 0
M  V30 23 C -5.5211 1.8036 0.0 0
M  V30 24 S -6.2711 0.5046 0.0 0
M  V30 25 C -5.5793 -2.0773 0.0 0
M  V30 26 C -6.1312 3.1739 0.0 0
M  V30 27 N -7.0058 -2.5408 0.0 0
M  V30 28 C -4.4645 -3.081 0.0 0
M  V30 29 C -7.5015 2.5638 0.0 0
M  V30 30 C -6.7413 4.5442 0.0 0
M  V30 31 C -4.7609 3.784 0.0 0
M  V30 32 C -7.3177 -4.008 0.0 0
M  V30 33 C -4.7764 -4.5482 0.0 0
M  V30 34 N -6.203 -5.0117 0.0 0
M  V30 35 N -8.7443 -4.4716 0.0 0
M  V30 END ATOM
M  V30 BEGIN BOND
M  V30 1 2 1 2
M  V30 2 2 1 3
M  V30 3 1 1 4
M  V30 4 1 1 5
M  V30 5 1 4 6
M  V30 6 2 5 7
M  V30 7 1 5 8
M  V30 8 2 6 9
M  V30 9 1 6 10
M  V30 10 1 7 11
M  V30 11 1 7 12
M  V30 12 1 8 13
M  V30 13 2 8 14
M  V30 14 1 9 15
M  V30 15 1 9 16
M  V30 16 2 10 17
M  V30 17 2 12 18
M  V30 18 1 16 19
M  V30 19 2 16 20
M  V30 20 1 19 21
M  V30 21 2 19 22
M  V30 22 2 21 23
M  V30 23 1 22 24
M  V30 24 1 22 25
M  V30 25 1 23 26
M  V30 26 2 25 27
M  V30 27 1 25 28
M  V30 28 1 26 29
M  V30 29 1 26 30
M  V30 30 1 26 31
M  V30 31 1 27 32
M  V30 32 2 28 33
M  V30 33 2 32 34
M  V30 34 1 32 35
M  V30 35 1 14 18
M  V30 36 1 17 20
M  V30 37 1 23 24
M  V30 38 1 33 34
M  V30 END BOND
M  V30 END CTAB
M  END
>  <Molecule Name>
Compound 620

>  <Molecule Name 2>
Compound 620

>  <Compound ID>
205

>  <Name>
Dabrafenib

>  <Uniprot>
Q15118

>  <Target>
PDK1

>  <Smiles>
CC(C)(C)C1=NC(C2=CC=CC(NS(=O)(=O)C3=C(F)C=CC=C3F)=C2F)=C(C2=CC=NC(N)=N2)S1

>  <Kd (nM)>


>  <Assay (Kd)>


>  <Ki (nM)>


>  <Assay (Ki)>


>  <IC50 (nM)>


>  <Assay (IC50)>


>  <EC50 (nM)>


>  <Assay (EC50)>


>  <Article DOI>
10.1016/j.cell.2020.10.038

>  <Molecular Weight>
519.574

>  <Exact Mass>
519.1010515

>  <XLogP3>
4.78

>  <Heavy Atom Count>
35

>  <Ring Count>
4

>  <Hydrogen Bond Acceptor Count>
7

>  <Hydrogen Bond Donor Count>
2

>  <Rotatable Bond Count>
5

>  <Topological Polar Surface Area>
110.86

>  <Molecular Formula>
C23H20F3N5O2S2

>  <InChI>
InChI=1S/C23H20F3N5O2S2/c1-23(2,3)21-30-18(19(34-21)16-10-11-28-22(27)29-16)12-6-4-9-15(17(12)26)31-35(32,33)20-13(24)7-5-8-14(20)25/h4-11,31H,1-3H3,(H2,27,28,29)

>  <InChI Key>
BFSMGDJOXZAERB-UHFFFAOYSA-N

>  <BindingDB>
50428286

>  <PubChem>
44462760

>  <ChEMBL>
CHEMBL2028663

$$$$
205
Actelion Java MolfileCreator 2.0

  0  0  0  0  0  0              0 V3000
M  V30 BEGIN CTAB
M  V30 COUNTS 35 38 0 0 0
M  V30 BEGIN ATOM
M  V30 1 S 2.598 -0.75 0.0 0
M  V30 2 O 1.848 -2.049 0.0 0
M  V30 3 O 3.348 -2.049 0.0 0
M  V30 4 N 1.299 0.0 0.0 0
M  V30 5 C 3.8971 0.0 0.0 0
M  V30 6 C 0.0 -0.75 0.0 0
M  V30 7 C 5.1961 -0.75 0.0 0
M  V30 8 C 3.8971 1.5 0.0 0
M  V30 9 C -1.299 0.0 0.0 0
M  V30 10 C 0.0 -2.25 0.0 0
M  V30 11 F 5.1961 -2.25 0.0 0
M  V30 12 C 6.4951 0.0 0.0 0
M  V30 13 F 2.598 2.25 0.0 0
M  V30 14 C 5.1961 2.25 0.0 0
M  V30 15 F -1.299 1.5 0.0 0
M  V30 16 C -2.598 -0.75 0.0 0
M  V30 17 C -1.299 -3.0 0.0 0
M  V30 18 C 6.4951 1.5 0.0 0
M  V30 19 C -3.8971 0.0 0.0 0
M  V30 20 C -2.598 -2.25 0.0 0
M  V30 21 N -4.0539 1.4917 0.0 0
M  V30 22 C -5.2674 -0.6101 0.0 0
M  V30 23 C -5.5211 1.8036 0.0 0
M  V30 24 S -6.2711 0.5046 0.0 0
M  V30 25 C -5.5793 -2.0773 0.0 0
M  V30 26 C -6.1312 3.1739 0.0 0
M  V30 27 N -7.0058 -2.5408 0.0 0
M  V30 28 C -4.4645 -3.081 0.0 0
M  V30 29 C -7.5015 2.5638 0.0 0
M  V30 30 C -6.7413 4.5442 0.0 0
M  V30 31 C -4.7609 3.784 0.0 0
M  V30 32 C -7.3177 -4.008 0.0 0
M  V30 33 C -4.7764 -4.5482 0.0 0
M  V30 34 N -6.203 -5.0117 0.0 0
M  V30 35 N -8.7443 -4.4716 0.0 0
M  V30 END ATOM
M  V30 BEGIN BOND
M  V30 1 2 1 2
M  V30 2 2 1 3
M  V30 3 1 1 4
M  V30 4 1 1 5
M  V30 5 1 4 6
M  V30 6 2 5 7
M  V30 7 1 5 8
M  V30 8 2 6 9
M  V30 9 1 6 10
M  V30 10 1 7 11
M  V30 11 1 7 12
M  V30 12 1 8 13
M  V30 13 2 8 14
M  V30 14 1 9 15
M  V30 15 1 9 16
M  V30 16 2 10 17
M  V30 17 2 12 18
M  V30 18 1 16 19
M  V30 19 2 16 20
M  V30 20 1 19 21
M  V30 21 2 19 22
M  V30 22 2 21 23
M  V30 23 1 22 24
M  V30 24 1 22 25
M  V30 25 1 23 26
M  V30 26 2 25 27
M  V30 27 1 25 28
M  V30 28 1 26 29
M  V30 29 1 26 30
M  V30 30 1 26 31
M  V30 31 1 27 32
M  V30 32 2 28 33
M  V30 33 2 32 34
M  V30 34 1 32 35
M  V30 35 1 14 18
M  V30 36 1 17 20
M  V30 37 1 23 24
M  V30 38 1 33 34
M  V30 END BOND
M  V30 END CTAB
M  END
>  <Molecule Name>
Compound 621

>  <Molecule Name 2>
Compound 621

>  <Compound ID>
205

>  <Name>
Dabrafenib

>  <Uniprot>
Q15119

>  <Target>
PDK2

>  <Smiles>
CC(C)(C)C1=NC(C2=CC=CC(NS(=O)(=O)C3=C(F)C=CC=C3F)=C2F)=C(C2=CC=NC(N)=N2)S1

>  <Kd (nM)>


>  <Assay (Kd)>


>  <Ki (nM)>


>  <Assay (Ki)>


>  <IC50 (nM)>


>  <Assay (IC50)>


>  <EC50 (nM)>


>  <Assay (EC50)>


>  <Article DOI>
10.1016/j.cell.2020.10.038

>  <Molecular Weight>
519.574

>  <Exact Mass>
519.1010515

>  <XLogP3>
4.78

>  <Heavy Atom Count>
35

>  <Ring Count>
4

>  <Hydrogen Bond Acceptor Count>
7

>  <Hydrogen Bond Donor Count>
2

>  <Rotatable Bond Count>
5

>  <Topological Polar Surface Area>
110.86

>  <Molecular Formula>
C23H20F3N5O2S2

>  <InChI>
InChI=1S/C23H20F3N5O2S2/c1-23(2,3)21-30-18(19(34-21)16-10-11-28-22(27)29-16)12-6-4-9-15(17(12)26)31-35(32,33)20-13(24)7-5-8-14(20)25/h4-11,31H,1-3H3,(H2,27,28,29)

>  <InChI Key>
BFSMGDJOXZAERB-UHFFFAOYSA-N

>  <BindingDB>
50428286

>  <PubChem>
44462760

>  <ChEMBL>
CHEMBL2028663

$$$$
205
Actelion Java MolfileCreator 2.0

  0  0  0  0  0  0              0 V3000
M  V30 BEGIN CTAB
M  V30 COUNTS 35 38 0 0 0
M  V30 BEGIN ATOM
M  V30 1 S 2.598 -0.75 0.0 0
M  V30 2 O 1.848 -2.049 0.0 0
M  V30 3 O 3.348 -2.049 0.0 0
M  V30 4 N 1.299 0.0 0.0 0
M  V30 5 C 3.8971 0.0 0.0 0
M  V30 6 C 0.0 -0.75 0.0 0
M  V30 7 C 5.1961 -0.75 0.0 0
M  V30 8 C 3.8971 1.5 0.0 0
M  V30 9 C -1.299 0.0 0.0 0
M  V30 10 C 0.0 -2.25 0.0 0
M  V30 11 F 5.1961 -2.25 0.0 0
M  V30 12 C 6.4951 0.0 0.0 0
M  V30 13 F 2.598 2.25 0.0 0
M  V30 14 C 5.1961 2.25 0.0 0
M  V30 15 F -1.299 1.5 0.0 0
M  V30 16 C -2.598 -0.75 0.0 0
M  V30 17 C -1.299 -3.0 0.0 0
M  V30 18 C 6.4951 1.5 0.0 0
M  V30 19 C -3.8971 0.0 0.0 0
M  V30 20 C -2.598 -2.25 0.0 0
M  V30 21 N -4.0539 1.4917 0.0 0
M  V30 22 C -5.2674 -0.6101 0.0 0
M  V30 23 C -5.5211 1.8036 0.0 0
M  V30 24 S -6.2711 0.5046 0.0 0
M  V30 25 C -5.5793 -2.0773 0.0 0
M  V30 26 C -6.1312 3.1739 0.0 0
M  V30 27 N -7.0058 -2.5408 0.0 0
M  V30 28 C -4.4645 -3.081 0.0 0
M  V30 29 C -7.5015 2.5638 0.0 0
M  V30 30 C -6.7413 4.5442 0.0 0
M  V30 31 C -4.7609 3.784 0.0 0
M  V30 32 C -7.3177 -4.008 0.0 0
M  V30 33 C -4.7764 -4.5482 0.0 0
M  V30 34 N -6.203 -5.0117 0.0 0
M  V30 35 N -8.7443 -4.4716 0.0 0
M  V30 END ATOM
M  V30 BEGIN BOND
M  V30 1 2 1 2
M  V30 2 2 1 3
M  V30 3 1 1 4
M  V30 4 1 1 5
M  V30 5 1 4 6
M  V30 6 2 5 7
M  V30 7 1 5 8
M  V30 8 2 6 9
M  V30 9 1 6 10
M  V30 10 1 7 11
M  V30 11 1 7 12
M  V30 12 1 8 13
M  V30 13 2 8 14
M  V30 14 1 9 15
M  V30 15 1 9 16
M  V30 16 2 10 17
M  V30 17 2 12 18
M  V30 18 1 16 19
M  V30 19 2 16 20
M  V30 20 1 19 21
M  V30 21 2 19 22
M  V30 22 2 21 23
M  V30 23 1 22 24
M  V30 24 1 22 25
M  V30 25 1 23 26
M  V30 26 2 25 27
M  V30 27 1 25 28
M  V30 28 1 26 29
M  V30 29 1 26 30
M  V30 30 1 26 31
M  V30 31 1 27 32
M  V30 32 2 28 33
M  V30 33 2 32 34
M  V30 34 1 32 35
M  V30 35 1 14 18
M  V30 36 1 17 20
M  V30 37 1 23 24
M  V30 38 1 33 34
M  V30 END BOND
M  V30 END CTAB
M  END
>  <Molecule Name>
Compound 622

>  <Molecule Name 2>
Compound 622

>  <Compound ID>
205

>  <Name>
Dabrafenib

>  <Uniprot>
Q15120

>  <Target>
PDK3

>  <Smiles>
CC(C)(C)C1=NC(C2=CC=CC(NS(=O)(=O)C3=C(F)C=CC=C3F)=C2F)=C(C2=CC=NC(N)=N2)S1

>  <Kd (nM)>


>  <Assay (Kd)>


>  <Ki (nM)>


>  <Assay (Ki)>


>  <IC50 (nM)>


>  <Assay (IC50)>


>  <EC50 (nM)>


>  <Assay (EC50)>


>  <Article DOI>
10.1016/j.cell.2020.10.038

>  <Molecular Weight>
519.574

>  <Exact Mass>
519.1010515

>  <XLogP3>
4.78

>  <Heavy Atom Count>
35

>  <Ring Count>
4

>  <Hydrogen Bond Acceptor Count>
7

>  <Hydrogen Bond Donor Count>
2

>  <Rotatable Bond Count>
5

>  <Topological Polar Surface Area>
110.86

>  <Molecular Formula>
C23H20F3N5O2S2

>  <InChI>
InChI=1S/C23H20F3N5O2S2/c1-23(2,3)21-30-18(19(34-21)16-10-11-28-22(27)29-16)12-6-4-9-15(17(12)26)31-35(32,33)20-13(24)7-5-8-14(20)25/h4-11,31H,1-3H3,(H2,27,28,29)

>  <InChI Key>
BFSMGDJOXZAERB-UHFFFAOYSA-N

>  <BindingDB>
50428286

>  <PubChem>
44462760

>  <ChEMBL>
CHEMBL2028663

$$$$
205
Actelion Java MolfileCreator 2.0

  0  0  0  0  0  0              0 V3000
M  V30 BEGIN CTAB
M  V30 COUNTS 35 38 0 0 0
M  V30 BEGIN ATOM
M  V30 1 S 2.598 -0.75 0.0 0
M  V30 2 O 1.848 -2.049 0.0 0
M  V30 3 O 3.348 -2.049 0.0 0
M  V30 4 N 1.299 0.0 0.0 0
M  V30 5 C 3.8971 0.0 0.0 0
M  V30 6 C 0.0 -0.75 0.0 0
M  V30 7 C 5.1961 -0.75 0.0 0
M  V30 8 C 3.8971 1.5 0.0 0
M  V30 9 C -1.299 0.0 0.0 0
M  V30 10 C 0.0 -2.25 0.0 0
M  V30 11 F 5.1961 -2.25 0.0 0
M  V30 12 C 6.4951 0.0 0.0 0
M  V30 13 F 2.598 2.25 0.0 0
M  V30 14 C 5.1961 2.25 0.0 0
M  V30 15 F -1.299 1.5 0.0 0
M  V30 16 C -2.598 -0.75 0.0 0
M  V30 17 C -1.299 -3.0 0.0 0
M  V30 18 C 6.4951 1.5 0.0 0
M  V30 19 C -3.8971 0.0 0.0 0
M  V30 20 C -2.598 -2.25 0.0 0
M  V30 21 N -4.0539 1.4917 0.0 0
M  V30 22 C -5.2674 -0.6101 0.0 0
M  V30 23 C -5.5211 1.8036 0.0 0
M  V30 24 S -6.2711 0.5046 0.0 0
M  V30 25 C -5.5793 -2.0773 0.0 0
M  V30 26 C -6.1312 3.1739 0.0 0
M  V30 27 N -7.0058 -2.5408 0.0 0
M  V30 28 C -4.4645 -3.081 0.0 0
M  V30 29 C -7.5015 2.5638 0.0 0
M  V30 30 C -6.7413 4.5442 0.0 0
M  V30 31 C -4.7609 3.784 0.0 0
M  V30 32 C -7.3177 -4.008 0.0 0
M  V30 33 C -4.7764 -4.5482 0.0 0
M  V30 34 N -6.203 -5.0117 0.0 0
M  V30 35 N -8.7443 -4.4716 0.0 0
M  V30 END ATOM
M  V30 BEGIN BOND
M  V30 1 2 1 2
M  V30 2 2 1 3
M  V30 3 1 1 4
M  V30 4 1 1 5
M  V30 5 1 4 6
M  V30 6 2 5 7
M  V30 7 1 5 8
M  V30 8 2 6 9
M  V30 9 1 6 10
M  V30 10 1 7 11
M  V30 11 1 7 12
M  V30 12 1 8 13
M  V30 13 2 8 14
M  V30 14 1 9 15
M  V30 15 1 9 16
M  V30 16 2 10 17
M  V30 17 2 12 18
M  V30 18 1 16 19
M  V30 19 2 16 20
M  V30 20 1 19 21
M  V30 21 2 19 22
M  V30 22 2 21 23
M  V30 23 1 22 24
M  V30 24 1 22 25
M  V30 25 1 23 26
M  V30 26 2 25 27
M  V30 27 1 25 28
M  V30 28 1 26 29
M  V30 29 1 26 30
M  V30 30 1 26 31
M  V30 31 1 27 32
M  V30 32 2 28 33
M  V30 33 2 32 34
M  V30 34 1 32 35
M  V30 35 1 14 18
M  V30 36 1 17 20
M  V30 37 1 23 24
M  V30 38 1 33 34
M  V30 END BOND
M  V30 END CTAB
M  END
>  <Molecule Name>
Compound 623

>  <Molecule Name 2>
Compound 623

>  <Compound ID>
205

>  <Name>
Dabrafenib

>  <Uniprot>
P53350

>  <Target>
PLK1

>  <Smiles>
CC(C)(C)C1=NC(C2=CC=CC(NS(=O)(=O)C3=C(F)C=CC=C3F)=C2F)=C(C2=CC=NC(N)=N2)S1

>  <Kd (nM)>
>30000

>  <Assay (Kd)>
Kd apparent of PLK1

>  <Ki (nM)>


>  <Assay (Ki)>


>  <IC50 (nM)>


>  <Assay (IC50)>


>  <EC50 (nM)>


>  <Assay (EC50)>


>  <Article DOI>
10.1126/science.aan4368

>  <Molecular Weight>
519.574

>  <Exact Mass>
519.1010515

>  <XLogP3>
4.78

>  <Heavy Atom Count>
35

>  <Ring Count>
4

>  <Hydrogen Bond Acceptor Count>
7

>  <Hydrogen Bond Donor Count>
2

>  <Rotatable Bond Count>
5

>  <Topological Polar Surface Area>
110.86

>  <Molecular Formula>
C23H20F3N5O2S2

>  <InChI>
InChI=1S/C23H20F3N5O2S2/c1-23(2,3)21-30-18(19(34-21)16-10-11-28-22(27)29-16)12-6-4-9-15(17(12)26)31-35(32,33)20-13(24)7-5-8-14(20)25/h4-11,31H,1-3H3,(H2,27,28,29)

>  <InChI Key>
BFSMGDJOXZAERB-UHFFFAOYSA-N

>  <BindingDB>
50428286

>  <PubChem>
44462760

>  <ChEMBL>
CHEMBL2028663

$$$$
205
Actelion Java MolfileCreator 2.0

  0  0  0  0  0  0              0 V3000
M  V30 BEGIN CTAB
M  V30 COUNTS 35 38 0 0 0
M  V30 BEGIN ATOM
M  V30 1 S 2.598 -0.75 0.0 0
M  V30 2 O 1.848 -2.049 0.0 0
M  V30 3 O 3.348 -2.049 0.0 0
M  V30 4 N 1.299 0.0 0.0 0
M  V30 5 C 3.8971 0.0 0.0 0
M  V30 6 C 0.0 -0.75 0.0 0
M  V30 7 C 5.1961 -0.75 0.0 0
M  V30 8 C 3.8971 1.5 0.0 0
M  V30 9 C -1.299 0.0 0.0 0
M  V30 10 C 0.0 -2.25 0.0 0
M  V30 11 F 5.1961 -2.25 0.0 0
M  V30 12 C 6.4951 0.0 0.0 0
M  V30 13 F 2.598 2.25 0.0 0
M  V30 14 C 5.1961 2.25 0.0 0
M  V30 15 F -1.299 1.5 0.0 0
M  V30 16 C -2.598 -0.75 0.0 0
M  V30 17 C -1.299 -3.0 0.0 0
M  V30 18 C 6.4951 1.5 0.0 0
M  V30 19 C -3.8971 0.0 0.0 0
M  V30 20 C -2.598 -2.25 0.0 0
M  V30 21 N -4.0539 1.4917 0.0 0
M  V30 22 C -5.2674 -0.6101 0.0 0
M  V30 23 C -5.5211 1.8036 0.0 0
M  V30 24 S -6.2711 0.5046 0.0 0
M  V30 25 C -5.5793 -2.0773 0.0 0
M  V30 26 C -6.1312 3.1739 0.0 0
M  V30 27 N -7.0058 -2.5408 0.0 0
M  V30 28 C -4.4645 -3.081 0.0 0
M  V30 29 C -7.5015 2.5638 0.0 0
M  V30 30 C -6.7413 4.5442 0.0 0
M  V30 31 C -4.7609 3.784 0.0 0
M  V30 32 C -7.3177 -4.008 0.0 0
M  V30 33 C -4.7764 -4.5482 0.0 0
M  V30 34 N -6.203 -5.0117 0.0 0
M  V30 35 N -8.7443 -4.4716 0.0 0
M  V30 END ATOM
M  V30 BEGIN BOND
M  V30 1 2 1 2
M  V30 2 2 1 3
M  V30 3 1 1 4
M  V30 4 1 1 5
M  V30 5 1 4 6
M  V30 6 2 5 7
M  V30 7 1 5 8
M  V30 8 2 6 9
M  V30 9 1 6 10
M  V30 10 1 7 11
M  V30 11 1 7 12
M  V30 12 1 8 13
M  V30 13 2 8 14
M  V30 14 1 9 15
M  V30 15 1 9 16
M  V30 16 2 10 17
M  V30 17 2 12 18
M  V30 18 1 16 19
M  V30 19 2 16 20
M  V30 20 1 19 21
M  V30 21 2 19 22
M  V30 22 2 21 23
M  V30 23 1 22 24
M  V30 24 1 22 25
M  V30 25 1 23 26
M  V30 26 2 25 27
M  V30 27 1 25 28
M  V30 28 1 26 29
M  V30 29 1 26 30
M  V30 30 1 26 31
M  V30 31 1 27 32
M  V30 32 2 28 33
M  V30 33 2 32 34
M  V30 34 1 32 35
M  V30 35 1 14 18
M  V30 36 1 17 20
M  V30 37 1 23 24
M  V30 38 1 33 34
M  V30 END BOND
M  V30 END CTAB
M  END
>  <Molecule Name>
Compound 624

>  <Molecule Name 2>
Compound 624

>  <Compound ID>
205

>  <Name>
Dabrafenib

>  <Uniprot>
Q96S53

>  <Target>
TESK2

>  <Smiles>
CC(C)(C)C1=NC(C2=CC=CC(NS(=O)(=O)C3=C(F)C=CC=C3F)=C2F)=C(C2=CC=NC(N)=N2)S1

>  <Kd (nM)>


>  <Assay (Kd)>


>  <Ki (nM)>


>  <Assay (Ki)>


>  <IC50 (nM)>


>  <Assay (IC50)>


>  <EC50 (nM)>


>  <Assay (EC50)>


>  <Article DOI>
10.1016/j.cell.2020.10.038

>  <Molecular Weight>
519.574

>  <Exact Mass>
519.1010515

>  <XLogP3>
4.78

>  <Heavy Atom Count>
35

>  <Ring Count>
4

>  <Hydrogen Bond Acceptor Count>
7

>  <Hydrogen Bond Donor Count>
2

>  <Rotatable Bond Count>
5

>  <Topological Polar Surface Area>
110.86

>  <Molecular Formula>
C23H20F3N5O2S2

>  <InChI>
InChI=1S/C23H20F3N5O2S2/c1-23(2,3)21-30-18(19(34-21)16-10-11-28-22(27)29-16)12-6-4-9-15(17(12)26)31-35(32,33)20-13(24)7-5-8-14(20)25/h4-11,31H,1-3H3,(H2,27,28,29)

>  <InChI Key>
BFSMGDJOXZAERB-UHFFFAOYSA-N

>  <BindingDB>
50428286

>  <PubChem>
44462760

>  <ChEMBL>
CHEMBL2028663

$$$$
206
Actelion Java MolfileCreator 2.0

  0  0  0  0  0  0              0 V3000
M  V30 BEGIN CTAB
M  V30 COUNTS 21 23 0 0 0
M  V30 BEGIN ATOM
M  V30 1 O 0.866 -1.9999 0.0 0
M  V30 2 C 1.732 -1.4999 0.0 0
M  V30 3 N 2.598 -1.9999 0.0 0
M  V30 4 N 1.732 -0.5 0.0 0
M  V30 5 C 3.4641 -1.4999 0.0 0
M  V30 6 C 2.598 -3.0 0.0 0
M  V30 7 C 2.598 0.0 0.0 0
M  V30 8 C 0.866 0.0 0.0 0
M  V30 9 N 4.3301 -1.9999 0.0 0
M  V30 10 C 3.4641 -0.5 0.0 0
M  V30 11 C 2.098 -3.866 0.0 0
M  V30 12 C 3.098 -3.866 0.0 0
M  V30 13 O 2.598 1.0 0.0 0
M  V30 14 C 0.0 -0.5 0.0 0
M  V30 15 C 5.1961 -1.4999 0.0 0
M  V30 16 C 4.3301 0.0 0.0 0
M  V30 17 N 6.0621 -1.9999 0.0 0
M  V30 18 C 5.1961 -0.5 0.0 0
M  V30 19 C 6.0621 0.0 0.0 0
M  V30 20 O 6.9282 -0.5 0.0 0
M  V30 21 N 6.0621 0.9999 0.0 0
M  V30 END ATOM
M  V30 BEGIN BOND
M  V30 1 2 1 2
M  V30 2 1 2 3
M  V30 3 1 2 4
M  V30 4 1 3 5
M  V30 5 1 3 6
M  V30 6 1 4 7
M  V30 7 1 4 8
M  V30 8 2 5 9
M  V30 9 1 5 10
M  V30 10 1 6 11
M  V30 11 1 6 12
M  V30 12 2 7 13
M  V30 13 1 8 14
M  V30 14 1 9 15
M  V30 15 2 10 16
M  V30 16 1 15 17
M  V30 17 2 15 18
M  V30 18 1 18 19
M  V30 19 2 19 20
M  V30 20 1 19 21
M  V30 21 1 7 10
M  V30 22 1 11 12
M  V30 23 1 16 18
M  V30 END BOND
M  V30 END CTAB
M  END
>  <Molecule Name>
Compound 625

>  <Molecule Name 2>
Compound 625

>  <Compound ID>
206

>  <Name>
A484954

>  <Uniprot>
O00418

>  <Target>
EEF2K

>  <Smiles>
CCN1C(=O)C2=CC(C(N)=O)=C(N)N=C2N(C2CC2)C1=O

>  <Kd (nM)>


>  <Assay (Kd)>


>  <Ki (nM)>


>  <Assay (Ki)>


>  <IC50 (nM)>
280

>  <Assay (IC50)>
Inhibition of EEF2K

>  <EC50 (nM)>


>  <Assay (EC50)>


>  <Article DOI>
10.1074/jbc.M111.301291

>  <Molecular Weight>
289.295

>  <Exact Mass>
289.1174893

>  <XLogP3>
0.07

>  <Heavy Atom Count>
21

>  <Ring Count>
3

>  <Hydrogen Bond Acceptor Count>
7

>  <Hydrogen Bond Donor Count>
2

>  <Rotatable Bond Count>
3

>  <Topological Polar Surface Area>
126

>  <Molecular Formula>
C13H15N5O3

>  <InChI>
InChI=1S/C13H15N5O3/c1-2-17-12(20)8-5-7(10(15)19)9(14)16-11(8)18(13(17)21)6-3-4-6/h5-6H,2-4H2,1H3,(H2,14,16)(H2,15,19)

>  <InChI Key>
HWODCHXORCTEGU-UHFFFAOYSA-N

>  <BindingDB>
50053584

>  <PubChem>
14998470

>  <ChEMBL>
CHEMBL1977874

$$$$
207
Actelion Java MolfileCreator 2.0

  0  0  0  0  0  0              0 V3000
M  V30 BEGIN CTAB
M  V30 COUNTS 32 36 0 0 0
M  V30 BEGIN ATOM
M  V30 1 O 6.0621 0.0 0.0 0
M  V30 2 C 5.1961 -0.5 0.0 0
M  V30 3 N 4.3301 0.0 0.0 0
M  V30 4 C 5.1961 -1.4999 0.0 0
M  V30 5 C 3.4641 -0.5 0.0 0
M  V30 6 C 4.489 -2.2071 0.0 0
M  V30 7 C 5.9032 -2.2071 0.0 0
M  V30 8 C 2.598 0.0 0.0 0
M  V30 9 C 5.1961 -2.9142 0.0 0
M  V30 10 C 1.732 -0.5 0.0 0
M  V30 11 N 0.866 0.0 0.0 0
M  V30 12 C 0.0 -0.5 0.0 0
M  V30 13 N -0.866 0.0 0.0 0
M  V30 14 C 0.0 -1.4999 0.0 0
M  V30 15 C -1.732 -0.4999 0.0 0
M  V30 16 C -0.866 -1.9999 0.0 0
M  V30 17 C 0.866 -2.0 0.0 0
M  V30 18 N -1.732 -1.4999 0.0 0
M  V30 19 N -2.598 0.0 0.0 0
M  V30 20 C 1.366 -2.866 0.0 0
M  V30 21 C 1.866 -2.0 0.0 0
M  V30 22 C -3.4641 -0.4999 0.0 0
M  V30 23 C -4.3301 0.0 0.0 0
M  V30 24 C -3.4641 -1.4999 0.0 0
M  V30 25 C -5.1961 -0.4999 0.0 0
M  V30 26 C -4.3301 -1.9999 0.0 0
M  V30 27 C -5.1961 -1.4999 0.0 0
M  V30 28 C -6.0621 0.0 0.0 0
M  V30 29 C -6.0621 -1.9999 0.0 0
M  V30 30 C -6.9282 -0.4999 0.0 0
M  V30 31 N -6.9282 -1.4999 0.0 0
M  V30 32 C -7.7942 -1.9999 0.0 0
M  V30 END ATOM
M  V30 BEGIN BOND
M  V30 1 2 1 2
M  V30 2 1 2 3
M  V30 3 1 2 4
M  V30 4 1 3 5
M  V30 5 1 4 6
M  V30 6 1 4 7
M  V30 7 1 5 8
M  V30 8 1 6 9
M  V30 9 1 8 10
M  V30 10 1 10 11
M  V30 11 1 11 12
M  V30 12 2 12 13
M  V30 13 1 12 14
M  V30 14 1 13 15
M  V30 15 2 14 16
M  V30 16 1 14 17
M  V30 17 2 15 18
M  V30 18 1 15 19
M  V30 19 1 17 20
M  V30 20 1 17 21
M  V30 21 1 19 22
M  V30 22 2 22 23
M  V30 23 1 22 24
M  V30 24 1 23 25
M  V30 25 2 24 26
M  V30 26 2 25 27
M  V30 27 1 25 28
M  V30 28 1 27 29
M  V30 29 1 28 30
M  V30 30 1 29 31
M  V30 31 1 31 32
M  V30 32 1 7 9
M  V30 33 1 16 18
M  V30 34 1 20 21
M  V30 35 1 26 27
M  V30 36 1 30 31
M  V30 END BOND
M  V30 END CTAB
M  END
>  <Molecule Name>
Compound 626

>  <Molecule Name 2>
Compound 626

>  <Compound ID>
207

>  <Name>
MRT68921

>  <Uniprot>
Q2M2I8

>  <Target>
AAK1

>  <Smiles>
CN1CCC2=CC(NC3=NC=C(C4CC4)C(NCCCNC(=O)C4CCC4)=N3)=CC=C2C1

>  <Kd (nM)>


>  <Assay (Kd)>


>  <Ki (nM)>


>  <Assay (Ki)>


>  <IC50 (nM)>


>  <Assay (IC50)>


>  <EC50 (nM)>


>  <Assay (EC50)>


>  <Article DOI>
10.1016/j.cell.2020.10.038

>  <Molecular Weight>
434.588

>  <Exact Mass>
434.2794097

>  <XLogP3>
4.4

>  <Heavy Atom Count>
32

>  <Ring Count>
5

>  <Hydrogen Bond Acceptor Count>
6

>  <Hydrogen Bond Donor Count>
3

>  <Rotatable Bond Count>
9

>  <Topological Polar Surface Area>
82.18

>  <Molecular Formula>
C25H34N6O

>  <InChI>
InChI=1S/C25H34N6O/c1-31-13-10-19-14-21(9-8-20(19)16-31)29-25-28-15-22(17-6-7-17)23(30-25)26-11-3-12-27-24(32)18-4-2-5-18/h8-9,14-15,17-18H,2-7,10-13,16H2,1H3,(H,27,32)(H2,26,28,29,30)

>  <InChI Key>
KKISLZKMBSCLSS-UHFFFAOYSA-N

>  <BindingDB>
50503137

>  <PubChem>
59225335

>  <ChEMBL>
CHEMBL4516990

$$$$
207
Actelion Java MolfileCreator 2.0

  0  0  0  0  0  0              0 V3000
M  V30 BEGIN CTAB
M  V30 COUNTS 32 36 0 0 0
M  V30 BEGIN ATOM
M  V30 1 O 6.0621 0.0 0.0 0
M  V30 2 C 5.1961 -0.5 0.0 0
M  V30 3 N 4.3301 0.0 0.0 0
M  V30 4 C 5.1961 -1.4999 0.0 0
M  V30 5 C 3.4641 -0.5 0.0 0
M  V30 6 C 4.489 -2.2071 0.0 0
M  V30 7 C 5.9032 -2.2071 0.0 0
M  V30 8 C 2.598 0.0 0.0 0
M  V30 9 C 5.1961 -2.9142 0.0 0
M  V30 10 C 1.732 -0.5 0.0 0
M  V30 11 N 0.866 0.0 0.0 0
M  V30 12 C 0.0 -0.5 0.0 0
M  V30 13 N -0.866 0.0 0.0 0
M  V30 14 C 0.0 -1.4999 0.0 0
M  V30 15 C -1.732 -0.4999 0.0 0
M  V30 16 C -0.866 -1.9999 0.0 0
M  V30 17 C 0.866 -2.0 0.0 0
M  V30 18 N -1.732 -1.4999 0.0 0
M  V30 19 N -2.598 0.0 0.0 0
M  V30 20 C 1.366 -2.866 0.0 0
M  V30 21 C 1.866 -2.0 0.0 0
M  V30 22 C -3.4641 -0.4999 0.0 0
M  V30 23 C -4.3301 0.0 0.0 0
M  V30 24 C -3.4641 -1.4999 0.0 0
M  V30 25 C -5.1961 -0.4999 0.0 0
M  V30 26 C -4.3301 -1.9999 0.0 0
M  V30 27 C -5.1961 -1.4999 0.0 0
M  V30 28 C -6.0621 0.0 0.0 0
M  V30 29 C -6.0621 -1.9999 0.0 0
M  V30 30 C -6.9282 -0.4999 0.0 0
M  V30 31 N -6.9282 -1.4999 0.0 0
M  V30 32 C -7.7942 -1.9999 0.0 0
M  V30 END ATOM
M  V30 BEGIN BOND
M  V30 1 2 1 2
M  V30 2 1 2 3
M  V30 3 1 2 4
M  V30 4 1 3 5
M  V30 5 1 4 6
M  V30 6 1 4 7
M  V30 7 1 5 8
M  V30 8 1 6 9
M  V30 9 1 8 10
M  V30 10 1 10 11
M  V30 11 1 11 12
M  V30 12 2 12 13
M  V30 13 1 12 14
M  V30 14 1 13 15
M  V30 15 2 14 16
M  V30 16 1 14 17
M  V30 17 2 15 18
M  V30 18 1 15 19
M  V30 19 1 17 20
M  V30 20 1 17 21
M  V30 21 1 19 22
M  V30 22 2 22 23
M  V30 23 1 22 24
M  V30 24 1 23 25
M  V30 25 2 24 26
M  V30 26 2 25 27
M  V30 27 1 25 28
M  V30 28 1 27 29
M  V30 29 1 28 30
M  V30 30 1 29 31
M  V30 31 1 31 32
M  V30 32 1 7 9
M  V30 33 1 16 18
M  V30 34 1 20 21
M  V30 35 1 26 27
M  V30 36 1 30 31
M  V30 END BOND
M  V30 END CTAB
M  END
>  <Molecule Name>
Compound 627

>  <Molecule Name 2>
Compound 627

>  <Compound ID>
207

>  <Name>
MRT68921

>  <Uniprot>
O14965

>  <Target>
AURKA

>  <Smiles>
CN1CCC2=CC(NC3=NC=C(C4CC4)C(NCCCNC(=O)C4CCC4)=N3)=CC=C2C1

>  <Kd (nM)>


>  <Assay (Kd)>


>  <Ki (nM)>


>  <Assay (Ki)>


>  <IC50 (nM)>


>  <Assay (IC50)>


>  <EC50 (nM)>


>  <Assay (EC50)>


>  <Article DOI>
10.1016/j.cell.2020.10.038

>  <Molecular Weight>
434.588

>  <Exact Mass>
434.2794097

>  <XLogP3>
4.4

>  <Heavy Atom Count>
32

>  <Ring Count>
5

>  <Hydrogen Bond Acceptor Count>
6

>  <Hydrogen Bond Donor Count>
3

>  <Rotatable Bond Count>
9

>  <Topological Polar Surface Area>
82.18

>  <Molecular Formula>
C25H34N6O

>  <InChI>
InChI=1S/C25H34N6O/c1-31-13-10-19-14-21(9-8-20(19)16-31)29-25-28-15-22(17-6-7-17)23(30-25)26-11-3-12-27-24(32)18-4-2-5-18/h8-9,14-15,17-18H,2-7,10-13,16H2,1H3,(H,27,32)(H2,26,28,29,30)

>  <InChI Key>
KKISLZKMBSCLSS-UHFFFAOYSA-N

>  <BindingDB>
50503137

>  <PubChem>
59225335

>  <ChEMBL>
CHEMBL4516990

$$$$
207
Actelion Java MolfileCreator 2.0

  0  0  0  0  0  0              0 V3000
M  V30 BEGIN CTAB
M  V30 COUNTS 32 36 0 0 0
M  V30 BEGIN ATOM
M  V30 1 O 6.0621 0.0 0.0 0
M  V30 2 C 5.1961 -0.5 0.0 0
M  V30 3 N 4.3301 0.0 0.0 0
M  V30 4 C 5.1961 -1.4999 0.0 0
M  V30 5 C 3.4641 -0.5 0.0 0
M  V30 6 C 4.489 -2.2071 0.0 0
M  V30 7 C 5.9032 -2.2071 0.0 0
M  V30 8 C 2.598 0.0 0.0 0
M  V30 9 C 5.1961 -2.9142 0.0 0
M  V30 10 C 1.732 -0.5 0.0 0
M  V30 11 N 0.866 0.0 0.0 0
M  V30 12 C 0.0 -0.5 0.0 0
M  V30 13 N -0.866 0.0 0.0 0
M  V30 14 C 0.0 -1.4999 0.0 0
M  V30 15 C -1.732 -0.4999 0.0 0
M  V30 16 C -0.866 -1.9999 0.0 0
M  V30 17 C 0.866 -2.0 0.0 0
M  V30 18 N -1.732 -1.4999 0.0 0
M  V30 19 N -2.598 0.0 0.0 0
M  V30 20 C 1.366 -2.866 0.0 0
M  V30 21 C 1.866 -2.0 0.0 0
M  V30 22 C -3.4641 -0.4999 0.0 0
M  V30 23 C -4.3301 0.0 0.0 0
M  V30 24 C -3.4641 -1.4999 0.0 0
M  V30 25 C -5.1961 -0.4999 0.0 0
M  V30 26 C -4.3301 -1.9999 0.0 0
M  V30 27 C -5.1961 -1.4999 0.0 0
M  V30 28 C -6.0621 0.0 0.0 0
M  V30 29 C -6.0621 -1.9999 0.0 0
M  V30 30 C -6.9282 -0.4999 0.0 0
M  V30 31 N -6.9282 -1.4999 0.0 0
M  V30 32 C -7.7942 -1.9999 0.0 0
M  V30 END ATOM
M  V30 BEGIN BOND
M  V30 1 2 1 2
M  V30 2 1 2 3
M  V30 3 1 2 4
M  V30 4 1 3 5
M  V30 5 1 4 6
M  V30 6 1 4 7
M  V30 7 1 5 8
M  V30 8 1 6 9
M  V30 9 1 8 10
M  V30 10 1 10 11
M  V30 11 1 11 12
M  V30 12 2 12 13
M  V30 13 1 12 14
M  V30 14 1 13 15
M  V30 15 2 14 16
M  V30 16 1 14 17
M  V30 17 2 15 18
M  V30 18 1 15 19
M  V30 19 1 17 20
M  V30 20 1 17 21
M  V30 21 1 19 22
M  V30 22 2 22 23
M  V30 23 1 22 24
M  V30 24 1 23 25
M  V30 25 2 24 26
M  V30 26 2 25 27
M  V30 27 1 25 28
M  V30 28 1 27 29
M  V30 29 1 28 30
M  V30 30 1 29 31
M  V30 31 1 31 32
M  V30 32 1 7 9
M  V30 33 1 16 18
M  V30 34 1 20 21
M  V30 35 1 26 27
M  V30 36 1 30 31
M  V30 END BOND
M  V30 END CTAB
M  END
>  <Molecule Name>
Compound 628

>  <Molecule Name 2>
Compound 628

>  <Compound ID>
207

>  <Name>
MRT68921

>  <Uniprot>
Q96GD4

>  <Target>
AURKB

>  <Smiles>
CN1CCC2=CC(NC3=NC=C(C4CC4)C(NCCCNC(=O)C4CCC4)=N3)=CC=C2C1

>  <Kd (nM)>


>  <Assay (Kd)>


>  <Ki (nM)>


>  <Assay (Ki)>


>  <IC50 (nM)>


>  <Assay (IC50)>


>  <EC50 (nM)>


>  <Assay (EC50)>


>  <Article DOI>
10.1016/j.cell.2020.10.038

>  <Molecular Weight>
434.588

>  <Exact Mass>
434.2794097

>  <XLogP3>
4.4

>  <Heavy Atom Count>
32

>  <Ring Count>
5

>  <Hydrogen Bond Acceptor Count>
6

>  <Hydrogen Bond Donor Count>
3

>  <Rotatable Bond Count>
9

>  <Topological Polar Surface Area>
82.18

>  <Molecular Formula>
C25H34N6O

>  <InChI>
InChI=1S/C25H34N6O/c1-31-13-10-19-14-21(9-8-20(19)16-31)29-25-28-15-22(17-6-7-17)23(30-25)26-11-3-12-27-24(32)18-4-2-5-18/h8-9,14-15,17-18H,2-7,10-13,16H2,1H3,(H,27,32)(H2,26,28,29,30)

>  <InChI Key>
KKISLZKMBSCLSS-UHFFFAOYSA-N

>  <BindingDB>
50503137

>  <PubChem>
59225335

>  <ChEMBL>
CHEMBL4516990

$$$$
207
Actelion Java MolfileCreator 2.0

  0  0  0  0  0  0              0 V3000
M  V30 BEGIN CTAB
M  V30 COUNTS 32 36 0 0 0
M  V30 BEGIN ATOM
M  V30 1 O 6.0621 0.0 0.0 0
M  V30 2 C 5.1961 -0.5 0.0 0
M  V30 3 N 4.3301 0.0 0.0 0
M  V30 4 C 5.1961 -1.4999 0.0 0
M  V30 5 C 3.4641 -0.5 0.0 0
M  V30 6 C 4.489 -2.2071 0.0 0
M  V30 7 C 5.9032 -2.2071 0.0 0
M  V30 8 C 2.598 0.0 0.0 0
M  V30 9 C 5.1961 -2.9142 0.0 0
M  V30 10 C 1.732 -0.5 0.0 0
M  V30 11 N 0.866 0.0 0.0 0
M  V30 12 C 0.0 -0.5 0.0 0
M  V30 13 N -0.866 0.0 0.0 0
M  V30 14 C 0.0 -1.4999 0.0 0
M  V30 15 C -1.732 -0.4999 0.0 0
M  V30 16 C -0.866 -1.9999 0.0 0
M  V30 17 C 0.866 -2.0 0.0 0
M  V30 18 N -1.732 -1.4999 0.0 0
M  V30 19 N -2.598 0.0 0.0 0
M  V30 20 C 1.366 -2.866 0.0 0
M  V30 21 C 1.866 -2.0 0.0 0
M  V30 22 C -3.4641 -0.4999 0.0 0
M  V30 23 C -4.3301 0.0 0.0 0
M  V30 24 C -3.4641 -1.4999 0.0 0
M  V30 25 C -5.1961 -0.4999 0.0 0
M  V30 26 C -4.3301 -1.9999 0.0 0
M  V30 27 C -5.1961 -1.4999 0.0 0
M  V30 28 C -6.0621 0.0 0.0 0
M  V30 29 C -6.0621 -1.9999 0.0 0
M  V30 30 C -6.9282 -0.4999 0.0 0
M  V30 31 N -6.9282 -1.4999 0.0 0
M  V30 32 C -7.7942 -1.9999 0.0 0
M  V30 END ATOM
M  V30 BEGIN BOND
M  V30 1 2 1 2
M  V30 2 1 2 3
M  V30 3 1 2 4
M  V30 4 1 3 5
M  V30 5 1 4 6
M  V30 6 1 4 7
M  V30 7 1 5 8
M  V30 8 1 6 9
M  V30 9 1 8 10
M  V30 10 1 10 11
M  V30 11 1 11 12
M  V30 12 2 12 13
M  V30 13 1 12 14
M  V30 14 1 13 15
M  V30 15 2 14 16
M  V30 16 1 14 17
M  V30 17 2 15 18
M  V30 18 1 15 19
M  V30 19 1 17 20
M  V30 20 1 17 21
M  V30 21 1 19 22
M  V30 22 2 22 23
M  V30 23 1 22 24
M  V30 24 1 23 25
M  V30 25 2 24 26
M  V30 26 2 25 27
M  V30 27 1 25 28
M  V30 28 1 27 29
M  V30 29 1 28 30
M  V30 30 1 29 31
M  V30 31 1 31 32
M  V30 32 1 7 9
M  V30 33 1 16 18
M  V30 34 1 20 21
M  V30 35 1 26 27
M  V30 36 1 30 31
M  V30 END BOND
M  V30 END CTAB
M  END
>  <Molecule Name>
Compound 629

>  <Molecule Name 2>
Compound 629

>  <Compound ID>
207

>  <Name>
MRT68921

>  <Uniprot>
Q9NSY1

>  <Target>
BMP2K

>  <Smiles>
CN1CCC2=CC(NC3=NC=C(C4CC4)C(NCCCNC(=O)C4CCC4)=N3)=CC=C2C1

>  <Kd (nM)>


>  <Assay (Kd)>


>  <Ki (nM)>


>  <Assay (Ki)>


>  <IC50 (nM)>


>  <Assay (IC50)>


>  <EC50 (nM)>


>  <Assay (EC50)>


>  <Article DOI>
10.1016/j.cell.2020.10.038

>  <Molecular Weight>
434.588

>  <Exact Mass>
434.2794097

>  <XLogP3>
4.4

>  <Heavy Atom Count>
32

>  <Ring Count>
5

>  <Hydrogen Bond Acceptor Count>
6

>  <Hydrogen Bond Donor Count>
3

>  <Rotatable Bond Count>
9

>  <Topological Polar Surface Area>
82.18

>  <Molecular Formula>
C25H34N6O

>  <InChI>
InChI=1S/C25H34N6O/c1-31-13-10-19-14-21(9-8-20(19)16-31)29-25-28-15-22(17-6-7-17)23(30-25)26-11-3-12-27-24(32)18-4-2-5-18/h8-9,14-15,17-18H,2-7,10-13,16H2,1H3,(H,27,32)(H2,26,28,29,30)

>  <InChI Key>
KKISLZKMBSCLSS-UHFFFAOYSA-N

>  <BindingDB>
50503137

>  <PubChem>
59225335

>  <ChEMBL>
CHEMBL4516990

$$$$
207
Actelion Java MolfileCreator 2.0

  0  0  0  0  0  0              0 V3000
M  V30 BEGIN CTAB
M  V30 COUNTS 32 36 0 0 0
M  V30 BEGIN ATOM
M  V30 1 O 6.0621 0.0 0.0 0
M  V30 2 C 5.1961 -0.5 0.0 0
M  V30 3 N 4.3301 0.0 0.0 0
M  V30 4 C 5.1961 -1.4999 0.0 0
M  V30 5 C 3.4641 -0.5 0.0 0
M  V30 6 C 4.489 -2.2071 0.0 0
M  V30 7 C 5.9032 -2.2071 0.0 0
M  V30 8 C 2.598 0.0 0.0 0
M  V30 9 C 5.1961 -2.9142 0.0 0
M  V30 10 C 1.732 -0.5 0.0 0
M  V30 11 N 0.866 0.0 0.0 0
M  V30 12 C 0.0 -0.5 0.0 0
M  V30 13 N -0.866 0.0 0.0 0
M  V30 14 C 0.0 -1.4999 0.0 0
M  V30 15 C -1.732 -0.4999 0.0 0
M  V30 16 C -0.866 -1.9999 0.0 0
M  V30 17 C 0.866 -2.0 0.0 0
M  V30 18 N -1.732 -1.4999 0.0 0
M  V30 19 N -2.598 0.0 0.0 0
M  V30 20 C 1.366 -2.866 0.0 0
M  V30 21 C 1.866 -2.0 0.0 0
M  V30 22 C -3.4641 -0.4999 0.0 0
M  V30 23 C -4.3301 0.0 0.0 0
M  V30 24 C -3.4641 -1.4999 0.0 0
M  V30 25 C -5.1961 -0.4999 0.0 0
M  V30 26 C -4.3301 -1.9999 0.0 0
M  V30 27 C -5.1961 -1.4999 0.0 0
M  V30 28 C -6.0621 0.0 0.0 0
M  V30 29 C -6.0621 -1.9999 0.0 0
M  V30 30 C -6.9282 -0.4999 0.0 0
M  V30 31 N -6.9282 -1.4999 0.0 0
M  V30 32 C -7.7942 -1.9999 0.0 0
M  V30 END ATOM
M  V30 BEGIN BOND
M  V30 1 2 1 2
M  V30 2 1 2 3
M  V30 3 1 2 4
M  V30 4 1 3 5
M  V30 5 1 4 6
M  V30 6 1 4 7
M  V30 7 1 5 8
M  V30 8 1 6 9
M  V30 9 1 8 10
M  V30 10 1 10 11
M  V30 11 1 11 12
M  V30 12 2 12 13
M  V30 13 1 12 14
M  V30 14 1 13 15
M  V30 15 2 14 16
M  V30 16 1 14 17
M  V30 17 2 15 18
M  V30 18 1 15 19
M  V30 19 1 17 20
M  V30 20 1 17 21
M  V30 21 1 19 22
M  V30 22 2 22 23
M  V30 23 1 22 24
M  V30 24 1 23 25
M  V30 25 2 24 26
M  V30 26 2 25 27
M  V30 27 1 25 28
M  V30 28 1 27 29
M  V30 29 1 28 30
M  V30 30 1 29 31
M  V30 31 1 31 32
M  V30 32 1 7 9
M  V30 33 1 16 18
M  V30 34 1 20 21
M  V30 35 1 26 27
M  V30 36 1 30 31
M  V30 END BOND
M  V30 END CTAB
M  END
>  <Molecule Name>
Compound 630

>  <Molecule Name 2>
Compound 630

>  <Compound ID>
207

>  <Name>
MRT68921

>  <Uniprot>
Q15131

>  <Target>
CDK10

>  <Smiles>
CN1CCC2=CC(NC3=NC=C(C4CC4)C(NCCCNC(=O)C4CCC4)=N3)=CC=C2C1

>  <Kd (nM)>


>  <Assay (Kd)>


>  <Ki (nM)>


>  <Assay (Ki)>


>  <IC50 (nM)>


>  <Assay (IC50)>


>  <EC50 (nM)>


>  <Assay (EC50)>


>  <Article DOI>
10.1016/j.cell.2020.10.038

>  <Molecular Weight>
434.588

>  <Exact Mass>
434.2794097

>  <XLogP3>
4.4

>  <Heavy Atom Count>
32

>  <Ring Count>
5

>  <Hydrogen Bond Acceptor Count>
6

>  <Hydrogen Bond Donor Count>
3

>  <Rotatable Bond Count>
9

>  <Topological Polar Surface Area>
82.18

>  <Molecular Formula>
C25H34N6O

>  <InChI>
InChI=1S/C25H34N6O/c1-31-13-10-19-14-21(9-8-20(19)16-31)29-25-28-15-22(17-6-7-17)23(30-25)26-11-3-12-27-24(32)18-4-2-5-18/h8-9,14-15,17-18H,2-7,10-13,16H2,1H3,(H,27,32)(H2,26,28,29,30)

>  <InChI Key>
KKISLZKMBSCLSS-UHFFFAOYSA-N

>  <BindingDB>
50503137

>  <PubChem>
59225335

>  <ChEMBL>
CHEMBL4516990

$$$$
207
Actelion Java MolfileCreator 2.0

  0  0  0  0  0  0              0 V3000
M  V30 BEGIN CTAB
M  V30 COUNTS 32 36 0 0 0
M  V30 BEGIN ATOM
M  V30 1 O 6.0621 0.0 0.0 0
M  V30 2 C 5.1961 -0.5 0.0 0
M  V30 3 N 4.3301 0.0 0.0 0
M  V30 4 C 5.1961 -1.4999 0.0 0
M  V30 5 C 3.4641 -0.5 0.0 0
M  V30 6 C 4.489 -2.2071 0.0 0
M  V30 7 C 5.9032 -2.2071 0.0 0
M  V30 8 C 2.598 0.0 0.0 0
M  V30 9 C 5.1961 -2.9142 0.0 0
M  V30 10 C 1.732 -0.5 0.0 0
M  V30 11 N 0.866 0.0 0.0 0
M  V30 12 C 0.0 -0.5 0.0 0
M  V30 13 N -0.866 0.0 0.0 0
M  V30 14 C 0.0 -1.4999 0.0 0
M  V30 15 C -1.732 -0.4999 0.0 0
M  V30 16 C -0.866 -1.9999 0.0 0
M  V30 17 C 0.866 -2.0 0.0 0
M  V30 18 N -1.732 -1.4999 0.0 0
M  V30 19 N -2.598 0.0 0.0 0
M  V30 20 C 1.366 -2.866 0.0 0
M  V30 21 C 1.866 -2.0 0.0 0
M  V30 22 C -3.4641 -0.4999 0.0 0
M  V30 23 C -4.3301 0.0 0.0 0
M  V30 24 C -3.4641 -1.4999 0.0 0
M  V30 25 C -5.1961 -0.4999 0.0 0
M  V30 26 C -4.3301 -1.9999 0.0 0
M  V30 27 C -5.1961 -1.4999 0.0 0
M  V30 28 C -6.0621 0.0 0.0 0
M  V30 29 C -6.0621 -1.9999 0.0 0
M  V30 30 C -6.9282 -0.4999 0.0 0
M  V30 31 N -6.9282 -1.4999 0.0 0
M  V30 32 C -7.7942 -1.9999 0.0 0
M  V30 END ATOM
M  V30 BEGIN BOND
M  V30 1 2 1 2
M  V30 2 1 2 3
M  V30 3 1 2 4
M  V30 4 1 3 5
M  V30 5 1 4 6
M  V30 6 1 4 7
M  V30 7 1 5 8
M  V30 8 1 6 9
M  V30 9 1 8 10
M  V30 10 1 10 11
M  V30 11 1 11 12
M  V30 12 2 12 13
M  V30 13 1 12 14
M  V30 14 1 13 15
M  V30 15 2 14 16
M  V30 16 1 14 17
M  V30 17 2 15 18
M  V30 18 1 15 19
M  V30 19 1 17 20
M  V30 20 1 17 21
M  V30 21 1 19 22
M  V30 22 2 22 23
M  V30 23 1 22 24
M  V30 24 1 23 25
M  V30 25 2 24 26
M  V30 26 2 25 27
M  V30 27 1 25 28
M  V30 28 1 27 29
M  V30 29 1 28 30
M  V30 30 1 29 31
M  V30 31 1 31 32
M  V30 32 1 7 9
M  V30 33 1 16 18
M  V30 34 1 20 21
M  V30 35 1 26 27
M  V30 36 1 30 31
M  V30 END BOND
M  V30 END CTAB
M  END
>  <Molecule Name>
Compound 631

>  <Molecule Name 2>
Compound 631

>  <Compound ID>
207

>  <Name>
MRT68921

>  <Uniprot>
P50750

>  <Target>
CDK9

>  <Smiles>
CN1CCC2=CC(NC3=NC=C(C4CC4)C(NCCCNC(=O)C4CCC4)=N3)=CC=C2C1

>  <Kd (nM)>


>  <Assay (Kd)>


>  <Ki (nM)>


>  <Assay (Ki)>


>  <IC50 (nM)>


>  <Assay (IC50)>


>  <EC50 (nM)>


>  <Assay (EC50)>


>  <Article DOI>
10.1016/j.cell.2020.10.038

>  <Molecular Weight>
434.588

>  <Exact Mass>
434.2794097

>  <XLogP3>
4.4

>  <Heavy Atom Count>
32

>  <Ring Count>
5

>  <Hydrogen Bond Acceptor Count>
6

>  <Hydrogen Bond Donor Count>
3

>  <Rotatable Bond Count>
9

>  <Topological Polar Surface Area>
82.18

>  <Molecular Formula>
C25H34N6O

>  <InChI>
InChI=1S/C25H34N6O/c1-31-13-10-19-14-21(9-8-20(19)16-31)29-25-28-15-22(17-6-7-17)23(30-25)26-11-3-12-27-24(32)18-4-2-5-18/h8-9,14-15,17-18H,2-7,10-13,16H2,1H3,(H,27,32)(H2,26,28,29,30)

>  <InChI Key>
KKISLZKMBSCLSS-UHFFFAOYSA-N

>  <BindingDB>
50503137

>  <PubChem>
59225335

>  <ChEMBL>
CHEMBL4516990

$$$$
207
Actelion Java MolfileCreator 2.0

  0  0  0  0  0  0              0 V3000
M  V30 BEGIN CTAB
M  V30 COUNTS 32 36 0 0 0
M  V30 BEGIN ATOM
M  V30 1 O 6.0621 0.0 0.0 0
M  V30 2 C 5.1961 -0.5 0.0 0
M  V30 3 N 4.3301 0.0 0.0 0
M  V30 4 C 5.1961 -1.4999 0.0 0
M  V30 5 C 3.4641 -0.5 0.0 0
M  V30 6 C 4.489 -2.2071 0.0 0
M  V30 7 C 5.9032 -2.2071 0.0 0
M  V30 8 C 2.598 0.0 0.0 0
M  V30 9 C 5.1961 -2.9142 0.0 0
M  V30 10 C 1.732 -0.5 0.0 0
M  V30 11 N 0.866 0.0 0.0 0
M  V30 12 C 0.0 -0.5 0.0 0
M  V30 13 N -0.866 0.0 0.0 0
M  V30 14 C 0.0 -1.4999 0.0 0
M  V30 15 C -1.732 -0.4999 0.0 0
M  V30 16 C -0.866 -1.9999 0.0 0
M  V30 17 C 0.866 -2.0 0.0 0
M  V30 18 N -1.732 -1.4999 0.0 0
M  V30 19 N -2.598 0.0 0.0 0
M  V30 20 C 1.366 -2.866 0.0 0
M  V30 21 C 1.866 -2.0 0.0 0
M  V30 22 C -3.4641 -0.4999 0.0 0
M  V30 23 C -4.3301 0.0 0.0 0
M  V30 24 C -3.4641 -1.4999 0.0 0
M  V30 25 C -5.1961 -0.4999 0.0 0
M  V30 26 C -4.3301 -1.9999 0.0 0
M  V30 27 C -5.1961 -1.4999 0.0 0
M  V30 28 C -6.0621 0.0 0.0 0
M  V30 29 C -6.0621 -1.9999 0.0 0
M  V30 30 C -6.9282 -0.4999 0.0 0
M  V30 31 N -6.9282 -1.4999 0.0 0
M  V30 32 C -7.7942 -1.9999 0.0 0
M  V30 END ATOM
M  V30 BEGIN BOND
M  V30 1 2 1 2
M  V30 2 1 2 3
M  V30 3 1 2 4
M  V30 4 1 3 5
M  V30 5 1 4 6
M  V30 6 1 4 7
M  V30 7 1 5 8
M  V30 8 1 6 9
M  V30 9 1 8 10
M  V30 10 1 10 11
M  V30 11 1 11 12
M  V30 12 2 12 13
M  V30 13 1 12 14
M  V30 14 1 13 15
M  V30 15 2 14 16
M  V30 16 1 14 17
M  V30 17 2 15 18
M  V30 18 1 15 19
M  V30 19 1 17 20
M  V30 20 1 17 21
M  V30 21 1 19 22
M  V30 22 2 22 23
M  V30 23 1 22 24
M  V30 24 1 23 25
M  V30 25 2 24 26
M  V30 26 2 25 27
M  V30 27 1 25 28
M  V30 28 1 27 29
M  V30 29 1 28 30
M  V30 30 1 29 31
M  V30 31 1 31 32
M  V30 32 1 7 9
M  V30 33 1 16 18
M  V30 34 1 20 21
M  V30 35 1 26 27
M  V30 36 1 30 31
M  V30 END BOND
M  V30 END CTAB
M  END
>  <Molecule Name>
Compound 632

>  <Molecule Name 2>
Compound 632

>  <Compound ID>
207

>  <Name>
MRT68921

>  <Uniprot>
O14976

>  <Target>
GAK

>  <Smiles>
CN1CCC2=CC(NC3=NC=C(C4CC4)C(NCCCNC(=O)C4CCC4)=N3)=CC=C2C1

>  <Kd (nM)>


>  <Assay (Kd)>


>  <Ki (nM)>


>  <Assay (Ki)>


>  <IC50 (nM)>


>  <Assay (IC50)>


>  <EC50 (nM)>


>  <Assay (EC50)>


>  <Article DOI>
10.1016/j.cell.2020.10.038

>  <Molecular Weight>
434.588

>  <Exact Mass>
434.2794097

>  <XLogP3>
4.4

>  <Heavy Atom Count>
32

>  <Ring Count>
5

>  <Hydrogen Bond Acceptor Count>
6

>  <Hydrogen Bond Donor Count>
3

>  <Rotatable Bond Count>
9

>  <Topological Polar Surface Area>
82.18

>  <Molecular Formula>
C25H34N6O

>  <InChI>
InChI=1S/C25H34N6O/c1-31-13-10-19-14-21(9-8-20(19)16-31)29-25-28-15-22(17-6-7-17)23(30-25)26-11-3-12-27-24(32)18-4-2-5-18/h8-9,14-15,17-18H,2-7,10-13,16H2,1H3,(H,27,32)(H2,26,28,29,30)

>  <InChI Key>
KKISLZKMBSCLSS-UHFFFAOYSA-N

>  <BindingDB>
50503137

>  <PubChem>
59225335

>  <ChEMBL>
CHEMBL4516990

$$$$
207
Actelion Java MolfileCreator 2.0

  0  0  0  0  0  0              0 V3000
M  V30 BEGIN CTAB
M  V30 COUNTS 32 36 0 0 0
M  V30 BEGIN ATOM
M  V30 1 O 6.0621 0.0 0.0 0
M  V30 2 C 5.1961 -0.5 0.0 0
M  V30 3 N 4.3301 0.0 0.0 0
M  V30 4 C 5.1961 -1.4999 0.0 0
M  V30 5 C 3.4641 -0.5 0.0 0
M  V30 6 C 4.489 -2.2071 0.0 0
M  V30 7 C 5.9032 -2.2071 0.0 0
M  V30 8 C 2.598 0.0 0.0 0
M  V30 9 C 5.1961 -2.9142 0.0 0
M  V30 10 C 1.732 -0.5 0.0 0
M  V30 11 N 0.866 0.0 0.0 0
M  V30 12 C 0.0 -0.5 0.0 0
M  V30 13 N -0.866 0.0 0.0 0
M  V30 14 C 0.0 -1.4999 0.0 0
M  V30 15 C -1.732 -0.4999 0.0 0
M  V30 16 C -0.866 -1.9999 0.0 0
M  V30 17 C 0.866 -2.0 0.0 0
M  V30 18 N -1.732 -1.4999 0.0 0
M  V30 19 N -2.598 0.0 0.0 0
M  V30 20 C 1.366 -2.866 0.0 0
M  V30 21 C 1.866 -2.0 0.0 0
M  V30 22 C -3.4641 -0.4999 0.0 0
M  V30 23 C -4.3301 0.0 0.0 0
M  V30 24 C -3.4641 -1.4999 0.0 0
M  V30 25 C -5.1961 -0.4999 0.0 0
M  V30 26 C -4.3301 -1.9999 0.0 0
M  V30 27 C -5.1961 -1.4999 0.0 0
M  V30 28 C -6.0621 0.0 0.0 0
M  V30 29 C -6.0621 -1.9999 0.0 0
M  V30 30 C -6.9282 -0.4999 0.0 0
M  V30 31 N -6.9282 -1.4999 0.0 0
M  V30 32 C -7.7942 -1.9999 0.0 0
M  V30 END ATOM
M  V30 BEGIN BOND
M  V30 1 2 1 2
M  V30 2 1 2 3
M  V30 3 1 2 4
M  V30 4 1 3 5
M  V30 5 1 4 6
M  V30 6 1 4 7
M  V30 7 1 5 8
M  V30 8 1 6 9
M  V30 9 1 8 10
M  V30 10 1 10 11
M  V30 11 1 11 12
M  V30 12 2 12 13
M  V30 13 1 12 14
M  V30 14 1 13 15
M  V30 15 2 14 16
M  V30 16 1 14 17
M  V30 17 2 15 18
M  V30 18 1 15 19
M  V30 19 1 17 20
M  V30 20 1 17 21
M  V30 21 1 19 22
M  V30 22 2 22 23
M  V30 23 1 22 24
M  V30 24 1 23 25
M  V30 25 2 24 26
M  V30 26 2 25 27
M  V30 27 1 25 28
M  V30 28 1 27 29
M  V30 29 1 28 30
M  V30 30 1 29 31
M  V30 31 1 31 32
M  V30 32 1 7 9
M  V30 33 1 16 18
M  V30 34 1 20 21
M  V30 35 1 26 27
M  V30 36 1 30 31
M  V30 END BOND
M  V30 END CTAB
M  END
>  <Molecule Name>
Compound 633

>  <Molecule Name 2>
Compound 633

>  <Compound ID>
207

>  <Name>
MRT68921

>  <Uniprot>
Q7KZI7

>  <Target>
MARK2

>  <Smiles>
CN1CCC2=CC(NC3=NC=C(C4CC4)C(NCCCNC(=O)C4CCC4)=N3)=CC=C2C1

>  <Kd (nM)>


>  <Assay (Kd)>


>  <Ki (nM)>


>  <Assay (Ki)>


>  <IC50 (nM)>


>  <Assay (IC50)>


>  <EC50 (nM)>


>  <Assay (EC50)>


>  <Article DOI>
10.1016/j.cell.2020.10.038

>  <Molecular Weight>
434.588

>  <Exact Mass>
434.2794097

>  <XLogP3>
4.4

>  <Heavy Atom Count>
32

>  <Ring Count>
5

>  <Hydrogen Bond Acceptor Count>
6

>  <Hydrogen Bond Donor Count>
3

>  <Rotatable Bond Count>
9

>  <Topological Polar Surface Area>
82.18

>  <Molecular Formula>
C25H34N6O

>  <InChI>
InChI=1S/C25H34N6O/c1-31-13-10-19-14-21(9-8-20(19)16-31)29-25-28-15-22(17-6-7-17)23(30-25)26-11-3-12-27-24(32)18-4-2-5-18/h8-9,14-15,17-18H,2-7,10-13,16H2,1H3,(H,27,32)(H2,26,28,29,30)

>  <InChI Key>
KKISLZKMBSCLSS-UHFFFAOYSA-N

>  <BindingDB>
50503137

>  <PubChem>
59225335

>  <ChEMBL>
CHEMBL4516990

$$$$
207
Actelion Java MolfileCreator 2.0

  0  0  0  0  0  0              0 V3000
M  V30 BEGIN CTAB
M  V30 COUNTS 32 36 0 0 0
M  V30 BEGIN ATOM
M  V30 1 O 6.0621 0.0 0.0 0
M  V30 2 C 5.1961 -0.5 0.0 0
M  V30 3 N 4.3301 0.0 0.0 0
M  V30 4 C 5.1961 -1.4999 0.0 0
M  V30 5 C 3.4641 -0.5 0.0 0
M  V30 6 C 4.489 -2.2071 0.0 0
M  V30 7 C 5.9032 -2.2071 0.0 0
M  V30 8 C 2.598 0.0 0.0 0
M  V30 9 C 5.1961 -2.9142 0.0 0
M  V30 10 C 1.732 -0.5 0.0 0
M  V30 11 N 0.866 0.0 0.0 0
M  V30 12 C 0.0 -0.5 0.0 0
M  V30 13 N -0.866 0.0 0.0 0
M  V30 14 C 0.0 -1.4999 0.0 0
M  V30 15 C -1.732 -0.4999 0.0 0
M  V30 16 C -0.866 -1.9999 0.0 0
M  V30 17 C 0.866 -2.0 0.0 0
M  V30 18 N -1.732 -1.4999 0.0 0
M  V30 19 N -2.598 0.0 0.0 0
M  V30 20 C 1.366 -2.866 0.0 0
M  V30 21 C 1.866 -2.0 0.0 0
M  V30 22 C -3.4641 -0.4999 0.0 0
M  V30 23 C -4.3301 0.0 0.0 0
M  V30 24 C -3.4641 -1.4999 0.0 0
M  V30 25 C -5.1961 -0.4999 0.0 0
M  V30 26 C -4.3301 -1.9999 0.0 0
M  V30 27 C -5.1961 -1.4999 0.0 0
M  V30 28 C -6.0621 0.0 0.0 0
M  V30 29 C -6.0621 -1.9999 0.0 0
M  V30 30 C -6.9282 -0.4999 0.0 0
M  V30 31 N -6.9282 -1.4999 0.0 0
M  V30 32 C -7.7942 -1.9999 0.0 0
M  V30 END ATOM
M  V30 BEGIN BOND
M  V30 1 2 1 2
M  V30 2 1 2 3
M  V30 3 1 2 4
M  V30 4 1 3 5
M  V30 5 1 4 6
M  V30 6 1 4 7
M  V30 7 1 5 8
M  V30 8 1 6 9
M  V30 9 1 8 10
M  V30 10 1 10 11
M  V30 11 1 11 12
M  V30 12 2 12 13
M  V30 13 1 12 14
M  V30 14 1 13 15
M  V30 15 2 14 16
M  V30 16 1 14 17
M  V30 17 2 15 18
M  V30 18 1 15 19
M  V30 19 1 17 20
M  V30 20 1 17 21
M  V30 21 1 19 22
M  V30 22 2 22 23
M  V30 23 1 22 24
M  V30 24 1 23 25
M  V30 25 2 24 26
M  V30 26 2 25 27
M  V30 27 1 25 28
M  V30 28 1 27 29
M  V30 29 1 28 30
M  V30 30 1 29 31
M  V30 31 1 31 32
M  V30 32 1 7 9
M  V30 33 1 16 18
M  V30 34 1 20 21
M  V30 35 1 26 27
M  V30 36 1 30 31
M  V30 END BOND
M  V30 END CTAB
M  END
>  <Molecule Name>
Compound 634

>  <Molecule Name 2>
Compound 634

>  <Compound ID>
207

>  <Name>
MRT68921

>  <Uniprot>
P27448

>  <Target>
MARK3

>  <Smiles>
CN1CCC2=CC(NC3=NC=C(C4CC4)C(NCCCNC(=O)C4CCC4)=N3)=CC=C2C1

>  <Kd (nM)>


>  <Assay (Kd)>


>  <Ki (nM)>


>  <Assay (Ki)>


>  <IC50 (nM)>


>  <Assay (IC50)>


>  <EC50 (nM)>


>  <Assay (EC50)>


>  <Article DOI>
10.1016/j.cell.2020.10.038

>  <Molecular Weight>
434.588

>  <Exact Mass>
434.2794097

>  <XLogP3>
4.4

>  <Heavy Atom Count>
32

>  <Ring Count>
5

>  <Hydrogen Bond Acceptor Count>
6

>  <Hydrogen Bond Donor Count>
3

>  <Rotatable Bond Count>
9

>  <Topological Polar Surface Area>
82.18

>  <Molecular Formula>
C25H34N6O

>  <InChI>
InChI=1S/C25H34N6O/c1-31-13-10-19-14-21(9-8-20(19)16-31)29-25-28-15-22(17-6-7-17)23(30-25)26-11-3-12-27-24(32)18-4-2-5-18/h8-9,14-15,17-18H,2-7,10-13,16H2,1H3,(H,27,32)(H2,26,28,29,30)

>  <InChI Key>
KKISLZKMBSCLSS-UHFFFAOYSA-N

>  <BindingDB>
50503137

>  <PubChem>
59225335

>  <ChEMBL>
CHEMBL4516990

$$$$
207
Actelion Java MolfileCreator 2.0

  0  0  0  0  0  0              0 V3000
M  V30 BEGIN CTAB
M  V30 COUNTS 32 36 0 0 0
M  V30 BEGIN ATOM
M  V30 1 O 6.0621 0.0 0.0 0
M  V30 2 C 5.1961 -0.5 0.0 0
M  V30 3 N 4.3301 0.0 0.0 0
M  V30 4 C 5.1961 -1.4999 0.0 0
M  V30 5 C 3.4641 -0.5 0.0 0
M  V30 6 C 4.489 -2.2071 0.0 0
M  V30 7 C 5.9032 -2.2071 0.0 0
M  V30 8 C 2.598 0.0 0.0 0
M  V30 9 C 5.1961 -2.9142 0.0 0
M  V30 10 C 1.732 -0.5 0.0 0
M  V30 11 N 0.866 0.0 0.0 0
M  V30 12 C 0.0 -0.5 0.0 0
M  V30 13 N -0.866 0.0 0.0 0
M  V30 14 C 0.0 -1.4999 0.0 0
M  V30 15 C -1.732 -0.4999 0.0 0
M  V30 16 C -0.866 -1.9999 0.0 0
M  V30 17 C 0.866 -2.0 0.0 0
M  V30 18 N -1.732 -1.4999 0.0 0
M  V30 19 N -2.598 0.0 0.0 0
M  V30 20 C 1.366 -2.866 0.0 0
M  V30 21 C 1.866 -2.0 0.0 0
M  V30 22 C -3.4641 -0.4999 0.0 0
M  V30 23 C -4.3301 0.0 0.0 0
M  V30 24 C -3.4641 -1.4999 0.0 0
M  V30 25 C -5.1961 -0.4999 0.0 0
M  V30 26 C -4.3301 -1.9999 0.0 0
M  V30 27 C -5.1961 -1.4999 0.0 0
M  V30 28 C -6.0621 0.0 0.0 0
M  V30 29 C -6.0621 -1.9999 0.0 0
M  V30 30 C -6.9282 -0.4999 0.0 0
M  V30 31 N -6.9282 -1.4999 0.0 0
M  V30 32 C -7.7942 -1.9999 0.0 0
M  V30 END ATOM
M  V30 BEGIN BOND
M  V30 1 2 1 2
M  V30 2 1 2 3
M  V30 3 1 2 4
M  V30 4 1 3 5
M  V30 5 1 4 6
M  V30 6 1 4 7
M  V30 7 1 5 8
M  V30 8 1 6 9
M  V30 9 1 8 10
M  V30 10 1 10 11
M  V30 11 1 11 12
M  V30 12 2 12 13
M  V30 13 1 12 14
M  V30 14 1 13 15
M  V30 15 2 14 16
M  V30 16 1 14 17
M  V30 17 2 15 18
M  V30 18 1 15 19
M  V30 19 1 17 20
M  V30 20 1 17 21
M  V30 21 1 19 22
M  V30 22 2 22 23
M  V30 23 1 22 24
M  V30 24 1 23 25
M  V30 25 2 24 26
M  V30 26 2 25 27
M  V30 27 1 25 28
M  V30 28 1 27 29
M  V30 29 1 28 30
M  V30 30 1 29 31
M  V30 31 1 31 32
M  V30 32 1 7 9
M  V30 33 1 16 18
M  V30 34 1 20 21
M  V30 35 1 26 27
M  V30 36 1 30 31
M  V30 END BOND
M  V30 END CTAB
M  END
>  <Molecule Name>
Compound 635

>  <Molecule Name 2>
Compound 635

>  <Compound ID>
207

>  <Name>
MRT68921

>  <Uniprot>
Q96L34

>  <Target>
MARK4

>  <Smiles>
CN1CCC2=CC(NC3=NC=C(C4CC4)C(NCCCNC(=O)C4CCC4)=N3)=CC=C2C1

>  <Kd (nM)>


>  <Assay (Kd)>


>  <Ki (nM)>


>  <Assay (Ki)>


>  <IC50 (nM)>


>  <Assay (IC50)>


>  <EC50 (nM)>


>  <Assay (EC50)>


>  <Article DOI>
10.1016/j.cell.2020.10.038

>  <Molecular Weight>
434.588

>  <Exact Mass>
434.2794097

>  <XLogP3>
4.4

>  <Heavy Atom Count>
32

>  <Ring Count>
5

>  <Hydrogen Bond Acceptor Count>
6

>  <Hydrogen Bond Donor Count>
3

>  <Rotatable Bond Count>
9

>  <Topological Polar Surface Area>
82.18

>  <Molecular Formula>
C25H34N6O

>  <InChI>
InChI=1S/C25H34N6O/c1-31-13-10-19-14-21(9-8-20(19)16-31)29-25-28-15-22(17-6-7-17)23(30-25)26-11-3-12-27-24(32)18-4-2-5-18/h8-9,14-15,17-18H,2-7,10-13,16H2,1H3,(H,27,32)(H2,26,28,29,30)

>  <InChI Key>
KKISLZKMBSCLSS-UHFFFAOYSA-N

>  <BindingDB>
50503137

>  <PubChem>
59225335

>  <ChEMBL>
CHEMBL4516990

$$$$
207
Actelion Java MolfileCreator 2.0

  0  0  0  0  0  0              0 V3000
M  V30 BEGIN CTAB
M  V30 COUNTS 32 36 0 0 0
M  V30 BEGIN ATOM
M  V30 1 O 6.0621 0.0 0.0 0
M  V30 2 C 5.1961 -0.5 0.0 0
M  V30 3 N 4.3301 0.0 0.0 0
M  V30 4 C 5.1961 -1.4999 0.0 0
M  V30 5 C 3.4641 -0.5 0.0 0
M  V30 6 C 4.489 -2.2071 0.0 0
M  V30 7 C 5.9032 -2.2071 0.0 0
M  V30 8 C 2.598 0.0 0.0 0
M  V30 9 C 5.1961 -2.9142 0.0 0
M  V30 10 C 1.732 -0.5 0.0 0
M  V30 11 N 0.866 0.0 0.0 0
M  V30 12 C 0.0 -0.5 0.0 0
M  V30 13 N -0.866 0.0 0.0 0
M  V30 14 C 0.0 -1.4999 0.0 0
M  V30 15 C -1.732 -0.4999 0.0 0
M  V30 16 C -0.866 -1.9999 0.0 0
M  V30 17 C 0.866 -2.0 0.0 0
M  V30 18 N -1.732 -1.4999 0.0 0
M  V30 19 N -2.598 0.0 0.0 0
M  V30 20 C 1.366 -2.866 0.0 0
M  V30 21 C 1.866 -2.0 0.0 0
M  V30 22 C -3.4641 -0.4999 0.0 0
M  V30 23 C -4.3301 0.0 0.0 0
M  V30 24 C -3.4641 -1.4999 0.0 0
M  V30 25 C -5.1961 -0.4999 0.0 0
M  V30 26 C -4.3301 -1.9999 0.0 0
M  V30 27 C -5.1961 -1.4999 0.0 0
M  V30 28 C -6.0621 0.0 0.0 0
M  V30 29 C -6.0621 -1.9999 0.0 0
M  V30 30 C -6.9282 -0.4999 0.0 0
M  V30 31 N -6.9282 -1.4999 0.0 0
M  V30 32 C -7.7942 -1.9999 0.0 0
M  V30 END ATOM
M  V30 BEGIN BOND
M  V30 1 2 1 2
M  V30 2 1 2 3
M  V30 3 1 2 4
M  V30 4 1 3 5
M  V30 5 1 4 6
M  V30 6 1 4 7
M  V30 7 1 5 8
M  V30 8 1 6 9
M  V30 9 1 8 10
M  V30 10 1 10 11
M  V30 11 1 11 12
M  V30 12 2 12 13
M  V30 13 1 12 14
M  V30 14 1 13 15
M  V30 15 2 14 16
M  V30 16 1 14 17
M  V30 17 2 15 18
M  V30 18 1 15 19
M  V30 19 1 17 20
M  V30 20 1 17 21
M  V30 21 1 19 22
M  V30 22 2 22 23
M  V30 23 1 22 24
M  V30 24 1 23 25
M  V30 25 2 24 26
M  V30 26 2 25 27
M  V30 27 1 25 28
M  V30 28 1 27 29
M  V30 29 1 28 30
M  V30 30 1 29 31
M  V30 31 1 31 32
M  V30 32 1 7 9
M  V30 33 1 16 18
M  V30 34 1 20 21
M  V30 35 1 26 27
M  V30 36 1 30 31
M  V30 END BOND
M  V30 END CTAB
M  END
>  <Molecule Name>
Compound 636

>  <Molecule Name 2>
Compound 636

>  <Compound ID>
207

>  <Name>
MRT68921

>  <Uniprot>
P23443

>  <Target>
RPS6KB1

>  <Smiles>
CN1CCC2=CC(NC3=NC=C(C4CC4)C(NCCCNC(=O)C4CCC4)=N3)=CC=C2C1

>  <Kd (nM)>


>  <Assay (Kd)>


>  <Ki (nM)>


>  <Assay (Ki)>


>  <IC50 (nM)>


>  <Assay (IC50)>


>  <EC50 (nM)>


>  <Assay (EC50)>


>  <Article DOI>
10.1016/j.cell.2020.10.038

>  <Molecular Weight>
434.588

>  <Exact Mass>
434.2794097

>  <XLogP3>
4.4

>  <Heavy Atom Count>
32

>  <Ring Count>
5

>  <Hydrogen Bond Acceptor Count>
6

>  <Hydrogen Bond Donor Count>
3

>  <Rotatable Bond Count>
9

>  <Topological Polar Surface Area>
82.18

>  <Molecular Formula>
C25H34N6O

>  <InChI>
InChI=1S/C25H34N6O/c1-31-13-10-19-14-21(9-8-20(19)16-31)29-25-28-15-22(17-6-7-17)23(30-25)26-11-3-12-27-24(32)18-4-2-5-18/h8-9,14-15,17-18H,2-7,10-13,16H2,1H3,(H,27,32)(H2,26,28,29,30)

>  <InChI Key>
KKISLZKMBSCLSS-UHFFFAOYSA-N

>  <BindingDB>
50503137

>  <PubChem>
59225335

>  <ChEMBL>
CHEMBL4516990

$$$$
207
Actelion Java MolfileCreator 2.0

  0  0  0  0  0  0              0 V3000
M  V30 BEGIN CTAB
M  V30 COUNTS 32 36 0 0 0
M  V30 BEGIN ATOM
M  V30 1 O 6.0621 0.0 0.0 0
M  V30 2 C 5.1961 -0.5 0.0 0
M  V30 3 N 4.3301 0.0 0.0 0
M  V30 4 C 5.1961 -1.4999 0.0 0
M  V30 5 C 3.4641 -0.5 0.0 0
M  V30 6 C 4.489 -2.2071 0.0 0
M  V30 7 C 5.9032 -2.2071 0.0 0
M  V30 8 C 2.598 0.0 0.0 0
M  V30 9 C 5.1961 -2.9142 0.0 0
M  V30 10 C 1.732 -0.5 0.0 0
M  V30 11 N 0.866 0.0 0.0 0
M  V30 12 C 0.0 -0.5 0.0 0
M  V30 13 N -0.866 0.0 0.0 0
M  V30 14 C 0.0 -1.4999 0.0 0
M  V30 15 C -1.732 -0.4999 0.0 0
M  V30 16 C -0.866 -1.9999 0.0 0
M  V30 17 C 0.866 -2.0 0.0 0
M  V30 18 N -1.732 -1.4999 0.0 0
M  V30 19 N -2.598 0.0 0.0 0
M  V30 20 C 1.366 -2.866 0.0 0
M  V30 21 C 1.866 -2.0 0.0 0
M  V30 22 C -3.4641 -0.4999 0.0 0
M  V30 23 C -4.3301 0.0 0.0 0
M  V30 24 C -3.4641 -1.4999 0.0 0
M  V30 25 C -5.1961 -0.4999 0.0 0
M  V30 26 C -4.3301 -1.9999 0.0 0
M  V30 27 C -5.1961 -1.4999 0.0 0
M  V30 28 C -6.0621 0.0 0.0 0
M  V30 29 C -6.0621 -1.9999 0.0 0
M  V30 30 C -6.9282 -0.4999 0.0 0
M  V30 31 N -6.9282 -1.4999 0.0 0
M  V30 32 C -7.7942 -1.9999 0.0 0
M  V30 END ATOM
M  V30 BEGIN BOND
M  V30 1 2 1 2
M  V30 2 1 2 3
M  V30 3 1 2 4
M  V30 4 1 3 5
M  V30 5 1 4 6
M  V30 6 1 4 7
M  V30 7 1 5 8
M  V30 8 1 6 9
M  V30 9 1 8 10
M  V30 10 1 10 11
M  V30 11 1 11 12
M  V30 12 2 12 13
M  V30 13 1 12 14
M  V30 14 1 13 15
M  V30 15 2 14 16
M  V30 16 1 14 17
M  V30 17 2 15 18
M  V30 18 1 15 19
M  V30 19 1 17 20
M  V30 20 1 17 21
M  V30 21 1 19 22
M  V30 22 2 22 23
M  V30 23 1 22 24
M  V30 24 1 23 25
M  V30 25 2 24 26
M  V30 26 2 25 27
M  V30 27 1 25 28
M  V30 28 1 27 29
M  V30 29 1 28 30
M  V30 30 1 29 31
M  V30 31 1 31 32
M  V30 32 1 7 9
M  V30 33 1 16 18
M  V30 34 1 20 21
M  V30 35 1 26 27
M  V30 36 1 30 31
M  V30 END BOND
M  V30 END CTAB
M  END
>  <Molecule Name>
Compound 637

>  <Molecule Name 2>
Compound 637

>  <Compound ID>
207

>  <Name>
MRT68921

>  <Uniprot>
Q9H0K1

>  <Target>
SIK2

>  <Smiles>
CN1CCC2=CC(NC3=NC=C(C4CC4)C(NCCCNC(=O)C4CCC4)=N3)=CC=C2C1

>  <Kd (nM)>


>  <Assay (Kd)>


>  <Ki (nM)>


>  <Assay (Ki)>


>  <IC50 (nM)>


>  <Assay (IC50)>


>  <EC50 (nM)>


>  <Assay (EC50)>


>  <Article DOI>
10.1016/j.cell.2020.10.038

>  <Molecular Weight>
434.588

>  <Exact Mass>
434.2794097

>  <XLogP3>
4.4

>  <Heavy Atom Count>
32

>  <Ring Count>
5

>  <Hydrogen Bond Acceptor Count>
6

>  <Hydrogen Bond Donor Count>
3

>  <Rotatable Bond Count>
9

>  <Topological Polar Surface Area>
82.18

>  <Molecular Formula>
C25H34N6O

>  <InChI>
InChI=1S/C25H34N6O/c1-31-13-10-19-14-21(9-8-20(19)16-31)29-25-28-15-22(17-6-7-17)23(30-25)26-11-3-12-27-24(32)18-4-2-5-18/h8-9,14-15,17-18H,2-7,10-13,16H2,1H3,(H,27,32)(H2,26,28,29,30)

>  <InChI Key>
KKISLZKMBSCLSS-UHFFFAOYSA-N

>  <BindingDB>
50503137

>  <PubChem>
59225335

>  <ChEMBL>
CHEMBL4516990

$$$$
207
Actelion Java MolfileCreator 2.0

  0  0  0  0  0  0              0 V3000
M  V30 BEGIN CTAB
M  V30 COUNTS 32 36 0 0 0
M  V30 BEGIN ATOM
M  V30 1 O 6.0621 0.0 0.0 0
M  V30 2 C 5.1961 -0.5 0.0 0
M  V30 3 N 4.3301 0.0 0.0 0
M  V30 4 C 5.1961 -1.4999 0.0 0
M  V30 5 C 3.4641 -0.5 0.0 0
M  V30 6 C 4.489 -2.2071 0.0 0
M  V30 7 C 5.9032 -2.2071 0.0 0
M  V30 8 C 2.598 0.0 0.0 0
M  V30 9 C 5.1961 -2.9142 0.0 0
M  V30 10 C 1.732 -0.5 0.0 0
M  V30 11 N 0.866 0.0 0.0 0
M  V30 12 C 0.0 -0.5 0.0 0
M  V30 13 N -0.866 0.0 0.0 0
M  V30 14 C 0.0 -1.4999 0.0 0
M  V30 15 C -1.732 -0.4999 0.0 0
M  V30 16 C -0.866 -1.9999 0.0 0
M  V30 17 C 0.866 -2.0 0.0 0
M  V30 18 N -1.732 -1.4999 0.0 0
M  V30 19 N -2.598 0.0 0.0 0
M  V30 20 C 1.366 -2.866 0.0 0
M  V30 21 C 1.866 -2.0 0.0 0
M  V30 22 C -3.4641 -0.4999 0.0 0
M  V30 23 C -4.3301 0.0 0.0 0
M  V30 24 C -3.4641 -1.4999 0.0 0
M  V30 25 C -5.1961 -0.4999 0.0 0
M  V30 26 C -4.3301 -1.9999 0.0 0
M  V30 27 C -5.1961 -1.4999 0.0 0
M  V30 28 C -6.0621 0.0 0.0 0
M  V30 29 C -6.0621 -1.9999 0.0 0
M  V30 30 C -6.9282 -0.4999 0.0 0
M  V30 31 N -6.9282 -1.4999 0.0 0
M  V30 32 C -7.7942 -1.9999 0.0 0
M  V30 END ATOM
M  V30 BEGIN BOND
M  V30 1 2 1 2
M  V30 2 1 2 3
M  V30 3 1 2 4
M  V30 4 1 3 5
M  V30 5 1 4 6
M  V30 6 1 4 7
M  V30 7 1 5 8
M  V30 8 1 6 9
M  V30 9 1 8 10
M  V30 10 1 10 11
M  V30 11 1 11 12
M  V30 12 2 12 13
M  V30 13 1 12 14
M  V30 14 1 13 15
M  V30 15 2 14 16
M  V30 16 1 14 17
M  V30 17 2 15 18
M  V30 18 1 15 19
M  V30 19 1 17 20
M  V30 20 1 17 21
M  V30 21 1 19 22
M  V30 22 2 22 23
M  V30 23 1 22 24
M  V30 24 1 23 25
M  V30 25 2 24 26
M  V30 26 2 25 27
M  V30 27 1 25 28
M  V30 28 1 27 29
M  V30 29 1 28 30
M  V30 30 1 29 31
M  V30 31 1 31 32
M  V30 32 1 7 9
M  V30 33 1 16 18
M  V30 34 1 20 21
M  V30 35 1 26 27
M  V30 36 1 30 31
M  V30 END BOND
M  V30 END CTAB
M  END
>  <Molecule Name>
Compound 638

>  <Molecule Name 2>
Compound 638

>  <Compound ID>
207

>  <Name>
MRT68921

>  <Uniprot>
Q9Y2K2

>  <Target>
SIK3

>  <Smiles>
CN1CCC2=CC(NC3=NC=C(C4CC4)C(NCCCNC(=O)C4CCC4)=N3)=CC=C2C1

>  <Kd (nM)>


>  <Assay (Kd)>


>  <Ki (nM)>


>  <Assay (Ki)>


>  <IC50 (nM)>


>  <Assay (IC50)>


>  <EC50 (nM)>


>  <Assay (EC50)>


>  <Article DOI>
10.1016/j.cell.2020.10.038

>  <Molecular Weight>
434.588

>  <Exact Mass>
434.2794097

>  <XLogP3>
4.4

>  <Heavy Atom Count>
32

>  <Ring Count>
5

>  <Hydrogen Bond Acceptor Count>
6

>  <Hydrogen Bond Donor Count>
3

>  <Rotatable Bond Count>
9

>  <Topological Polar Surface Area>
82.18

>  <Molecular Formula>
C25H34N6O

>  <InChI>
InChI=1S/C25H34N6O/c1-31-13-10-19-14-21(9-8-20(19)16-31)29-25-28-15-22(17-6-7-17)23(30-25)26-11-3-12-27-24(32)18-4-2-5-18/h8-9,14-15,17-18H,2-7,10-13,16H2,1H3,(H,27,32)(H2,26,28,29,30)

>  <InChI Key>
KKISLZKMBSCLSS-UHFFFAOYSA-N

>  <BindingDB>
50503137

>  <PubChem>
59225335

>  <ChEMBL>
CHEMBL4516990

$$$$
207
Actelion Java MolfileCreator 2.0

  0  0  0  0  0  0              0 V3000
M  V30 BEGIN CTAB
M  V30 COUNTS 32 36 0 0 0
M  V30 BEGIN ATOM
M  V30 1 O 6.0621 0.0 0.0 0
M  V30 2 C 5.1961 -0.5 0.0 0
M  V30 3 N 4.3301 0.0 0.0 0
M  V30 4 C 5.1961 -1.4999 0.0 0
M  V30 5 C 3.4641 -0.5 0.0 0
M  V30 6 C 4.489 -2.2071 0.0 0
M  V30 7 C 5.9032 -2.2071 0.0 0
M  V30 8 C 2.598 0.0 0.0 0
M  V30 9 C 5.1961 -2.9142 0.0 0
M  V30 10 C 1.732 -0.5 0.0 0
M  V30 11 N 0.866 0.0 0.0 0
M  V30 12 C 0.0 -0.5 0.0 0
M  V30 13 N -0.866 0.0 0.0 0
M  V30 14 C 0.0 -1.4999 0.0 0
M  V30 15 C -1.732 -0.4999 0.0 0
M  V30 16 C -0.866 -1.9999 0.0 0
M  V30 17 C 0.866 -2.0 0.0 0
M  V30 18 N -1.732 -1.4999 0.0 0
M  V30 19 N -2.598 0.0 0.0 0
M  V30 20 C 1.366 -2.866 0.0 0
M  V30 21 C 1.866 -2.0 0.0 0
M  V30 22 C -3.4641 -0.4999 0.0 0
M  V30 23 C -4.3301 0.0 0.0 0
M  V30 24 C -3.4641 -1.4999 0.0 0
M  V30 25 C -5.1961 -0.4999 0.0 0
M  V30 26 C -4.3301 -1.9999 0.0 0
M  V30 27 C -5.1961 -1.4999 0.0 0
M  V30 28 C -6.0621 0.0 0.0 0
M  V30 29 C -6.0621 -1.9999 0.0 0
M  V30 30 C -6.9282 -0.4999 0.0 0
M  V30 31 N -6.9282 -1.4999 0.0 0
M  V30 32 C -7.7942 -1.9999 0.0 0
M  V30 END ATOM
M  V30 BEGIN BOND
M  V30 1 2 1 2
M  V30 2 1 2 3
M  V30 3 1 2 4
M  V30 4 1 3 5
M  V30 5 1 4 6
M  V30 6 1 4 7
M  V30 7 1 5 8
M  V30 8 1 6 9
M  V30 9 1 8 10
M  V30 10 1 10 11
M  V30 11 1 11 12
M  V30 12 2 12 13
M  V30 13 1 12 14
M  V30 14 1 13 15
M  V30 15 2 14 16
M  V30 16 1 14 17
M  V30 17 2 15 18
M  V30 18 1 15 19
M  V30 19 1 17 20
M  V30 20 1 17 21
M  V30 21 1 19 22
M  V30 22 2 22 23
M  V30 23 1 22 24
M  V30 24 1 23 25
M  V30 25 2 24 26
M  V30 26 2 25 27
M  V30 27 1 25 28
M  V30 28 1 27 29
M  V30 29 1 28 30
M  V30 30 1 29 31
M  V30 31 1 31 32
M  V30 32 1 7 9
M  V30 33 1 16 18
M  V30 34 1 20 21
M  V30 35 1 26 27
M  V30 36 1 30 31
M  V30 END BOND
M  V30 END CTAB
M  END
>  <Molecule Name>
Compound 639

>  <Molecule Name 2>
Compound 639

>  <Compound ID>
207

>  <Name>
MRT68921

>  <Uniprot>
Q9NRH2

>  <Target>
SNRK

>  <Smiles>
CN1CCC2=CC(NC3=NC=C(C4CC4)C(NCCCNC(=O)C4CCC4)=N3)=CC=C2C1

>  <Kd (nM)>


>  <Assay (Kd)>


>  <Ki (nM)>


>  <Assay (Ki)>


>  <IC50 (nM)>


>  <Assay (IC50)>


>  <EC50 (nM)>


>  <Assay (EC50)>


>  <Article DOI>
10.1016/j.cell.2020.10.038

>  <Molecular Weight>
434.588

>  <Exact Mass>
434.2794097

>  <XLogP3>
4.4

>  <Heavy Atom Count>
32

>  <Ring Count>
5

>  <Hydrogen Bond Acceptor Count>
6

>  <Hydrogen Bond Donor Count>
3

>  <Rotatable Bond Count>
9

>  <Topological Polar Surface Area>
82.18

>  <Molecular Formula>
C25H34N6O

>  <InChI>
InChI=1S/C25H34N6O/c1-31-13-10-19-14-21(9-8-20(19)16-31)29-25-28-15-22(17-6-7-17)23(30-25)26-11-3-12-27-24(32)18-4-2-5-18/h8-9,14-15,17-18H,2-7,10-13,16H2,1H3,(H,27,32)(H2,26,28,29,30)

>  <InChI Key>
KKISLZKMBSCLSS-UHFFFAOYSA-N

>  <BindingDB>
50503137

>  <PubChem>
59225335

>  <ChEMBL>
CHEMBL4516990

$$$$
207
Actelion Java MolfileCreator 2.0

  0  0  0  0  0  0              0 V3000
M  V30 BEGIN CTAB
M  V30 COUNTS 32 36 0 0 0
M  V30 BEGIN ATOM
M  V30 1 O 6.0621 0.0 0.0 0
M  V30 2 C 5.1961 -0.5 0.0 0
M  V30 3 N 4.3301 0.0 0.0 0
M  V30 4 C 5.1961 -1.4999 0.0 0
M  V30 5 C 3.4641 -0.5 0.0 0
M  V30 6 C 4.489 -2.2071 0.0 0
M  V30 7 C 5.9032 -2.2071 0.0 0
M  V30 8 C 2.598 0.0 0.0 0
M  V30 9 C 5.1961 -2.9142 0.0 0
M  V30 10 C 1.732 -0.5 0.0 0
M  V30 11 N 0.866 0.0 0.0 0
M  V30 12 C 0.0 -0.5 0.0 0
M  V30 13 N -0.866 0.0 0.0 0
M  V30 14 C 0.0 -1.4999 0.0 0
M  V30 15 C -1.732 -0.4999 0.0 0
M  V30 16 C -0.866 -1.9999 0.0 0
M  V30 17 C 0.866 -2.0 0.0 0
M  V30 18 N -1.732 -1.4999 0.0 0
M  V30 19 N -2.598 0.0 0.0 0
M  V30 20 C 1.366 -2.866 0.0 0
M  V30 21 C 1.866 -2.0 0.0 0
M  V30 22 C -3.4641 -0.4999 0.0 0
M  V30 23 C -4.3301 0.0 0.0 0
M  V30 24 C -3.4641 -1.4999 0.0 0
M  V30 25 C -5.1961 -0.4999 0.0 0
M  V30 26 C -4.3301 -1.9999 0.0 0
M  V30 27 C -5.1961 -1.4999 0.0 0
M  V30 28 C -6.0621 0.0 0.0 0
M  V30 29 C -6.0621 -1.9999 0.0 0
M  V30 30 C -6.9282 -0.4999 0.0 0
M  V30 31 N -6.9282 -1.4999 0.0 0
M  V30 32 C -7.7942 -1.9999 0.0 0
M  V30 END ATOM
M  V30 BEGIN BOND
M  V30 1 2 1 2
M  V30 2 1 2 3
M  V30 3 1 2 4
M  V30 4 1 3 5
M  V30 5 1 4 6
M  V30 6 1 4 7
M  V30 7 1 5 8
M  V30 8 1 6 9
M  V30 9 1 8 10
M  V30 10 1 10 11
M  V30 11 1 11 12
M  V30 12 2 12 13
M  V30 13 1 12 14
M  V30 14 1 13 15
M  V30 15 2 14 16
M  V30 16 1 14 17
M  V30 17 2 15 18
M  V30 18 1 15 19
M  V30 19 1 17 20
M  V30 20 1 17 21
M  V30 21 1 19 22
M  V30 22 2 22 23
M  V30 23 1 22 24
M  V30 24 1 23 25
M  V30 25 2 24 26
M  V30 26 2 25 27
M  V30 27 1 25 28
M  V30 28 1 27 29
M  V30 29 1 28 30
M  V30 30 1 29 31
M  V30 31 1 31 32
M  V30 32 1 7 9
M  V30 33 1 16 18
M  V30 34 1 20 21
M  V30 35 1 26 27
M  V30 36 1 30 31
M  V30 END BOND
M  V30 END CTAB
M  END
>  <Molecule Name>
Compound 640

>  <Molecule Name 2>
Compound 640

>  <Compound ID>
207

>  <Name>
MRT68921

>  <Uniprot>
Q9UEE5

>  <Target>
STK17A

>  <Smiles>
CN1CCC2=CC(NC3=NC=C(C4CC4)C(NCCCNC(=O)C4CCC4)=N3)=CC=C2C1

>  <Kd (nM)>


>  <Assay (Kd)>


>  <Ki (nM)>


>  <Assay (Ki)>


>  <IC50 (nM)>


>  <Assay (IC50)>


>  <EC50 (nM)>


>  <Assay (EC50)>


>  <Article DOI>
10.1016/j.cell.2020.10.038

>  <Molecular Weight>
434.588

>  <Exact Mass>
434.2794097

>  <XLogP3>
4.4

>  <Heavy Atom Count>
32

>  <Ring Count>
5

>  <Hydrogen Bond Acceptor Count>
6

>  <Hydrogen Bond Donor Count>
3

>  <Rotatable Bond Count>
9

>  <Topological Polar Surface Area>
82.18

>  <Molecular Formula>
C25H34N6O

>  <InChI>
InChI=1S/C25H34N6O/c1-31-13-10-19-14-21(9-8-20(19)16-31)29-25-28-15-22(17-6-7-17)23(30-25)26-11-3-12-27-24(32)18-4-2-5-18/h8-9,14-15,17-18H,2-7,10-13,16H2,1H3,(H,27,32)(H2,26,28,29,30)

>  <InChI Key>
KKISLZKMBSCLSS-UHFFFAOYSA-N

>  <BindingDB>
50503137

>  <PubChem>
59225335

>  <ChEMBL>
CHEMBL4516990

$$$$
207
Actelion Java MolfileCreator 2.0

  0  0  0  0  0  0              0 V3000
M  V30 BEGIN CTAB
M  V30 COUNTS 32 36 0 0 0
M  V30 BEGIN ATOM
M  V30 1 O 6.0621 0.0 0.0 0
M  V30 2 C 5.1961 -0.5 0.0 0
M  V30 3 N 4.3301 0.0 0.0 0
M  V30 4 C 5.1961 -1.4999 0.0 0
M  V30 5 C 3.4641 -0.5 0.0 0
M  V30 6 C 4.489 -2.2071 0.0 0
M  V30 7 C 5.9032 -2.2071 0.0 0
M  V30 8 C 2.598 0.0 0.0 0
M  V30 9 C 5.1961 -2.9142 0.0 0
M  V30 10 C 1.732 -0.5 0.0 0
M  V30 11 N 0.866 0.0 0.0 0
M  V30 12 C 0.0 -0.5 0.0 0
M  V30 13 N -0.866 0.0 0.0 0
M  V30 14 C 0.0 -1.4999 0.0 0
M  V30 15 C -1.732 -0.4999 0.0 0
M  V30 16 C -0.866 -1.9999 0.0 0
M  V30 17 C 0.866 -2.0 0.0 0
M  V30 18 N -1.732 -1.4999 0.0 0
M  V30 19 N -2.598 0.0 0.0 0
M  V30 20 C 1.366 -2.866 0.0 0
M  V30 21 C 1.866 -2.0 0.0 0
M  V30 22 C -3.4641 -0.4999 0.0 0
M  V30 23 C -4.3301 0.0 0.0 0
M  V30 24 C -3.4641 -1.4999 0.0 0
M  V30 25 C -5.1961 -0.4999 0.0 0
M  V30 26 C -4.3301 -1.9999 0.0 0
M  V30 27 C -5.1961 -1.4999 0.0 0
M  V30 28 C -6.0621 0.0 0.0 0
M  V30 29 C -6.0621 -1.9999 0.0 0
M  V30 30 C -6.9282 -0.4999 0.0 0
M  V30 31 N -6.9282 -1.4999 0.0 0
M  V30 32 C -7.7942 -1.9999 0.0 0
M  V30 END ATOM
M  V30 BEGIN BOND
M  V30 1 2 1 2
M  V30 2 1 2 3
M  V30 3 1 2 4
M  V30 4 1 3 5
M  V30 5 1 4 6
M  V30 6 1 4 7
M  V30 7 1 5 8
M  V30 8 1 6 9
M  V30 9 1 8 10
M  V30 10 1 10 11
M  V30 11 1 11 12
M  V30 12 2 12 13
M  V30 13 1 12 14
M  V30 14 1 13 15
M  V30 15 2 14 16
M  V30 16 1 14 17
M  V30 17 2 15 18
M  V30 18 1 15 19
M  V30 19 1 17 20
M  V30 20 1 17 21
M  V30 21 1 19 22
M  V30 22 2 22 23
M  V30 23 1 22 24
M  V30 24 1 23 25
M  V30 25 2 24 26
M  V30 26 2 25 27
M  V30 27 1 25 28
M  V30 28 1 27 29
M  V30 29 1 28 30
M  V30 30 1 29 31
M  V30 31 1 31 32
M  V30 32 1 7 9
M  V30 33 1 16 18
M  V30 34 1 20 21
M  V30 35 1 26 27
M  V30 36 1 30 31
M  V30 END BOND
M  V30 END CTAB
M  END
>  <Molecule Name>
Compound 641

>  <Molecule Name 2>
Compound 641

>  <Compound ID>
207

>  <Name>
MRT68921

>  <Uniprot>
O94768

>  <Target>
STK17B

>  <Smiles>
CN1CCC2=CC(NC3=NC=C(C4CC4)C(NCCCNC(=O)C4CCC4)=N3)=CC=C2C1

>  <Kd (nM)>


>  <Assay (Kd)>


>  <Ki (nM)>


>  <Assay (Ki)>


>  <IC50 (nM)>


>  <Assay (IC50)>


>  <EC50 (nM)>


>  <Assay (EC50)>


>  <Article DOI>
10.1016/j.cell.2020.10.038

>  <Molecular Weight>
434.588

>  <Exact Mass>
434.2794097

>  <XLogP3>
4.4

>  <Heavy Atom Count>
32

>  <Ring Count>
5

>  <Hydrogen Bond Acceptor Count>
6

>  <Hydrogen Bond Donor Count>
3

>  <Rotatable Bond Count>
9

>  <Topological Polar Surface Area>
82.18

>  <Molecular Formula>
C25H34N6O

>  <InChI>
InChI=1S/C25H34N6O/c1-31-13-10-19-14-21(9-8-20(19)16-31)29-25-28-15-22(17-6-7-17)23(30-25)26-11-3-12-27-24(32)18-4-2-5-18/h8-9,14-15,17-18H,2-7,10-13,16H2,1H3,(H,27,32)(H2,26,28,29,30)

>  <InChI Key>
KKISLZKMBSCLSS-UHFFFAOYSA-N

>  <BindingDB>
50503137

>  <PubChem>
59225335

>  <ChEMBL>
CHEMBL4516990

$$$$
207
Actelion Java MolfileCreator 2.0

  0  0  0  0  0  0              0 V3000
M  V30 BEGIN CTAB
M  V30 COUNTS 32 36 0 0 0
M  V30 BEGIN ATOM
M  V30 1 O 6.0621 0.0 0.0 0
M  V30 2 C 5.1961 -0.5 0.0 0
M  V30 3 N 4.3301 0.0 0.0 0
M  V30 4 C 5.1961 -1.4999 0.0 0
M  V30 5 C 3.4641 -0.5 0.0 0
M  V30 6 C 4.489 -2.2071 0.0 0
M  V30 7 C 5.9032 -2.2071 0.0 0
M  V30 8 C 2.598 0.0 0.0 0
M  V30 9 C 5.1961 -2.9142 0.0 0
M  V30 10 C 1.732 -0.5 0.0 0
M  V30 11 N 0.866 0.0 0.0 0
M  V30 12 C 0.0 -0.5 0.0 0
M  V30 13 N -0.866 0.0 0.0 0
M  V30 14 C 0.0 -1.4999 0.0 0
M  V30 15 C -1.732 -0.4999 0.0 0
M  V30 16 C -0.866 -1.9999 0.0 0
M  V30 17 C 0.866 -2.0 0.0 0
M  V30 18 N -1.732 -1.4999 0.0 0
M  V30 19 N -2.598 0.0 0.0 0
M  V30 20 C 1.366 -2.866 0.0 0
M  V30 21 C 1.866 -2.0 0.0 0
M  V30 22 C -3.4641 -0.4999 0.0 0
M  V30 23 C -4.3301 0.0 0.0 0
M  V30 24 C -3.4641 -1.4999 0.0 0
M  V30 25 C -5.1961 -0.4999 0.0 0
M  V30 26 C -4.3301 -1.9999 0.0 0
M  V30 27 C -5.1961 -1.4999 0.0 0
M  V30 28 C -6.0621 0.0 0.0 0
M  V30 29 C -6.0621 -1.9999 0.0 0
M  V30 30 C -6.9282 -0.4999 0.0 0
M  V30 31 N -6.9282 -1.4999 0.0 0
M  V30 32 C -7.7942 -1.9999 0.0 0
M  V30 END ATOM
M  V30 BEGIN BOND
M  V30 1 2 1 2
M  V30 2 1 2 3
M  V30 3 1 2 4
M  V30 4 1 3 5
M  V30 5 1 4 6
M  V30 6 1 4 7
M  V30 7 1 5 8
M  V30 8 1 6 9
M  V30 9 1 8 10
M  V30 10 1 10 11
M  V30 11 1 11 12
M  V30 12 2 12 13
M  V30 13 1 12 14
M  V30 14 1 13 15
M  V30 15 2 14 16
M  V30 16 1 14 17
M  V30 17 2 15 18
M  V30 18 1 15 19
M  V30 19 1 17 20
M  V30 20 1 17 21
M  V30 21 1 19 22
M  V30 22 2 22 23
M  V30 23 1 22 24
M  V30 24 1 23 25
M  V30 25 2 24 26
M  V30 26 2 25 27
M  V30 27 1 25 28
M  V30 28 1 27 29
M  V30 29 1 28 30
M  V30 30 1 29 31
M  V30 31 1 31 32
M  V30 32 1 7 9
M  V30 33 1 16 18
M  V30 34 1 20 21
M  V30 35 1 26 27
M  V30 36 1 30 31
M  V30 END BOND
M  V30 END CTAB
M  END
>  <Molecule Name>
Compound 642

>  <Molecule Name 2>
Compound 642

>  <Compound ID>
207

>  <Name>
MRT68921

>  <Uniprot>
O75385

>  <Target>
ULK1

>  <Smiles>
CN1CCC2=CC(NC3=NC=C(C4CC4)C(NCCCNC(=O)C4CCC4)=N3)=CC=C2C1

>  <Kd (nM)>


>  <Assay (Kd)>


>  <Ki (nM)>


>  <Assay (Ki)>


>  <IC50 (nM)>
2.9

>  <Assay (IC50)>
Inhibition of wild type GST-tagged ULK1

>  <EC50 (nM)>


>  <Assay (EC50)>


>  <Article DOI>
10.1021/acs.jmedchem.7b01019

>  <Molecular Weight>
434.588

>  <Exact Mass>
434.2794097

>  <XLogP3>
4.4

>  <Heavy Atom Count>
32

>  <Ring Count>
5

>  <Hydrogen Bond Acceptor Count>
6

>  <Hydrogen Bond Donor Count>
3

>  <Rotatable Bond Count>
9

>  <Topological Polar Surface Area>
82.18

>  <Molecular Formula>
C25H34N6O

>  <InChI>
InChI=1S/C25H34N6O/c1-31-13-10-19-14-21(9-8-20(19)16-31)29-25-28-15-22(17-6-7-17)23(30-25)26-11-3-12-27-24(32)18-4-2-5-18/h8-9,14-15,17-18H,2-7,10-13,16H2,1H3,(H,27,32)(H2,26,28,29,30)

>  <InChI Key>
KKISLZKMBSCLSS-UHFFFAOYSA-N

>  <BindingDB>
50503137

>  <PubChem>
59225335

>  <ChEMBL>
CHEMBL4516990

$$$$
207
Actelion Java MolfileCreator 2.0

  0  0  0  0  0  0              0 V3000
M  V30 BEGIN CTAB
M  V30 COUNTS 32 36 0 0 0
M  V30 BEGIN ATOM
M  V30 1 O 6.0621 0.0 0.0 0
M  V30 2 C 5.1961 -0.5 0.0 0
M  V30 3 N 4.3301 0.0 0.0 0
M  V30 4 C 5.1961 -1.4999 0.0 0
M  V30 5 C 3.4641 -0.5 0.0 0
M  V30 6 C 4.489 -2.2071 0.0 0
M  V30 7 C 5.9032 -2.2071 0.0 0
M  V30 8 C 2.598 0.0 0.0 0
M  V30 9 C 5.1961 -2.9142 0.0 0
M  V30 10 C 1.732 -0.5 0.0 0
M  V30 11 N 0.866 0.0 0.0 0
M  V30 12 C 0.0 -0.5 0.0 0
M  V30 13 N -0.866 0.0 0.0 0
M  V30 14 C 0.0 -1.4999 0.0 0
M  V30 15 C -1.732 -0.4999 0.0 0
M  V30 16 C -0.866 -1.9999 0.0 0
M  V30 17 C 0.866 -2.0 0.0 0
M  V30 18 N -1.732 -1.4999 0.0 0
M  V30 19 N -2.598 0.0 0.0 0
M  V30 20 C 1.366 -2.866 0.0 0
M  V30 21 C 1.866 -2.0 0.0 0
M  V30 22 C -3.4641 -0.4999 0.0 0
M  V30 23 C -4.3301 0.0 0.0 0
M  V30 24 C -3.4641 -1.4999 0.0 0
M  V30 25 C -5.1961 -0.4999 0.0 0
M  V30 26 C -4.3301 -1.9999 0.0 0
M  V30 27 C -5.1961 -1.4999 0.0 0
M  V30 28 C -6.0621 0.0 0.0 0
M  V30 29 C -6.0621 -1.9999 0.0 0
M  V30 30 C -6.9282 -0.4999 0.0 0
M  V30 31 N -6.9282 -1.4999 0.0 0
M  V30 32 C -7.7942 -1.9999 0.0 0
M  V30 END ATOM
M  V30 BEGIN BOND
M  V30 1 2 1 2
M  V30 2 1 2 3
M  V30 3 1 2 4
M  V30 4 1 3 5
M  V30 5 1 4 6
M  V30 6 1 4 7
M  V30 7 1 5 8
M  V30 8 1 6 9
M  V30 9 1 8 10
M  V30 10 1 10 11
M  V30 11 1 11 12
M  V30 12 2 12 13
M  V30 13 1 12 14
M  V30 14 1 13 15
M  V30 15 2 14 16
M  V30 16 1 14 17
M  V30 17 2 15 18
M  V30 18 1 15 19
M  V30 19 1 17 20
M  V30 20 1 17 21
M  V30 21 1 19 22
M  V30 22 2 22 23
M  V30 23 1 22 24
M  V30 24 1 23 25
M  V30 25 2 24 26
M  V30 26 2 25 27
M  V30 27 1 25 28
M  V30 28 1 27 29
M  V30 29 1 28 30
M  V30 30 1 29 31
M  V30 31 1 31 32
M  V30 32 1 7 9
M  V30 33 1 16 18
M  V30 34 1 20 21
M  V30 35 1 26 27
M  V30 36 1 30 31
M  V30 END BOND
M  V30 END CTAB
M  END
>  <Molecule Name>
Compound 643

>  <Molecule Name 2>
Compound 643

>  <Compound ID>
207

>  <Name>
MRT68921

>  <Uniprot>
P30291

>  <Target>
Wee1

>  <Smiles>
CN1CCC2=CC(NC3=NC=C(C4CC4)C(NCCCNC(=O)C4CCC4)=N3)=CC=C2C1

>  <Kd (nM)>


>  <Assay (Kd)>


>  <Ki (nM)>


>  <Assay (Ki)>


>  <IC50 (nM)>


>  <Assay (IC50)>


>  <EC50 (nM)>


>  <Assay (EC50)>


>  <Article DOI>
10.1016/j.cell.2020.10.038

>  <Molecular Weight>
434.588

>  <Exact Mass>
434.2794097

>  <XLogP3>
4.4

>  <Heavy Atom Count>
32

>  <Ring Count>
5

>  <Hydrogen Bond Acceptor Count>
6

>  <Hydrogen Bond Donor Count>
3

>  <Rotatable Bond Count>
9

>  <Topological Polar Surface Area>
82.18

>  <Molecular Formula>
C25H34N6O

>  <InChI>
InChI=1S/C25H34N6O/c1-31-13-10-19-14-21(9-8-20(19)16-31)29-25-28-15-22(17-6-7-17)23(30-25)26-11-3-12-27-24(32)18-4-2-5-18/h8-9,14-15,17-18H,2-7,10-13,16H2,1H3,(H,27,32)(H2,26,28,29,30)

>  <InChI Key>
KKISLZKMBSCLSS-UHFFFAOYSA-N

>  <BindingDB>
50503137

>  <PubChem>
59225335

>  <ChEMBL>
CHEMBL4516990

$$$$
208
Actelion Java MolfileCreator 2.0

  0  0  0  0  0  0              0 V3000
M  V30 BEGIN CTAB
M  V30 COUNTS 33 37 0 0 0
M  V30 BEGIN ATOM
M  V30 1 O 5.6785 -2.9699 0.0 0
M  V30 2 C 4.6897 -2.8209 0.0 0
M  V30 3 N 4.3949 -1.8653 0.0 0
M  V30 4 C 4.1264 -3.6471 0.0 0
M  V30 5 C 3.4641 -1.4999 0.0 0
M  V30 6 C 3.1292 -3.7218 0.0 0
M  V30 7 C 4.6897 -4.4733 0.0 0
M  V30 8 C 2.598 -1.9999 0.0 0
M  V30 9 C 3.4641 -0.5 0.0 0
M  V30 10 N 2.449 -2.9888 0.0 0
M  V30 11 C 2.6953 -4.6228 0.0 0
M  V30 12 C 4.2558 -5.3743 0.0 0
M  V30 13 N 1.732 -1.5 0.0 0
M  V30 14 N 2.598 0.0 0.0 0
M  V30 15 C 1.4934 -3.2835 0.0 0
M  V30 16 C 3.2586 -5.449 0.0 0
M  V30 17 C 1.732 -0.5 0.0 0
M  V30 18 N 0.866 0.0 0.0 0
M  V30 19 C 0.0 -0.5 0.0 0
M  V30 20 C -0.866 0.0 0.0 0
M  V30 21 C 0.0 -1.4999 0.0 0
M  V30 22 O -0.866 1.0 0.0 0
M  V30 23 C -1.732 -0.4999 0.0 0
M  V30 24 C -0.866 -1.9999 0.0 0
M  V30 25 C -1.732 1.5 0.0 0
M  V30 26 C -1.732 -1.4999 0.0 0
M  V30 27 N -2.598 -1.9999 0.0 0
M  V30 28 C -3.4641 -1.4999 0.0 0
M  V30 29 C -2.598 -2.9999 0.0 0
M  V30 30 C -4.3301 -1.9999 0.0 0
M  V30 31 C -3.4641 -3.4999 0.0 0
M  V30 32 N -4.3301 -2.9999 0.0 0
M  V30 33 C -5.1961 -3.4999 0.0 0
M  V30 END ATOM
M  V30 BEGIN BOND
M  V30 1 2 1 2
M  V30 2 1 2 3
M  V30 3 1 2 4
M  V30 4 1 3 5
M  V30 5 2 4 6
M  V30 6 1 4 7
M  V30 7 2 5 8
M  V30 8 1 5 9
M  V30 9 1 6 10
M  V30 10 1 6 11
M  V30 11 2 7 12
M  V30 12 1 8 13
M  V30 13 2 9 14
M  V30 14 1 10 15
M  V30 15 2 11 16
M  V30 16 2 13 17
M  V30 17 1 17 18
M  V30 18 1 18 19
M  V30 19 2 19 20
M  V30 20 1 19 21
M  V30 21 1 20 22
M  V30 22 1 20 23
M  V30 23 2 21 24
M  V30 24 1 22 25
M  V30 25 2 23 26
M  V30 26 1 26 27
M  V30 27 1 27 28
M  V30 28 1 27 29
M  V30 29 1 28 30
M  V30 30 1 29 31
M  V30 31 1 30 32
M  V30 32 1 32 33
M  V30 33 1 8 10
M  V30 34 1 12 16
M  V30 35 1 14 17
M  V30 36 1 24 26
M  V30 37 1 31 32
M  V30 END BOND
M  V30 END CTAB
M  END
>  <Molecule Name>
Compound 644

>  <Molecule Name 2>
Compound 644

>  <Compound ID>
208

>  <Name>
XMD8-87

>  <Uniprot>
P51451

>  <Target>
BLK

>  <Smiles>
COC1=CC(N2CCN(C)CC2)=CC=C1NC1=NC=C2NC(=O)C3=CC=CC=C3N(C)C2=N1

>  <Kd (nM)>


>  <Assay (Kd)>


>  <Ki (nM)>


>  <Assay (Ki)>


>  <IC50 (nM)>


>  <Assay (IC50)>


>  <EC50 (nM)>


>  <Assay (EC50)>


>  <Article DOI>
10.1016/j.cell.2020.10.038

>  <Molecular Weight>
445.527

>  <Exact Mass>
445.2226231

>  <XLogP3>
2.91

>  <Heavy Atom Count>
33

>  <Ring Count>
5

>  <Hydrogen Bond Acceptor Count>
8

>  <Hydrogen Bond Donor Count>
2

>  <Rotatable Bond Count>
4

>  <Topological Polar Surface Area>
85.86

>  <Molecular Formula>
C24H27N7O2

>  <InChI>
InChI=1S/C24H27N7O2/c1-29-10-12-31(13-11-29)16-8-9-18(21(14-16)33-3)27-24-25-15-19-22(28-24)30(2)20-7-5-4-6-17(20)23(32)26-19/h4-9,14-15H,10-13H2,1-3H3,(H,26,32)(H,25,27,28)

>  <InChI Key>
LGLHCXISMKHLIK-UHFFFAOYSA-N

>  <BindingDB>
50337126

>  <PubChem>
53322923

>  <ChEMBL>
CHEMBL1672987

$$$$
208
Actelion Java MolfileCreator 2.0

  0  0  0  0  0  0              0 V3000
M  V30 BEGIN CTAB
M  V30 COUNTS 33 37 0 0 0
M  V30 BEGIN ATOM
M  V30 1 O 5.6785 -2.9699 0.0 0
M  V30 2 C 4.6897 -2.8209 0.0 0
M  V30 3 N 4.3949 -1.8653 0.0 0
M  V30 4 C 4.1264 -3.6471 0.0 0
M  V30 5 C 3.4641 -1.4999 0.0 0
M  V30 6 C 3.1292 -3.7218 0.0 0
M  V30 7 C 4.6897 -4.4733 0.0 0
M  V30 8 C 2.598 -1.9999 0.0 0
M  V30 9 C 3.4641 -0.5 0.0 0
M  V30 10 N 2.449 -2.9888 0.0 0
M  V30 11 C 2.6953 -4.6228 0.0 0
M  V30 12 C 4.2558 -5.3743 0.0 0
M  V30 13 N 1.732 -1.5 0.0 0
M  V30 14 N 2.598 0.0 0.0 0
M  V30 15 C 1.4934 -3.2835 0.0 0
M  V30 16 C 3.2586 -5.449 0.0 0
M  V30 17 C 1.732 -0.5 0.0 0
M  V30 18 N 0.866 0.0 0.0 0
M  V30 19 C 0.0 -0.5 0.0 0
M  V30 20 C -0.866 0.0 0.0 0
M  V30 21 C 0.0 -1.4999 0.0 0
M  V30 22 O -0.866 1.0 0.0 0
M  V30 23 C -1.732 -0.4999 0.0 0
M  V30 24 C -0.866 -1.9999 0.0 0
M  V30 25 C -1.732 1.5 0.0 0
M  V30 26 C -1.732 -1.4999 0.0 0
M  V30 27 N -2.598 -1.9999 0.0 0
M  V30 28 C -3.4641 -1.4999 0.0 0
M  V30 29 C -2.598 -2.9999 0.0 0
M  V30 30 C -4.3301 -1.9999 0.0 0
M  V30 31 C -3.4641 -3.4999 0.0 0
M  V30 32 N -4.3301 -2.9999 0.0 0
M  V30 33 C -5.1961 -3.4999 0.0 0
M  V30 END ATOM
M  V30 BEGIN BOND
M  V30 1 2 1 2
M  V30 2 1 2 3
M  V30 3 1 2 4
M  V30 4 1 3 5
M  V30 5 2 4 6
M  V30 6 1 4 7
M  V30 7 2 5 8
M  V30 8 1 5 9
M  V30 9 1 6 10
M  V30 10 1 6 11
M  V30 11 2 7 12
M  V30 12 1 8 13
M  V30 13 2 9 14
M  V30 14 1 10 15
M  V30 15 2 11 16
M  V30 16 2 13 17
M  V30 17 1 17 18
M  V30 18 1 18 19
M  V30 19 2 19 20
M  V30 20 1 19 21
M  V30 21 1 20 22
M  V30 22 1 20 23
M  V30 23 2 21 24
M  V30 24 1 22 25
M  V30 25 2 23 26
M  V30 26 1 26 27
M  V30 27 1 27 28
M  V30 28 1 27 29
M  V30 29 1 28 30
M  V30 30 1 29 31
M  V30 31 1 30 32
M  V30 32 1 32 33
M  V30 33 1 8 10
M  V30 34 1 12 16
M  V30 35 1 14 17
M  V30 36 1 24 26
M  V30 37 1 31 32
M  V30 END BOND
M  V30 END CTAB
M  END
>  <Molecule Name>
Compound 645

>  <Molecule Name 2>
Compound 645

>  <Compound ID>
208

>  <Name>
XMD8-87

>  <Uniprot>
P53667

>  <Target>
LIMK1

>  <Smiles>
COC1=CC(N2CCN(C)CC2)=CC=C1NC1=NC=C2NC(=O)C3=CC=CC=C3N(C)C2=N1

>  <Kd (nM)>


>  <Assay (Kd)>


>  <Ki (nM)>


>  <Assay (Ki)>


>  <IC50 (nM)>


>  <Assay (IC50)>


>  <EC50 (nM)>


>  <Assay (EC50)>


>  <Article DOI>
10.1016/j.cell.2020.10.038

>  <Molecular Weight>
445.527

>  <Exact Mass>
445.2226231

>  <XLogP3>
2.91

>  <Heavy Atom Count>
33

>  <Ring Count>
5

>  <Hydrogen Bond Acceptor Count>
8

>  <Hydrogen Bond Donor Count>
2

>  <Rotatable Bond Count>
4

>  <Topological Polar Surface Area>
85.86

>  <Molecular Formula>
C24H27N7O2

>  <InChI>
InChI=1S/C24H27N7O2/c1-29-10-12-31(13-11-29)16-8-9-18(21(14-16)33-3)27-24-25-15-19-22(28-24)30(2)20-7-5-4-6-17(20)23(32)26-19/h4-9,14-15H,10-13H2,1-3H3,(H,26,32)(H,25,27,28)

>  <InChI Key>
LGLHCXISMKHLIK-UHFFFAOYSA-N

>  <BindingDB>
50337126

>  <PubChem>
53322923

>  <ChEMBL>
CHEMBL1672987

$$$$
208
Actelion Java MolfileCreator 2.0

  0  0  0  0  0  0              0 V3000
M  V30 BEGIN CTAB
M  V30 COUNTS 33 37 0 0 0
M  V30 BEGIN ATOM
M  V30 1 O 5.6785 -2.9699 0.0 0
M  V30 2 C 4.6897 -2.8209 0.0 0
M  V30 3 N 4.3949 -1.8653 0.0 0
M  V30 4 C 4.1264 -3.6471 0.0 0
M  V30 5 C 3.4641 -1.4999 0.0 0
M  V30 6 C 3.1292 -3.7218 0.0 0
M  V30 7 C 4.6897 -4.4733 0.0 0
M  V30 8 C 2.598 -1.9999 0.0 0
M  V30 9 C 3.4641 -0.5 0.0 0
M  V30 10 N 2.449 -2.9888 0.0 0
M  V30 11 C 2.6953 -4.6228 0.0 0
M  V30 12 C 4.2558 -5.3743 0.0 0
M  V30 13 N 1.732 -1.5 0.0 0
M  V30 14 N 2.598 0.0 0.0 0
M  V30 15 C 1.4934 -3.2835 0.0 0
M  V30 16 C 3.2586 -5.449 0.0 0
M  V30 17 C 1.732 -0.5 0.0 0
M  V30 18 N 0.866 0.0 0.0 0
M  V30 19 C 0.0 -0.5 0.0 0
M  V30 20 C -0.866 0.0 0.0 0
M  V30 21 C 0.0 -1.4999 0.0 0
M  V30 22 O -0.866 1.0 0.0 0
M  V30 23 C -1.732 -0.4999 0.0 0
M  V30 24 C -0.866 -1.9999 0.0 0
M  V30 25 C -1.732 1.5 0.0 0
M  V30 26 C -1.732 -1.4999 0.0 0
M  V30 27 N -2.598 -1.9999 0.0 0
M  V30 28 C -3.4641 -1.4999 0.0 0
M  V30 29 C -2.598 -2.9999 0.0 0
M  V30 30 C -4.3301 -1.9999 0.0 0
M  V30 31 C -3.4641 -3.4999 0.0 0
M  V30 32 N -4.3301 -2.9999 0.0 0
M  V30 33 C -5.1961 -3.4999 0.0 0
M  V30 END ATOM
M  V30 BEGIN BOND
M  V30 1 2 1 2
M  V30 2 1 2 3
M  V30 3 1 2 4
M  V30 4 1 3 5
M  V30 5 2 4 6
M  V30 6 1 4 7
M  V30 7 2 5 8
M  V30 8 1 5 9
M  V30 9 1 6 10
M  V30 10 1 6 11
M  V30 11 2 7 12
M  V30 12 1 8 13
M  V30 13 2 9 14
M  V30 14 1 10 15
M  V30 15 2 11 16
M  V30 16 2 13 17
M  V30 17 1 17 18
M  V30 18 1 18 19
M  V30 19 2 19 20
M  V30 20 1 19 21
M  V30 21 1 20 22
M  V30 22 1 20 23
M  V30 23 2 21 24
M  V30 24 1 22 25
M  V30 25 2 23 26
M  V30 26 1 26 27
M  V30 27 1 27 28
M  V30 28 1 27 29
M  V30 29 1 28 30
M  V30 30 1 29 31
M  V30 31 1 30 32
M  V30 32 1 32 33
M  V30 33 1 8 10
M  V30 34 1 12 16
M  V30 35 1 14 17
M  V30 36 1 24 26
M  V30 37 1 31 32
M  V30 END BOND
M  V30 END CTAB
M  END
>  <Molecule Name>
Compound 646

>  <Molecule Name 2>
Compound 646

>  <Compound ID>
208

>  <Name>
XMD8-87

>  <Uniprot>
P53671

>  <Target>
LIMK2

>  <Smiles>
COC1=CC(N2CCN(C)CC2)=CC=C1NC1=NC=C2NC(=O)C3=CC=CC=C3N(C)C2=N1

>  <Kd (nM)>


>  <Assay (Kd)>


>  <Ki (nM)>


>  <Assay (Ki)>


>  <IC50 (nM)>


>  <Assay (IC50)>


>  <EC50 (nM)>


>  <Assay (EC50)>


>  <Article DOI>
10.1016/j.cell.2020.10.038

>  <Molecular Weight>
445.527

>  <Exact Mass>
445.2226231

>  <XLogP3>
2.91

>  <Heavy Atom Count>
33

>  <Ring Count>
5

>  <Hydrogen Bond Acceptor Count>
8

>  <Hydrogen Bond Donor Count>
2

>  <Rotatable Bond Count>
4

>  <Topological Polar Surface Area>
85.86

>  <Molecular Formula>
C24H27N7O2

>  <InChI>
InChI=1S/C24H27N7O2/c1-29-10-12-31(13-11-29)16-8-9-18(21(14-16)33-3)27-24-25-15-19-22(28-24)30(2)20-7-5-4-6-17(20)23(32)26-19/h4-9,14-15H,10-13H2,1-3H3,(H,26,32)(H,25,27,28)

>  <InChI Key>
LGLHCXISMKHLIK-UHFFFAOYSA-N

>  <BindingDB>
50337126

>  <PubChem>
53322923

>  <ChEMBL>
CHEMBL1672987

$$$$
208
Actelion Java MolfileCreator 2.0

  0  0  0  0  0  0              0 V3000
M  V30 BEGIN CTAB
M  V30 COUNTS 33 37 0 0 0
M  V30 BEGIN ATOM
M  V30 1 O 5.6785 -2.9699 0.0 0
M  V30 2 C 4.6897 -2.8209 0.0 0
M  V30 3 N 4.3949 -1.8653 0.0 0
M  V30 4 C 4.1264 -3.6471 0.0 0
M  V30 5 C 3.4641 -1.4999 0.0 0
M  V30 6 C 3.1292 -3.7218 0.0 0
M  V30 7 C 4.6897 -4.4733 0.0 0
M  V30 8 C 2.598 -1.9999 0.0 0
M  V30 9 C 3.4641 -0.5 0.0 0
M  V30 10 N 2.449 -2.9888 0.0 0
M  V30 11 C 2.6953 -4.6228 0.0 0
M  V30 12 C 4.2558 -5.3743 0.0 0
M  V30 13 N 1.732 -1.5 0.0 0
M  V30 14 N 2.598 0.0 0.0 0
M  V30 15 C 1.4934 -3.2835 0.0 0
M  V30 16 C 3.2586 -5.449 0.0 0
M  V30 17 C 1.732 -0.5 0.0 0
M  V30 18 N 0.866 0.0 0.0 0
M  V30 19 C 0.0 -0.5 0.0 0
M  V30 20 C -0.866 0.0 0.0 0
M  V30 21 C 0.0 -1.4999 0.0 0
M  V30 22 O -0.866 1.0 0.0 0
M  V30 23 C -1.732 -0.4999 0.0 0
M  V30 24 C -0.866 -1.9999 0.0 0
M  V30 25 C -1.732 1.5 0.0 0
M  V30 26 C -1.732 -1.4999 0.0 0
M  V30 27 N -2.598 -1.9999 0.0 0
M  V30 28 C -3.4641 -1.4999 0.0 0
M  V30 29 C -2.598 -2.9999 0.0 0
M  V30 30 C -4.3301 -1.9999 0.0 0
M  V30 31 C -3.4641 -3.4999 0.0 0
M  V30 32 N -4.3301 -2.9999 0.0 0
M  V30 33 C -5.1961 -3.4999 0.0 0
M  V30 END ATOM
M  V30 BEGIN BOND
M  V30 1 2 1 2
M  V30 2 1 2 3
M  V30 3 1 2 4
M  V30 4 1 3 5
M  V30 5 2 4 6
M  V30 6 1 4 7
M  V30 7 2 5 8
M  V30 8 1 5 9
M  V30 9 1 6 10
M  V30 10 1 6 11
M  V30 11 2 7 12
M  V30 12 1 8 13
M  V30 13 2 9 14
M  V30 14 1 10 15
M  V30 15 2 11 16
M  V30 16 2 13 17
M  V30 17 1 17 18
M  V30 18 1 18 19
M  V30 19 2 19 20
M  V30 20 1 19 21
M  V30 21 1 20 22
M  V30 22 1 20 23
M  V30 23 2 21 24
M  V30 24 1 22 25
M  V30 25 2 23 26
M  V30 26 1 26 27
M  V30 27 1 27 28
M  V30 28 1 27 29
M  V30 29 1 28 30
M  V30 30 1 29 31
M  V30 31 1 30 32
M  V30 32 1 32 33
M  V30 33 1 8 10
M  V30 34 1 12 16
M  V30 35 1 14 17
M  V30 36 1 24 26
M  V30 37 1 31 32
M  V30 END BOND
M  V30 END CTAB
M  END
>  <Molecule Name>
Compound 647

>  <Molecule Name 2>
Compound 647

>  <Compound ID>
208

>  <Name>
XMD8-87

>  <Uniprot>
Q9UEE5

>  <Target>
STK17A

>  <Smiles>
COC1=CC(N2CCN(C)CC2)=CC=C1NC1=NC=C2NC(=O)C3=CC=CC=C3N(C)C2=N1

>  <Kd (nM)>


>  <Assay (Kd)>


>  <Ki (nM)>


>  <Assay (Ki)>


>  <IC50 (nM)>


>  <Assay (IC50)>


>  <EC50 (nM)>


>  <Assay (EC50)>


>  <Article DOI>
10.1016/j.cell.2020.10.038

>  <Molecular Weight>
445.527

>  <Exact Mass>
445.2226231

>  <XLogP3>
2.91

>  <Heavy Atom Count>
33

>  <Ring Count>
5

>  <Hydrogen Bond Acceptor Count>
8

>  <Hydrogen Bond Donor Count>
2

>  <Rotatable Bond Count>
4

>  <Topological Polar Surface Area>
85.86

>  <Molecular Formula>
C24H27N7O2

>  <InChI>
InChI=1S/C24H27N7O2/c1-29-10-12-31(13-11-29)16-8-9-18(21(14-16)33-3)27-24-25-15-19-22(28-24)30(2)20-7-5-4-6-17(20)23(32)26-19/h4-9,14-15H,10-13H2,1-3H3,(H,26,32)(H,25,27,28)

>  <InChI Key>
LGLHCXISMKHLIK-UHFFFAOYSA-N

>  <BindingDB>
50337126

>  <PubChem>
53322923

>  <ChEMBL>
CHEMBL1672987

$$$$
208
Actelion Java MolfileCreator 2.0

  0  0  0  0  0  0              0 V3000
M  V30 BEGIN CTAB
M  V30 COUNTS 33 37 0 0 0
M  V30 BEGIN ATOM
M  V30 1 O 5.6785 -2.9699 0.0 0
M  V30 2 C 4.6897 -2.8209 0.0 0
M  V30 3 N 4.3949 -1.8653 0.0 0
M  V30 4 C 4.1264 -3.6471 0.0 0
M  V30 5 C 3.4641 -1.4999 0.0 0
M  V30 6 C 3.1292 -3.7218 0.0 0
M  V30 7 C 4.6897 -4.4733 0.0 0
M  V30 8 C 2.598 -1.9999 0.0 0
M  V30 9 C 3.4641 -0.5 0.0 0
M  V30 10 N 2.449 -2.9888 0.0 0
M  V30 11 C 2.6953 -4.6228 0.0 0
M  V30 12 C 4.2558 -5.3743 0.0 0
M  V30 13 N 1.732 -1.5 0.0 0
M  V30 14 N 2.598 0.0 0.0 0
M  V30 15 C 1.4934 -3.2835 0.0 0
M  V30 16 C 3.2586 -5.449 0.0 0
M  V30 17 C 1.732 -0.5 0.0 0
M  V30 18 N 0.866 0.0 0.0 0
M  V30 19 C 0.0 -0.5 0.0 0
M  V30 20 C -0.866 0.0 0.0 0
M  V30 21 C 0.0 -1.4999 0.0 0
M  V30 22 O -0.866 1.0 0.0 0
M  V30 23 C -1.732 -0.4999 0.0 0
M  V30 24 C -0.866 -1.9999 0.0 0
M  V30 25 C -1.732 1.5 0.0 0
M  V30 26 C -1.732 -1.4999 0.0 0
M  V30 27 N -2.598 -1.9999 0.0 0
M  V30 28 C -3.4641 -1.4999 0.0 0
M  V30 29 C -2.598 -2.9999 0.0 0
M  V30 30 C -4.3301 -1.9999 0.0 0
M  V30 31 C -3.4641 -3.4999 0.0 0
M  V30 32 N -4.3301 -2.9999 0.0 0
M  V30 33 C -5.1961 -3.4999 0.0 0
M  V30 END ATOM
M  V30 BEGIN BOND
M  V30 1 2 1 2
M  V30 2 1 2 3
M  V30 3 1 2 4
M  V30 4 1 3 5
M  V30 5 2 4 6
M  V30 6 1 4 7
M  V30 7 2 5 8
M  V30 8 1 5 9
M  V30 9 1 6 10
M  V30 10 1 6 11
M  V30 11 2 7 12
M  V30 12 1 8 13
M  V30 13 2 9 14
M  V30 14 1 10 15
M  V30 15 2 11 16
M  V30 16 2 13 17
M  V30 17 1 17 18
M  V30 18 1 18 19
M  V30 19 2 19 20
M  V30 20 1 19 21
M  V30 21 1 20 22
M  V30 22 1 20 23
M  V30 23 2 21 24
M  V30 24 1 22 25
M  V30 25 2 23 26
M  V30 26 1 26 27
M  V30 27 1 27 28
M  V30 28 1 27 29
M  V30 29 1 28 30
M  V30 30 1 29 31
M  V30 31 1 30 32
M  V30 32 1 32 33
M  V30 33 1 8 10
M  V30 34 1 12 16
M  V30 35 1 14 17
M  V30 36 1 24 26
M  V30 37 1 31 32
M  V30 END BOND
M  V30 END CTAB
M  END
>  <Molecule Name>
Compound 648

>  <Molecule Name 2>
Compound 648

>  <Compound ID>
208

>  <Name>
XMD8-87

>  <Uniprot>
Q07912

>  <Target>
TNK2

>  <Smiles>
COC1=CC(N2CCN(C)CC2)=CC=C1NC1=NC=C2NC(=O)C3=CC=CC=C3N(C)C2=N1

>  <Kd (nM)>
2

>  <Assay (Kd)>
Kd of ACK1

>  <Ki (nM)>


>  <Assay (Ki)>


>  <IC50 (nM)>


>  <Assay (IC50)>


>  <EC50 (nM)>


>  <Assay (EC50)>


>  <Article DOI>
10.1021/jm501929n

>  <Molecular Weight>
445.527

>  <Exact Mass>
445.2226231

>  <XLogP3>
2.91

>  <Heavy Atom Count>
33

>  <Ring Count>
5

>  <Hydrogen Bond Acceptor Count>
8

>  <Hydrogen Bond Donor Count>
2

>  <Rotatable Bond Count>
4

>  <Topological Polar Surface Area>
85.86

>  <Molecular Formula>
C24H27N7O2

>  <InChI>
InChI=1S/C24H27N7O2/c1-29-10-12-31(13-11-29)16-8-9-18(21(14-16)33-3)27-24-25-15-19-22(28-24)30(2)20-7-5-4-6-17(20)23(32)26-19/h4-9,14-15H,10-13H2,1-3H3,(H,26,32)(H,25,27,28)

>  <InChI Key>
LGLHCXISMKHLIK-UHFFFAOYSA-N

>  <BindingDB>
50337126

>  <PubChem>
53322923

>  <ChEMBL>
CHEMBL1672987

$$$$
209
Actelion Java MolfileCreator 2.0

  0  0  0  0  0  0              0 V3000
M  V30 BEGIN CTAB
M  V30 COUNTS 38 42 0 0 0
M  V30 BEGIN ATOM
M  V30 1 F 4.0762 -4.5116 0.0 0
M  V30 2 C 4.7564 -3.7785 0.0 0
M  V30 3 F 5.4895 -4.4587 0.0 0
M  V30 4 F 5.4366 -3.0455 0.0 0
M  V30 5 C 4.0234 -3.0984 0.0 0
M  V30 6 N 4.2459 -2.1234 0.0 0
M  V30 7 C 5.2208 -1.9009 0.0 0
M  V30 8 C 3.4641 -1.4999 0.0 0
M  V30 9 O 5.8443 -2.6828 0.0 0
M  V30 10 C 5.6547 -1.0 0.0 0
M  V30 11 C 3.4641 -0.5 0.0 0
M  V30 12 C 2.598 -1.9999 0.0 0
M  V30 13 C 5.2208 -0.099 0.0 0
M  V30 14 C 6.6519 -1.0747 0.0 0
M  V30 15 N 2.598 0.0 0.0 0
M  V30 16 N 4.2459 0.1234 0.0 0
M  V30 17 N 1.732 -1.5 0.0 0
M  V30 18 C 5.7841 0.7272 0.0 0
M  V30 19 C 7.2152 -0.2484 0.0 0
M  V30 20 C 1.732 -0.5 0.0 0
M  V30 21 C 4.0234 1.0984 0.0 0
M  V30 22 C 6.7813 0.6524 0.0 0
M  V30 23 N 0.866 0.0 0.0 0
M  V30 24 C 0.0 -0.5 0.0 0
M  V30 25 C -0.866 0.0 0.0 0
M  V30 26 C 0.0 -1.4999 0.0 0
M  V30 27 O -0.866 1.0 0.0 0
M  V30 28 C -1.732 -0.4999 0.0 0
M  V30 29 C -0.866 -1.9999 0.0 0
M  V30 30 C -1.732 1.5 0.0 0
M  V30 31 C -1.732 -1.4999 0.0 0
M  V30 32 N -2.598 -1.9999 0.0 0
M  V30 33 C -3.4641 -1.4999 0.0 0
M  V30 34 C -2.598 -2.9999 0.0 0
M  V30 35 C -4.3301 -1.9999 0.0 0
M  V30 36 C -3.4641 -3.4999 0.0 0
M  V30 37 N -4.3301 -2.9999 0.0 0
M  V30 38 C -5.1961 -3.4999 0.0 0
M  V30 END ATOM
M  V30 BEGIN BOND
M  V30 1 1 1 2
M  V30 2 1 2 3
M  V30 3 1 2 4
M  V30 4 1 2 5
M  V30 5 1 5 6
M  V30 6 1 6 7
M  V30 7 1 6 8
M  V30 8 2 7 9
M  V30 9 1 7 10
M  V30 10 2 8 11
M  V30 11 1 8 12
M  V30 12 2 10 13
M  V30 13 1 10 14
M  V30 14 1 11 15
M  V30 15 1 11 16
M  V30 16 2 12 17
M  V30 17 1 13 18
M  V30 18 2 14 19
M  V30 19 2 15 20
M  V30 20 1 16 21
M  V30 21 2 18 22
M  V30 22 1 20 23
M  V30 23 1 23 24
M  V30 24 2 24 25
M  V30 25 1 24 26
M  V30 26 1 25 27
M  V30 27 1 25 28
M  V30 28 2 26 29
M  V30 29 1 27 30
M  V30 30 2 28 31
M  V30 31 1 31 32
M  V30 32 1 32 33
M  V30 33 1 32 34
M  V30 34 1 33 35
M  V30 35 1 34 36
M  V30 36 1 35 37
M  V30 37 1 37 38
M  V30 38 1 13 16
M  V30 39 1 17 20
M  V30 40 1 19 22
M  V30 41 1 29 31
M  V30 42 1 36 37
M  V30 END BOND
M  V30 END CTAB
M  END
>  <Molecule Name>
Compound 649

>  <Molecule Name 2>
Compound 649

>  <Compound ID>
209

>  <Name>
DCLK1-IN-1

>  <Uniprot>
P51451

>  <Target>
BLK

>  <Smiles>
COC1=CC(N2CCN(C)CC2)=CC=C1NC1=NC=C2C(=N1)N(C)C1=CC=CC=C1C(=O)N2CC(F)(F)F

>  <Kd (nM)>


>  <Assay (Kd)>


>  <Ki (nM)>


>  <Assay (Ki)>


>  <IC50 (nM)>


>  <Assay (IC50)>


>  <EC50 (nM)>


>  <Assay (EC50)>


>  <Article DOI>
10.1016/j.cell.2020.10.038

>  <Molecular Weight>
527.551

>  <Exact Mass>
527.2256578

>  <XLogP3>
4.21

>  <Heavy Atom Count>
38

>  <Ring Count>
5

>  <Hydrogen Bond Acceptor Count>
8

>  <Hydrogen Bond Donor Count>
1

>  <Rotatable Bond Count>
5

>  <Topological Polar Surface Area>
77.07

>  <Molecular Formula>
C26H28F3N7O2

>  <InChI>
InChI=1S/C26H28F3N7O2/c1-33-10-12-35(13-11-33)17-8-9-19(22(14-17)38-3)31-25-30-15-21-23(32-25)34(2)20-7-5-4-6-18(20)24(37)36(21)16-26(27,28)29/h4-9,14-15H,10-13,16H2,1-3H3,(H,30,31,32)

>  <InChI Key>
OQFCHSFVWSLDAO-UHFFFAOYSA-N

>  <BindingDB>


>  <PubChem>
134457640

>  <ChEMBL>


$$$$
209
Actelion Java MolfileCreator 2.0

  0  0  0  0  0  0              0 V3000
M  V30 BEGIN CTAB
M  V30 COUNTS 38 42 0 0 0
M  V30 BEGIN ATOM
M  V30 1 F 4.0762 -4.5116 0.0 0
M  V30 2 C 4.7564 -3.7785 0.0 0
M  V30 3 F 5.4895 -4.4587 0.0 0
M  V30 4 F 5.4366 -3.0455 0.0 0
M  V30 5 C 4.0234 -3.0984 0.0 0
M  V30 6 N 4.2459 -2.1234 0.0 0
M  V30 7 C 5.2208 -1.9009 0.0 0
M  V30 8 C 3.4641 -1.4999 0.0 0
M  V30 9 O 5.8443 -2.6828 0.0 0
M  V30 10 C 5.6547 -1.0 0.0 0
M  V30 11 C 3.4641 -0.5 0.0 0
M  V30 12 C 2.598 -1.9999 0.0 0
M  V30 13 C 5.2208 -0.099 0.0 0
M  V30 14 C 6.6519 -1.0747 0.0 0
M  V30 15 N 2.598 0.0 0.0 0
M  V30 16 N 4.2459 0.1234 0.0 0
M  V30 17 N 1.732 -1.5 0.0 0
M  V30 18 C 5.7841 0.7272 0.0 0
M  V30 19 C 7.2152 -0.2484 0.0 0
M  V30 20 C 1.732 -0.5 0.0 0
M  V30 21 C 4.0234 1.0984 0.0 0
M  V30 22 C 6.7813 0.6524 0.0 0
M  V30 23 N 0.866 0.0 0.0 0
M  V30 24 C 0.0 -0.5 0.0 0
M  V30 25 C -0.866 0.0 0.0 0
M  V30 26 C 0.0 -1.4999 0.0 0
M  V30 27 O -0.866 1.0 0.0 0
M  V30 28 C -1.732 -0.4999 0.0 0
M  V30 29 C -0.866 -1.9999 0.0 0
M  V30 30 C -1.732 1.5 0.0 0
M  V30 31 C -1.732 -1.4999 0.0 0
M  V30 32 N -2.598 -1.9999 0.0 0
M  V30 33 C -3.4641 -1.4999 0.0 0
M  V30 34 C -2.598 -2.9999 0.0 0
M  V30 35 C -4.3301 -1.9999 0.0 0
M  V30 36 C -3.4641 -3.4999 0.0 0
M  V30 37 N -4.3301 -2.9999 0.0 0
M  V30 38 C -5.1961 -3.4999 0.0 0
M  V30 END ATOM
M  V30 BEGIN BOND
M  V30 1 1 1 2
M  V30 2 1 2 3
M  V30 3 1 2 4
M  V30 4 1 2 5
M  V30 5 1 5 6
M  V30 6 1 6 7
M  V30 7 1 6 8
M  V30 8 2 7 9
M  V30 9 1 7 10
M  V30 10 2 8 11
M  V30 11 1 8 12
M  V30 12 2 10 13
M  V30 13 1 10 14
M  V30 14 1 11 15
M  V30 15 1 11 16
M  V30 16 2 12 17
M  V30 17 1 13 18
M  V30 18 2 14 19
M  V30 19 2 15 20
M  V30 20 1 16 21
M  V30 21 2 18 22
M  V30 22 1 20 23
M  V30 23 1 23 24
M  V30 24 2 24 25
M  V30 25 1 24 26
M  V30 26 1 25 27
M  V30 27 1 25 28
M  V30 28 2 26 29
M  V30 29 1 27 30
M  V30 30 2 28 31
M  V30 31 1 31 32
M  V30 32 1 32 33
M  V30 33 1 32 34
M  V30 34 1 33 35
M  V30 35 1 34 36
M  V30 36 1 35 37
M  V30 37 1 37 38
M  V30 38 1 13 16
M  V30 39 1 17 20
M  V30 40 1 19 22
M  V30 41 1 29 31
M  V30 42 1 36 37
M  V30 END BOND
M  V30 END CTAB
M  END
>  <Molecule Name>
Compound 650

>  <Molecule Name 2>
Compound 650

>  <Compound ID>
209

>  <Name>
DCLK1-IN-1

>  <Uniprot>
P41240

>  <Target>
CSK

>  <Smiles>
COC1=CC(N2CCN(C)CC2)=CC=C1NC1=NC=C2C(=N1)N(C)C1=CC=CC=C1C(=O)N2CC(F)(F)F

>  <Kd (nM)>


>  <Assay (Kd)>


>  <Ki (nM)>


>  <Assay (Ki)>


>  <IC50 (nM)>


>  <Assay (IC50)>


>  <EC50 (nM)>


>  <Assay (EC50)>


>  <Article DOI>
10.1016/j.cell.2020.10.038

>  <Molecular Weight>
527.551

>  <Exact Mass>
527.2256578

>  <XLogP3>
4.21

>  <Heavy Atom Count>
38

>  <Ring Count>
5

>  <Hydrogen Bond Acceptor Count>
8

>  <Hydrogen Bond Donor Count>
1

>  <Rotatable Bond Count>
5

>  <Topological Polar Surface Area>
77.07

>  <Molecular Formula>
C26H28F3N7O2

>  <InChI>
InChI=1S/C26H28F3N7O2/c1-33-10-12-35(13-11-33)17-8-9-19(22(14-17)38-3)31-25-30-15-21-23(32-25)34(2)20-7-5-4-6-18(20)24(37)36(21)16-26(27,28)29/h4-9,14-15H,10-13,16H2,1-3H3,(H,30,31,32)

>  <InChI Key>
OQFCHSFVWSLDAO-UHFFFAOYSA-N

>  <BindingDB>


>  <PubChem>
134457640

>  <ChEMBL>


$$$$
210
Actelion Java MolfileCreator 2.0

  0  0  0  0  0  0              0 V3000
M  V30 BEGIN CTAB
M  V30 COUNTS 35 39 0 0 0
M  V30 BEGIN ATOM
M  V30 1 S 1.732 -0.5 0.0 0
M  V30 2 O 1.232 -1.366 0.0 0
M  V30 3 O 2.232 0.366 0.0 0
M  V30 4 N 0.866 0.0 0.0 0
M  V30 5 C 2.598 -0.9999 0.0 0
M  V30 6 C 0.0 -0.5 0.0 0
M  V30 7 C -0.866 0.0 0.0 0
M  V30 8 C 0.0 -1.4999 0.0 0
M  V30 9 C -1.732 -0.4999 0.0 0
M  V30 10 C -0.866 -1.9999 0.0 0
M  V30 11 C -2.598 0.0 0.0 0
M  V30 12 C -1.732 -1.4999 0.0 0
M  V30 13 C -2.7026 0.9945 0.0 0
M  V30 14 C -3.5116 -0.4067 0.0 0
M  V30 15 N -2.0334 1.7376 0.0 0
M  V30 16 C -3.6807 1.2024 0.0 0
M  V30 17 S -4.1807 0.3364 0.0 0
M  V30 18 C -2.3424 2.6887 0.0 0
M  V30 19 C -3.9897 2.1534 0.0 0
M  V30 20 N -3.3206 2.8966 0.0 0
M  V30 21 N -1.6733 3.4318 0.0 0
M  V30 22 C -1.9823 4.3829 0.0 0
M  V30 23 C -1.3132 5.126 0.0 0
M  V30 24 C -2.9605 4.5908 0.0 0
M  V30 25 C -1.6222 6.0771 0.0 0
M  V30 26 C -3.2695 5.5418 0.0 0
M  V30 27 C -2.6004 6.285 0.0 0
M  V30 28 N -2.9094 7.236 0.0 0
M  V30 29 C -2.2402 7.9792 0.0 0
M  V30 30 C -3.8875 7.444 0.0 0
M  V30 31 C -2.5493 8.9302 0.0 0
M  V30 32 C -4.1965 8.395 0.0 0
M  V30 33 N -3.5274 9.1382 0.0 0
M  V30 34 C -3.8364 10.0892 0.0 0
M  V30 35 C -4.8146 10.2971 0.0 0
M  V30 END ATOM
M  V30 BEGIN BOND
M  V30 1 2 1 2
M  V30 2 2 1 3
M  V30 3 1 1 4
M  V30 4 1 1 5
M  V30 5 1 4 6
M  V30 6 2 6 7
M  V30 7 1 6 8
M  V30 8 1 7 9
M  V30 9 2 8 10
M  V30 10 1 9 11
M  V30 11 2 9 12
M  V30 12 1 11 13
M  V30 13 2 11 14
M  V30 14 2 13 15
M  V30 15 1 13 16
M  V30 16 1 14 17
M  V30 17 1 15 18
M  V30 18 2 16 19
M  V30 19 2 18 20
M  V30 20 1 18 21
M  V30 21 1 21 22
M  V30 22 2 22 23
M  V30 23 1 22 24
M  V30 24 1 23 25
M  V30 25 2 24 26
M  V30 26 2 25 27
M  V30 27 1 27 28
M  V30 28 1 28 29
M  V30 29 1 28 30
M  V30 30 1 29 31
M  V30 31 1 30 32
M  V30 32 1 31 33
M  V30 33 1 33 34
M  V30 34 1 34 35
M  V30 35 1 10 12
M  V30 36 1 16 17
M  V30 37 1 19 20
M  V30 38 1 26 27
M  V30 39 1 32 33
M  V30 END BOND
M  V30 END CTAB
M  END
>  <Molecule Name>
Compound 651

>  <Molecule Name 2>
Compound 651

>  <Compound ID>
210

>  <Name>


>  <Uniprot>
Q2M2I8

>  <Target>
AAK1

>  <Smiles>
CCN1CCN(C2=CC=C(NC3=NC=C4SC=C(C5=CC=CC(NS(C)(=O)=O)=C5)C4=N3)C=C2)CC1

>  <Kd (nM)>


>  <Assay (Kd)>


>  <Ki (nM)>


>  <Assay (Ki)>


>  <IC50 (nM)>


>  <Assay (IC50)>


>  <EC50 (nM)>


>  <Assay (EC50)>


>  <Article DOI>
10.1016/j.cell.2020.10.038

>  <Molecular Weight>
508.673

>  <Exact Mass>
508.1715161

>  <XLogP3>
4.08

>  <Heavy Atom Count>
35

>  <Ring Count>
5

>  <Hydrogen Bond Acceptor Count>
8

>  <Hydrogen Bond Donor Count>
2

>  <Rotatable Bond Count>
7

>  <Topological Polar Surface Area>
90.46

>  <Molecular Formula>
C25H28N6O2S2

>  <InChI>
InChI=1S/C25H28N6O2S2/c1-3-30-11-13-31(14-12-30)21-9-7-19(8-10-21)27-25-26-16-23-24(28-25)22(17-34-23)18-5-4-6-20(15-18)29-35(2,32)33/h4-10,15-17,29H,3,11-14H2,1-2H3,(H,26,27,28)

>  <InChI Key>
MQMVBXQAIMTOTQ-UHFFFAOYSA-N

>  <BindingDB>


>  <PubChem>
90466261

>  <ChEMBL>


$$$$
210
Actelion Java MolfileCreator 2.0

  0  0  0  0  0  0              0 V3000
M  V30 BEGIN CTAB
M  V30 COUNTS 35 39 0 0 0
M  V30 BEGIN ATOM
M  V30 1 S 1.732 -0.5 0.0 0
M  V30 2 O 1.232 -1.366 0.0 0
M  V30 3 O 2.232 0.366 0.0 0
M  V30 4 N 0.866 0.0 0.0 0
M  V30 5 C 2.598 -0.9999 0.0 0
M  V30 6 C 0.0 -0.5 0.0 0
M  V30 7 C -0.866 0.0 0.0 0
M  V30 8 C 0.0 -1.4999 0.0 0
M  V30 9 C -1.732 -0.4999 0.0 0
M  V30 10 C -0.866 -1.9999 0.0 0
M  V30 11 C -2.598 0.0 0.0 0
M  V30 12 C -1.732 -1.4999 0.0 0
M  V30 13 C -2.7026 0.9945 0.0 0
M  V30 14 C -3.5116 -0.4067 0.0 0
M  V30 15 N -2.0334 1.7376 0.0 0
M  V30 16 C -3.6807 1.2024 0.0 0
M  V30 17 S -4.1807 0.3364 0.0 0
M  V30 18 C -2.3424 2.6887 0.0 0
M  V30 19 C -3.9897 2.1534 0.0 0
M  V30 20 N -3.3206 2.8966 0.0 0
M  V30 21 N -1.6733 3.4318 0.0 0
M  V30 22 C -1.9823 4.3829 0.0 0
M  V30 23 C -1.3132 5.126 0.0 0
M  V30 24 C -2.9605 4.5908 0.0 0
M  V30 25 C -1.6222 6.0771 0.0 0
M  V30 26 C -3.2695 5.5418 0.0 0
M  V30 27 C -2.6004 6.285 0.0 0
M  V30 28 N -2.9094 7.236 0.0 0
M  V30 29 C -2.2402 7.9792 0.0 0
M  V30 30 C -3.8875 7.444 0.0 0
M  V30 31 C -2.5493 8.9302 0.0 0
M  V30 32 C -4.1965 8.395 0.0 0
M  V30 33 N -3.5274 9.1382 0.0 0
M  V30 34 C -3.8364 10.0892 0.0 0
M  V30 35 C -4.8146 10.2971 0.0 0
M  V30 END ATOM
M  V30 BEGIN BOND
M  V30 1 2 1 2
M  V30 2 2 1 3
M  V30 3 1 1 4
M  V30 4 1 1 5
M  V30 5 1 4 6
M  V30 6 2 6 7
M  V30 7 1 6 8
M  V30 8 1 7 9
M  V30 9 2 8 10
M  V30 10 1 9 11
M  V30 11 2 9 12
M  V30 12 1 11 13
M  V30 13 2 11 14
M  V30 14 2 13 15
M  V30 15 1 13 16
M  V30 16 1 14 17
M  V30 17 1 15 18
M  V30 18 2 16 19
M  V30 19 2 18 20
M  V30 20 1 18 21
M  V30 21 1 21 22
M  V30 22 2 22 23
M  V30 23 1 22 24
M  V30 24 1 23 25
M  V30 25 2 24 26
M  V30 26 2 25 27
M  V30 27 1 27 28
M  V30 28 1 28 29
M  V30 29 1 28 30
M  V30 30 1 29 31
M  V30 31 1 30 32
M  V30 32 1 31 33
M  V30 33 1 33 34
M  V30 34 1 34 35
M  V30 35 1 10 12
M  V30 36 1 16 17
M  V30 37 1 19 20
M  V30 38 1 26 27
M  V30 39 1 32 33
M  V30 END BOND
M  V30 END CTAB
M  END
>  <Molecule Name>
Compound 652

>  <Molecule Name 2>
Compound 652

>  <Compound ID>
210

>  <Name>


>  <Uniprot>
O14965

>  <Target>
AURKA

>  <Smiles>
CCN1CCN(C2=CC=C(NC3=NC=C4SC=C(C5=CC=CC(NS(C)(=O)=O)=C5)C4=N3)C=C2)CC1

>  <Kd (nM)>


>  <Assay (Kd)>


>  <Ki (nM)>


>  <Assay (Ki)>


>  <IC50 (nM)>


>  <Assay (IC50)>


>  <EC50 (nM)>


>  <Assay (EC50)>


>  <Article DOI>
10.1016/j.cell.2020.10.038

>  <Molecular Weight>
508.673

>  <Exact Mass>
508.1715161

>  <XLogP3>
4.08

>  <Heavy Atom Count>
35

>  <Ring Count>
5

>  <Hydrogen Bond Acceptor Count>
8

>  <Hydrogen Bond Donor Count>
2

>  <Rotatable Bond Count>
7

>  <Topological Polar Surface Area>
90.46

>  <Molecular Formula>
C25H28N6O2S2

>  <InChI>
InChI=1S/C25H28N6O2S2/c1-3-30-11-13-31(14-12-30)21-9-7-19(8-10-21)27-25-26-16-23-24(28-25)22(17-34-23)18-5-4-6-20(15-18)29-35(2,32)33/h4-10,15-17,29H,3,11-14H2,1-2H3,(H,26,27,28)

>  <InChI Key>
MQMVBXQAIMTOTQ-UHFFFAOYSA-N

>  <BindingDB>


>  <PubChem>
90466261

>  <ChEMBL>


$$$$
210
Actelion Java MolfileCreator 2.0

  0  0  0  0  0  0              0 V3000
M  V30 BEGIN CTAB
M  V30 COUNTS 35 39 0 0 0
M  V30 BEGIN ATOM
M  V30 1 S 1.732 -0.5 0.0 0
M  V30 2 O 1.232 -1.366 0.0 0
M  V30 3 O 2.232 0.366 0.0 0
M  V30 4 N 0.866 0.0 0.0 0
M  V30 5 C 2.598 -0.9999 0.0 0
M  V30 6 C 0.0 -0.5 0.0 0
M  V30 7 C -0.866 0.0 0.0 0
M  V30 8 C 0.0 -1.4999 0.0 0
M  V30 9 C -1.732 -0.4999 0.0 0
M  V30 10 C -0.866 -1.9999 0.0 0
M  V30 11 C -2.598 0.0 0.0 0
M  V30 12 C -1.732 -1.4999 0.0 0
M  V30 13 C -2.7026 0.9945 0.0 0
M  V30 14 C -3.5116 -0.4067 0.0 0
M  V30 15 N -2.0334 1.7376 0.0 0
M  V30 16 C -3.6807 1.2024 0.0 0
M  V30 17 S -4.1807 0.3364 0.0 0
M  V30 18 C -2.3424 2.6887 0.0 0
M  V30 19 C -3.9897 2.1534 0.0 0
M  V30 20 N -3.3206 2.8966 0.0 0
M  V30 21 N -1.6733 3.4318 0.0 0
M  V30 22 C -1.9823 4.3829 0.0 0
M  V30 23 C -1.3132 5.126 0.0 0
M  V30 24 C -2.9605 4.5908 0.0 0
M  V30 25 C -1.6222 6.0771 0.0 0
M  V30 26 C -3.2695 5.5418 0.0 0
M  V30 27 C -2.6004 6.285 0.0 0
M  V30 28 N -2.9094 7.236 0.0 0
M  V30 29 C -2.2402 7.9792 0.0 0
M  V30 30 C -3.8875 7.444 0.0 0
M  V30 31 C -2.5493 8.9302 0.0 0
M  V30 32 C -4.1965 8.395 0.0 0
M  V30 33 N -3.5274 9.1382 0.0 0
M  V30 34 C -3.8364 10.0892 0.0 0
M  V30 35 C -4.8146 10.2971 0.0 0
M  V30 END ATOM
M  V30 BEGIN BOND
M  V30 1 2 1 2
M  V30 2 2 1 3
M  V30 3 1 1 4
M  V30 4 1 1 5
M  V30 5 1 4 6
M  V30 6 2 6 7
M  V30 7 1 6 8
M  V30 8 1 7 9
M  V30 9 2 8 10
M  V30 10 1 9 11
M  V30 11 2 9 12
M  V30 12 1 11 13
M  V30 13 2 11 14
M  V30 14 2 13 15
M  V30 15 1 13 16
M  V30 16 1 14 17
M  V30 17 1 15 18
M  V30 18 2 16 19
M  V30 19 2 18 20
M  V30 20 1 18 21
M  V30 21 1 21 22
M  V30 22 2 22 23
M  V30 23 1 22 24
M  V30 24 1 23 25
M  V30 25 2 24 26
M  V30 26 2 25 27
M  V30 27 1 27 28
M  V30 28 1 28 29
M  V30 29 1 28 30
M  V30 30 1 29 31
M  V30 31 1 30 32
M  V30 32 1 31 33
M  V30 33 1 33 34
M  V30 34 1 34 35
M  V30 35 1 10 12
M  V30 36 1 16 17
M  V30 37 1 19 20
M  V30 38 1 26 27
M  V30 39 1 32 33
M  V30 END BOND
M  V30 END CTAB
M  END
>  <Molecule Name>
Compound 653

>  <Molecule Name 2>
Compound 653

>  <Compound ID>
210

>  <Name>


>  <Uniprot>
Q9NSY1

>  <Target>
BMP2K

>  <Smiles>
CCN1CCN(C2=CC=C(NC3=NC=C4SC=C(C5=CC=CC(NS(C)(=O)=O)=C5)C4=N3)C=C2)CC1

>  <Kd (nM)>


>  <Assay (Kd)>


>  <Ki (nM)>


>  <Assay (Ki)>


>  <IC50 (nM)>


>  <Assay (IC50)>


>  <EC50 (nM)>


>  <Assay (EC50)>


>  <Article DOI>
10.1016/j.cell.2020.10.038

>  <Molecular Weight>
508.673

>  <Exact Mass>
508.1715161

>  <XLogP3>
4.08

>  <Heavy Atom Count>
35

>  <Ring Count>
5

>  <Hydrogen Bond Acceptor Count>
8

>  <Hydrogen Bond Donor Count>
2

>  <Rotatable Bond Count>
7

>  <Topological Polar Surface Area>
90.46

>  <Molecular Formula>
C25H28N6O2S2

>  <InChI>
InChI=1S/C25H28N6O2S2/c1-3-30-11-13-31(14-12-30)21-9-7-19(8-10-21)27-25-26-16-23-24(28-25)22(17-34-23)18-5-4-6-20(15-18)29-35(2,32)33/h4-10,15-17,29H,3,11-14H2,1-2H3,(H,26,27,28)

>  <InChI Key>
MQMVBXQAIMTOTQ-UHFFFAOYSA-N

>  <BindingDB>


>  <PubChem>
90466261

>  <ChEMBL>


$$$$
210
Actelion Java MolfileCreator 2.0

  0  0  0  0  0  0              0 V3000
M  V30 BEGIN CTAB
M  V30 COUNTS 35 39 0 0 0
M  V30 BEGIN ATOM
M  V30 1 S 1.732 -0.5 0.0 0
M  V30 2 O 1.232 -1.366 0.0 0
M  V30 3 O 2.232 0.366 0.0 0
M  V30 4 N 0.866 0.0 0.0 0
M  V30 5 C 2.598 -0.9999 0.0 0
M  V30 6 C 0.0 -0.5 0.0 0
M  V30 7 C -0.866 0.0 0.0 0
M  V30 8 C 0.0 -1.4999 0.0 0
M  V30 9 C -1.732 -0.4999 0.0 0
M  V30 10 C -0.866 -1.9999 0.0 0
M  V30 11 C -2.598 0.0 0.0 0
M  V30 12 C -1.732 -1.4999 0.0 0
M  V30 13 C -2.7026 0.9945 0.0 0
M  V30 14 C -3.5116 -0.4067 0.0 0
M  V30 15 N -2.0334 1.7376 0.0 0
M  V30 16 C -3.6807 1.2024 0.0 0
M  V30 17 S -4.1807 0.3364 0.0 0
M  V30 18 C -2.3424 2.6887 0.0 0
M  V30 19 C -3.9897 2.1534 0.0 0
M  V30 20 N -3.3206 2.8966 0.0 0
M  V30 21 N -1.6733 3.4318 0.0 0
M  V30 22 C -1.9823 4.3829 0.0 0
M  V30 23 C -1.3132 5.126 0.0 0
M  V30 24 C -2.9605 4.5908 0.0 0
M  V30 25 C -1.6222 6.0771 0.0 0
M  V30 26 C -3.2695 5.5418 0.0 0
M  V30 27 C -2.6004 6.285 0.0 0
M  V30 28 N -2.9094 7.236 0.0 0
M  V30 29 C -2.2402 7.9792 0.0 0
M  V30 30 C -3.8875 7.444 0.0 0
M  V30 31 C -2.5493 8.9302 0.0 0
M  V30 32 C -4.1965 8.395 0.0 0
M  V30 33 N -3.5274 9.1382 0.0 0
M  V30 34 C -3.8364 10.0892 0.0 0
M  V30 35 C -4.8146 10.2971 0.0 0
M  V30 END ATOM
M  V30 BEGIN BOND
M  V30 1 2 1 2
M  V30 2 2 1 3
M  V30 3 1 1 4
M  V30 4 1 1 5
M  V30 5 1 4 6
M  V30 6 2 6 7
M  V30 7 1 6 8
M  V30 8 1 7 9
M  V30 9 2 8 10
M  V30 10 1 9 11
M  V30 11 2 9 12
M  V30 12 1 11 13
M  V30 13 2 11 14
M  V30 14 2 13 15
M  V30 15 1 13 16
M  V30 16 1 14 17
M  V30 17 1 15 18
M  V30 18 2 16 19
M  V30 19 2 18 20
M  V30 20 1 18 21
M  V30 21 1 21 22
M  V30 22 2 22 23
M  V30 23 1 22 24
M  V30 24 1 23 25
M  V30 25 2 24 26
M  V30 26 2 25 27
M  V30 27 1 27 28
M  V30 28 1 28 29
M  V30 29 1 28 30
M  V30 30 1 29 31
M  V30 31 1 30 32
M  V30 32 1 31 33
M  V30 33 1 33 34
M  V30 34 1 34 35
M  V30 35 1 10 12
M  V30 36 1 16 17
M  V30 37 1 19 20
M  V30 38 1 26 27
M  V30 39 1 32 33
M  V30 END BOND
M  V30 END CTAB
M  END
>  <Molecule Name>
Compound 654

>  <Molecule Name 2>
Compound 654

>  <Compound ID>
210

>  <Name>


>  <Uniprot>
Q8N5S9

>  <Target>
CAMKK1

>  <Smiles>
CCN1CCN(C2=CC=C(NC3=NC=C4SC=C(C5=CC=CC(NS(C)(=O)=O)=C5)C4=N3)C=C2)CC1

>  <Kd (nM)>


>  <Assay (Kd)>


>  <Ki (nM)>


>  <Assay (Ki)>


>  <IC50 (nM)>


>  <Assay (IC50)>


>  <EC50 (nM)>


>  <Assay (EC50)>


>  <Article DOI>
10.1016/j.cell.2020.10.038

>  <Molecular Weight>
508.673

>  <Exact Mass>
508.1715161

>  <XLogP3>
4.08

>  <Heavy Atom Count>
35

>  <Ring Count>
5

>  <Hydrogen Bond Acceptor Count>
8

>  <Hydrogen Bond Donor Count>
2

>  <Rotatable Bond Count>
7

>  <Topological Polar Surface Area>
90.46

>  <Molecular Formula>
C25H28N6O2S2

>  <InChI>
InChI=1S/C25H28N6O2S2/c1-3-30-11-13-31(14-12-30)21-9-7-19(8-10-21)27-25-26-16-23-24(28-25)22(17-34-23)18-5-4-6-20(15-18)29-35(2,32)33/h4-10,15-17,29H,3,11-14H2,1-2H3,(H,26,27,28)

>  <InChI Key>
MQMVBXQAIMTOTQ-UHFFFAOYSA-N

>  <BindingDB>


>  <PubChem>
90466261

>  <ChEMBL>


$$$$
210
Actelion Java MolfileCreator 2.0

  0  0  0  0  0  0              0 V3000
M  V30 BEGIN CTAB
M  V30 COUNTS 35 39 0 0 0
M  V30 BEGIN ATOM
M  V30 1 S 1.732 -0.5 0.0 0
M  V30 2 O 1.232 -1.366 0.0 0
M  V30 3 O 2.232 0.366 0.0 0
M  V30 4 N 0.866 0.0 0.0 0
M  V30 5 C 2.598 -0.9999 0.0 0
M  V30 6 C 0.0 -0.5 0.0 0
M  V30 7 C -0.866 0.0 0.0 0
M  V30 8 C 0.0 -1.4999 0.0 0
M  V30 9 C -1.732 -0.4999 0.0 0
M  V30 10 C -0.866 -1.9999 0.0 0
M  V30 11 C -2.598 0.0 0.0 0
M  V30 12 C -1.732 -1.4999 0.0 0
M  V30 13 C -2.7026 0.9945 0.0 0
M  V30 14 C -3.5116 -0.4067 0.0 0
M  V30 15 N -2.0334 1.7376 0.0 0
M  V30 16 C -3.6807 1.2024 0.0 0
M  V30 17 S -4.1807 0.3364 0.0 0
M  V30 18 C -2.3424 2.6887 0.0 0
M  V30 19 C -3.9897 2.1534 0.0 0
M  V30 20 N -3.3206 2.8966 0.0 0
M  V30 21 N -1.6733 3.4318 0.0 0
M  V30 22 C -1.9823 4.3829 0.0 0
M  V30 23 C -1.3132 5.126 0.0 0
M  V30 24 C -2.9605 4.5908 0.0 0
M  V30 25 C -1.6222 6.0771 0.0 0
M  V30 26 C -3.2695 5.5418 0.0 0
M  V30 27 C -2.6004 6.285 0.0 0
M  V30 28 N -2.9094 7.236 0.0 0
M  V30 29 C -2.2402 7.9792 0.0 0
M  V30 30 C -3.8875 7.444 0.0 0
M  V30 31 C -2.5493 8.9302 0.0 0
M  V30 32 C -4.1965 8.395 0.0 0
M  V30 33 N -3.5274 9.1382 0.0 0
M  V30 34 C -3.8364 10.0892 0.0 0
M  V30 35 C -4.8146 10.2971 0.0 0
M  V30 END ATOM
M  V30 BEGIN BOND
M  V30 1 2 1 2
M  V30 2 2 1 3
M  V30 3 1 1 4
M  V30 4 1 1 5
M  V30 5 1 4 6
M  V30 6 2 6 7
M  V30 7 1 6 8
M  V30 8 1 7 9
M  V30 9 2 8 10
M  V30 10 1 9 11
M  V30 11 2 9 12
M  V30 12 1 11 13
M  V30 13 2 11 14
M  V30 14 2 13 15
M  V30 15 1 13 16
M  V30 16 1 14 17
M  V30 17 1 15 18
M  V30 18 2 16 19
M  V30 19 2 18 20
M  V30 20 1 18 21
M  V30 21 1 21 22
M  V30 22 2 22 23
M  V30 23 1 22 24
M  V30 24 1 23 25
M  V30 25 2 24 26
M  V30 26 2 25 27
M  V30 27 1 27 28
M  V30 28 1 28 29
M  V30 29 1 28 30
M  V30 30 1 29 31
M  V30 31 1 30 32
M  V30 32 1 31 33
M  V30 33 1 33 34
M  V30 34 1 34 35
M  V30 35 1 10 12
M  V30 36 1 16 17
M  V30 37 1 19 20
M  V30 38 1 26 27
M  V30 39 1 32 33
M  V30 END BOND
M  V30 END CTAB
M  END
>  <Molecule Name>
Compound 655

>  <Molecule Name 2>
Compound 655

>  <Compound ID>
210

>  <Name>


>  <Uniprot>
Q00536

>  <Target>
CDK16

>  <Smiles>
CCN1CCN(C2=CC=C(NC3=NC=C4SC=C(C5=CC=CC(NS(C)(=O)=O)=C5)C4=N3)C=C2)CC1

>  <Kd (nM)>


>  <Assay (Kd)>


>  <Ki (nM)>


>  <Assay (Ki)>


>  <IC50 (nM)>


>  <Assay (IC50)>


>  <EC50 (nM)>


>  <Assay (EC50)>


>  <Article DOI>
10.1016/j.cell.2020.10.038

>  <Molecular Weight>
508.673

>  <Exact Mass>
508.1715161

>  <XLogP3>
4.08

>  <Heavy Atom Count>
35

>  <Ring Count>
5

>  <Hydrogen Bond Acceptor Count>
8

>  <Hydrogen Bond Donor Count>
2

>  <Rotatable Bond Count>
7

>  <Topological Polar Surface Area>
90.46

>  <Molecular Formula>
C25H28N6O2S2

>  <InChI>
InChI=1S/C25H28N6O2S2/c1-3-30-11-13-31(14-12-30)21-9-7-19(8-10-21)27-25-26-16-23-24(28-25)22(17-34-23)18-5-4-6-20(15-18)29-35(2,32)33/h4-10,15-17,29H,3,11-14H2,1-2H3,(H,26,27,28)

>  <InChI Key>
MQMVBXQAIMTOTQ-UHFFFAOYSA-N

>  <BindingDB>


>  <PubChem>
90466261

>  <ChEMBL>


$$$$
210
Actelion Java MolfileCreator 2.0

  0  0  0  0  0  0              0 V3000
M  V30 BEGIN CTAB
M  V30 COUNTS 35 39 0 0 0
M  V30 BEGIN ATOM
M  V30 1 S 1.732 -0.5 0.0 0
M  V30 2 O 1.232 -1.366 0.0 0
M  V30 3 O 2.232 0.366 0.0 0
M  V30 4 N 0.866 0.0 0.0 0
M  V30 5 C 2.598 -0.9999 0.0 0
M  V30 6 C 0.0 -0.5 0.0 0
M  V30 7 C -0.866 0.0 0.0 0
M  V30 8 C 0.0 -1.4999 0.0 0
M  V30 9 C -1.732 -0.4999 0.0 0
M  V30 10 C -0.866 -1.9999 0.0 0
M  V30 11 C -2.598 0.0 0.0 0
M  V30 12 C -1.732 -1.4999 0.0 0
M  V30 13 C -2.7026 0.9945 0.0 0
M  V30 14 C -3.5116 -0.4067 0.0 0
M  V30 15 N -2.0334 1.7376 0.0 0
M  V30 16 C -3.6807 1.2024 0.0 0
M  V30 17 S -4.1807 0.3364 0.0 0
M  V30 18 C -2.3424 2.6887 0.0 0
M  V30 19 C -3.9897 2.1534 0.0 0
M  V30 20 N -3.3206 2.8966 0.0 0
M  V30 21 N -1.6733 3.4318 0.0 0
M  V30 22 C -1.9823 4.3829 0.0 0
M  V30 23 C -1.3132 5.126 0.0 0
M  V30 24 C -2.9605 4.5908 0.0 0
M  V30 25 C -1.6222 6.0771 0.0 0
M  V30 26 C -3.2695 5.5418 0.0 0
M  V30 27 C -2.6004 6.285 0.0 0
M  V30 28 N -2.9094 7.236 0.0 0
M  V30 29 C -2.2402 7.9792 0.0 0
M  V30 30 C -3.8875 7.444 0.0 0
M  V30 31 C -2.5493 8.9302 0.0 0
M  V30 32 C -4.1965 8.395 0.0 0
M  V30 33 N -3.5274 9.1382 0.0 0
M  V30 34 C -3.8364 10.0892 0.0 0
M  V30 35 C -4.8146 10.2971 0.0 0
M  V30 END ATOM
M  V30 BEGIN BOND
M  V30 1 2 1 2
M  V30 2 2 1 3
M  V30 3 1 1 4
M  V30 4 1 1 5
M  V30 5 1 4 6
M  V30 6 2 6 7
M  V30 7 1 6 8
M  V30 8 1 7 9
M  V30 9 2 8 10
M  V30 10 1 9 11
M  V30 11 2 9 12
M  V30 12 1 11 13
M  V30 13 2 11 14
M  V30 14 2 13 15
M  V30 15 1 13 16
M  V30 16 1 14 17
M  V30 17 1 15 18
M  V30 18 2 16 19
M  V30 19 2 18 20
M  V30 20 1 18 21
M  V30 21 1 21 22
M  V30 22 2 22 23
M  V30 23 1 22 24
M  V30 24 1 23 25
M  V30 25 2 24 26
M  V30 26 2 25 27
M  V30 27 1 27 28
M  V30 28 1 28 29
M  V30 29 1 28 30
M  V30 30 1 29 31
M  V30 31 1 30 32
M  V30 32 1 31 33
M  V30 33 1 33 34
M  V30 34 1 34 35
M  V30 35 1 10 12
M  V30 36 1 16 17
M  V30 37 1 19 20
M  V30 38 1 26 27
M  V30 39 1 32 33
M  V30 END BOND
M  V30 END CTAB
M  END
>  <Molecule Name>
Compound 656

>  <Molecule Name 2>
Compound 656

>  <Compound ID>
210

>  <Name>


>  <Uniprot>
Q00537

>  <Target>
CDK17

>  <Smiles>
CCN1CCN(C2=CC=C(NC3=NC=C4SC=C(C5=CC=CC(NS(C)(=O)=O)=C5)C4=N3)C=C2)CC1

>  <Kd (nM)>


>  <Assay (Kd)>


>  <Ki (nM)>


>  <Assay (Ki)>


>  <IC50 (nM)>


>  <Assay (IC50)>


>  <EC50 (nM)>


>  <Assay (EC50)>


>  <Article DOI>
10.1016/j.cell.2020.10.038

>  <Molecular Weight>
508.673

>  <Exact Mass>
508.1715161

>  <XLogP3>
4.08

>  <Heavy Atom Count>
35

>  <Ring Count>
5

>  <Hydrogen Bond Acceptor Count>
8

>  <Hydrogen Bond Donor Count>
2

>  <Rotatable Bond Count>
7

>  <Topological Polar Surface Area>
90.46

>  <Molecular Formula>
C25H28N6O2S2

>  <InChI>
InChI=1S/C25H28N6O2S2/c1-3-30-11-13-31(14-12-30)21-9-7-19(8-10-21)27-25-26-16-23-24(28-25)22(17-34-23)18-5-4-6-20(15-18)29-35(2,32)33/h4-10,15-17,29H,3,11-14H2,1-2H3,(H,26,27,28)

>  <InChI Key>
MQMVBXQAIMTOTQ-UHFFFAOYSA-N

>  <BindingDB>


>  <PubChem>
90466261

>  <ChEMBL>


$$$$
210
Actelion Java MolfileCreator 2.0

  0  0  0  0  0  0              0 V3000
M  V30 BEGIN CTAB
M  V30 COUNTS 35 39 0 0 0
M  V30 BEGIN ATOM
M  V30 1 S 1.732 -0.5 0.0 0
M  V30 2 O 1.232 -1.366 0.0 0
M  V30 3 O 2.232 0.366 0.0 0
M  V30 4 N 0.866 0.0 0.0 0
M  V30 5 C 2.598 -0.9999 0.0 0
M  V30 6 C 0.0 -0.5 0.0 0
M  V30 7 C -0.866 0.0 0.0 0
M  V30 8 C 0.0 -1.4999 0.0 0
M  V30 9 C -1.732 -0.4999 0.0 0
M  V30 10 C -0.866 -1.9999 0.0 0
M  V30 11 C -2.598 0.0 0.0 0
M  V30 12 C -1.732 -1.4999 0.0 0
M  V30 13 C -2.7026 0.9945 0.0 0
M  V30 14 C -3.5116 -0.4067 0.0 0
M  V30 15 N -2.0334 1.7376 0.0 0
M  V30 16 C -3.6807 1.2024 0.0 0
M  V30 17 S -4.1807 0.3364 0.0 0
M  V30 18 C -2.3424 2.6887 0.0 0
M  V30 19 C -3.9897 2.1534 0.0 0
M  V30 20 N -3.3206 2.8966 0.0 0
M  V30 21 N -1.6733 3.4318 0.0 0
M  V30 22 C -1.9823 4.3829 0.0 0
M  V30 23 C -1.3132 5.126 0.0 0
M  V30 24 C -2.9605 4.5908 0.0 0
M  V30 25 C -1.6222 6.0771 0.0 0
M  V30 26 C -3.2695 5.5418 0.0 0
M  V30 27 C -2.6004 6.285 0.0 0
M  V30 28 N -2.9094 7.236 0.0 0
M  V30 29 C -2.2402 7.9792 0.0 0
M  V30 30 C -3.8875 7.444 0.0 0
M  V30 31 C -2.5493 8.9302 0.0 0
M  V30 32 C -4.1965 8.395 0.0 0
M  V30 33 N -3.5274 9.1382 0.0 0
M  V30 34 C -3.8364 10.0892 0.0 0
M  V30 35 C -4.8146 10.2971 0.0 0
M  V30 END ATOM
M  V30 BEGIN BOND
M  V30 1 2 1 2
M  V30 2 2 1 3
M  V30 3 1 1 4
M  V30 4 1 1 5
M  V30 5 1 4 6
M  V30 6 2 6 7
M  V30 7 1 6 8
M  V30 8 1 7 9
M  V30 9 2 8 10
M  V30 10 1 9 11
M  V30 11 2 9 12
M  V30 12 1 11 13
M  V30 13 2 11 14
M  V30 14 2 13 15
M  V30 15 1 13 16
M  V30 16 1 14 17
M  V30 17 1 15 18
M  V30 18 2 16 19
M  V30 19 2 18 20
M  V30 20 1 18 21
M  V30 21 1 21 22
M  V30 22 2 22 23
M  V30 23 1 22 24
M  V30 24 1 23 25
M  V30 25 2 24 26
M  V30 26 2 25 27
M  V30 27 1 27 28
M  V30 28 1 28 29
M  V30 29 1 28 30
M  V30 30 1 29 31
M  V30 31 1 30 32
M  V30 32 1 31 33
M  V30 33 1 33 34
M  V30 34 1 34 35
M  V30 35 1 10 12
M  V30 36 1 16 17
M  V30 37 1 19 20
M  V30 38 1 26 27
M  V30 39 1 32 33
M  V30 END BOND
M  V30 END CTAB
M  END
>  <Molecule Name>
Compound 657

>  <Molecule Name 2>
Compound 657

>  <Compound ID>
210

>  <Name>


>  <Uniprot>
P06493

>  <Target>
CDK1

>  <Smiles>
CCN1CCN(C2=CC=C(NC3=NC=C4SC=C(C5=CC=CC(NS(C)(=O)=O)=C5)C4=N3)C=C2)CC1

>  <Kd (nM)>


>  <Assay (Kd)>


>  <Ki (nM)>


>  <Assay (Ki)>


>  <IC50 (nM)>


>  <Assay (IC50)>


>  <EC50 (nM)>


>  <Assay (EC50)>


>  <Article DOI>
10.1016/j.cell.2020.10.038

>  <Molecular Weight>
508.673

>  <Exact Mass>
508.1715161

>  <XLogP3>
4.08

>  <Heavy Atom Count>
35

>  <Ring Count>
5

>  <Hydrogen Bond Acceptor Count>
8

>  <Hydrogen Bond Donor Count>
2

>  <Rotatable Bond Count>
7

>  <Topological Polar Surface Area>
90.46

>  <Molecular Formula>
C25H28N6O2S2

>  <InChI>
InChI=1S/C25H28N6O2S2/c1-3-30-11-13-31(14-12-30)21-9-7-19(8-10-21)27-25-26-16-23-24(28-25)22(17-34-23)18-5-4-6-20(15-18)29-35(2,32)33/h4-10,15-17,29H,3,11-14H2,1-2H3,(H,26,27,28)

>  <InChI Key>
MQMVBXQAIMTOTQ-UHFFFAOYSA-N

>  <BindingDB>


>  <PubChem>
90466261

>  <ChEMBL>


$$$$
210
Actelion Java MolfileCreator 2.0

  0  0  0  0  0  0              0 V3000
M  V30 BEGIN CTAB
M  V30 COUNTS 35 39 0 0 0
M  V30 BEGIN ATOM
M  V30 1 S 1.732 -0.5 0.0 0
M  V30 2 O 1.232 -1.366 0.0 0
M  V30 3 O 2.232 0.366 0.0 0
M  V30 4 N 0.866 0.0 0.0 0
M  V30 5 C 2.598 -0.9999 0.0 0
M  V30 6 C 0.0 -0.5 0.0 0
M  V30 7 C -0.866 0.0 0.0 0
M  V30 8 C 0.0 -1.4999 0.0 0
M  V30 9 C -1.732 -0.4999 0.0 0
M  V30 10 C -0.866 -1.9999 0.0 0
M  V30 11 C -2.598 0.0 0.0 0
M  V30 12 C -1.732 -1.4999 0.0 0
M  V30 13 C -2.7026 0.9945 0.0 0
M  V30 14 C -3.5116 -0.4067 0.0 0
M  V30 15 N -2.0334 1.7376 0.0 0
M  V30 16 C -3.6807 1.2024 0.0 0
M  V30 17 S -4.1807 0.3364 0.0 0
M  V30 18 C -2.3424 2.6887 0.0 0
M  V30 19 C -3.9897 2.1534 0.0 0
M  V30 20 N -3.3206 2.8966 0.0 0
M  V30 21 N -1.6733 3.4318 0.0 0
M  V30 22 C -1.9823 4.3829 0.0 0
M  V30 23 C -1.3132 5.126 0.0 0
M  V30 24 C -2.9605 4.5908 0.0 0
M  V30 25 C -1.6222 6.0771 0.0 0
M  V30 26 C -3.2695 5.5418 0.0 0
M  V30 27 C -2.6004 6.285 0.0 0
M  V30 28 N -2.9094 7.236 0.0 0
M  V30 29 C -2.2402 7.9792 0.0 0
M  V30 30 C -3.8875 7.444 0.0 0
M  V30 31 C -2.5493 8.9302 0.0 0
M  V30 32 C -4.1965 8.395 0.0 0
M  V30 33 N -3.5274 9.1382 0.0 0
M  V30 34 C -3.8364 10.0892 0.0 0
M  V30 35 C -4.8146 10.2971 0.0 0
M  V30 END ATOM
M  V30 BEGIN BOND
M  V30 1 2 1 2
M  V30 2 2 1 3
M  V30 3 1 1 4
M  V30 4 1 1 5
M  V30 5 1 4 6
M  V30 6 2 6 7
M  V30 7 1 6 8
M  V30 8 1 7 9
M  V30 9 2 8 10
M  V30 10 1 9 11
M  V30 11 2 9 12
M  V30 12 1 11 13
M  V30 13 2 11 14
M  V30 14 2 13 15
M  V30 15 1 13 16
M  V30 16 1 14 17
M  V30 17 1 15 18
M  V30 18 2 16 19
M  V30 19 2 18 20
M  V30 20 1 18 21
M  V30 21 1 21 22
M  V30 22 2 22 23
M  V30 23 1 22 24
M  V30 24 1 23 25
M  V30 25 2 24 26
M  V30 26 2 25 27
M  V30 27 1 27 28
M  V30 28 1 28 29
M  V30 29 1 28 30
M  V30 30 1 29 31
M  V30 31 1 30 32
M  V30 32 1 31 33
M  V30 33 1 33 34
M  V30 34 1 34 35
M  V30 35 1 10 12
M  V30 36 1 16 17
M  V30 37 1 19 20
M  V30 38 1 26 27
M  V30 39 1 32 33
M  V30 END BOND
M  V30 END CTAB
M  END
>  <Molecule Name>
Compound 658

>  <Molecule Name 2>
Compound 658

>  <Compound ID>
210

>  <Name>


>  <Uniprot>
P24941

>  <Target>
CDK2

>  <Smiles>
CCN1CCN(C2=CC=C(NC3=NC=C4SC=C(C5=CC=CC(NS(C)(=O)=O)=C5)C4=N3)C=C2)CC1

>  <Kd (nM)>


>  <Assay (Kd)>


>  <Ki (nM)>


>  <Assay (Ki)>


>  <IC50 (nM)>


>  <Assay (IC50)>


>  <EC50 (nM)>


>  <Assay (EC50)>


>  <Article DOI>
10.1016/j.cell.2020.10.038

>  <Molecular Weight>
508.673

>  <Exact Mass>
508.1715161

>  <XLogP3>
4.08

>  <Heavy Atom Count>
35

>  <Ring Count>
5

>  <Hydrogen Bond Acceptor Count>
8

>  <Hydrogen Bond Donor Count>
2

>  <Rotatable Bond Count>
7

>  <Topological Polar Surface Area>
90.46

>  <Molecular Formula>
C25H28N6O2S2

>  <InChI>
InChI=1S/C25H28N6O2S2/c1-3-30-11-13-31(14-12-30)21-9-7-19(8-10-21)27-25-26-16-23-24(28-25)22(17-34-23)18-5-4-6-20(15-18)29-35(2,32)33/h4-10,15-17,29H,3,11-14H2,1-2H3,(H,26,27,28)

>  <InChI Key>
MQMVBXQAIMTOTQ-UHFFFAOYSA-N

>  <BindingDB>


>  <PubChem>
90466261

>  <ChEMBL>


$$$$
210
Actelion Java MolfileCreator 2.0

  0  0  0  0  0  0              0 V3000
M  V30 BEGIN CTAB
M  V30 COUNTS 35 39 0 0 0
M  V30 BEGIN ATOM
M  V30 1 S 1.732 -0.5 0.0 0
M  V30 2 O 1.232 -1.366 0.0 0
M  V30 3 O 2.232 0.366 0.0 0
M  V30 4 N 0.866 0.0 0.0 0
M  V30 5 C 2.598 -0.9999 0.0 0
M  V30 6 C 0.0 -0.5 0.0 0
M  V30 7 C -0.866 0.0 0.0 0
M  V30 8 C 0.0 -1.4999 0.0 0
M  V30 9 C -1.732 -0.4999 0.0 0
M  V30 10 C -0.866 -1.9999 0.0 0
M  V30 11 C -2.598 0.0 0.0 0
M  V30 12 C -1.732 -1.4999 0.0 0
M  V30 13 C -2.7026 0.9945 0.0 0
M  V30 14 C -3.5116 -0.4067 0.0 0
M  V30 15 N -2.0334 1.7376 0.0 0
M  V30 16 C -3.6807 1.2024 0.0 0
M  V30 17 S -4.1807 0.3364 0.0 0
M  V30 18 C -2.3424 2.6887 0.0 0
M  V30 19 C -3.9897 2.1534 0.0 0
M  V30 20 N -3.3206 2.8966 0.0 0
M  V30 21 N -1.6733 3.4318 0.0 0
M  V30 22 C -1.9823 4.3829 0.0 0
M  V30 23 C -1.3132 5.126 0.0 0
M  V30 24 C -2.9605 4.5908 0.0 0
M  V30 25 C -1.6222 6.0771 0.0 0
M  V30 26 C -3.2695 5.5418 0.0 0
M  V30 27 C -2.6004 6.285 0.0 0
M  V30 28 N -2.9094 7.236 0.0 0
M  V30 29 C -2.2402 7.9792 0.0 0
M  V30 30 C -3.8875 7.444 0.0 0
M  V30 31 C -2.5493 8.9302 0.0 0
M  V30 32 C -4.1965 8.395 0.0 0
M  V30 33 N -3.5274 9.1382 0.0 0
M  V30 34 C -3.8364 10.0892 0.0 0
M  V30 35 C -4.8146 10.2971 0.0 0
M  V30 END ATOM
M  V30 BEGIN BOND
M  V30 1 2 1 2
M  V30 2 2 1 3
M  V30 3 1 1 4
M  V30 4 1 1 5
M  V30 5 1 4 6
M  V30 6 2 6 7
M  V30 7 1 6 8
M  V30 8 1 7 9
M  V30 9 2 8 10
M  V30 10 1 9 11
M  V30 11 2 9 12
M  V30 12 1 11 13
M  V30 13 2 11 14
M  V30 14 2 13 15
M  V30 15 1 13 16
M  V30 16 1 14 17
M  V30 17 1 15 18
M  V30 18 2 16 19
M  V30 19 2 18 20
M  V30 20 1 18 21
M  V30 21 1 21 22
M  V30 22 2 22 23
M  V30 23 1 22 24
M  V30 24 1 23 25
M  V30 25 2 24 26
M  V30 26 2 25 27
M  V30 27 1 27 28
M  V30 28 1 28 29
M  V30 29 1 28 30
M  V30 30 1 29 31
M  V30 31 1 30 32
M  V30 32 1 31 33
M  V30 33 1 33 34
M  V30 34 1 34 35
M  V30 35 1 10 12
M  V30 36 1 16 17
M  V30 37 1 19 20
M  V30 38 1 26 27
M  V30 39 1 32 33
M  V30 END BOND
M  V30 END CTAB
M  END
>  <Molecule Name>
Compound 659

>  <Molecule Name 2>
Compound 659

>  <Compound ID>
210

>  <Name>


>  <Uniprot>
P11802

>  <Target>
CDK4

>  <Smiles>
CCN1CCN(C2=CC=C(NC3=NC=C4SC=C(C5=CC=CC(NS(C)(=O)=O)=C5)C4=N3)C=C2)CC1

>  <Kd (nM)>


>  <Assay (Kd)>


>  <Ki (nM)>


>  <Assay (Ki)>


>  <IC50 (nM)>


>  <Assay (IC50)>


>  <EC50 (nM)>


>  <Assay (EC50)>


>  <Article DOI>
10.1016/j.cell.2020.10.038

>  <Molecular Weight>
508.673

>  <Exact Mass>
508.1715161

>  <XLogP3>
4.08

>  <Heavy Atom Count>
35

>  <Ring Count>
5

>  <Hydrogen Bond Acceptor Count>
8

>  <Hydrogen Bond Donor Count>
2

>  <Rotatable Bond Count>
7

>  <Topological Polar Surface Area>
90.46

>  <Molecular Formula>
C25H28N6O2S2

>  <InChI>
InChI=1S/C25H28N6O2S2/c1-3-30-11-13-31(14-12-30)21-9-7-19(8-10-21)27-25-26-16-23-24(28-25)22(17-34-23)18-5-4-6-20(15-18)29-35(2,32)33/h4-10,15-17,29H,3,11-14H2,1-2H3,(H,26,27,28)

>  <InChI Key>
MQMVBXQAIMTOTQ-UHFFFAOYSA-N

>  <BindingDB>


>  <PubChem>
90466261

>  <ChEMBL>


$$$$
210
Actelion Java MolfileCreator 2.0

  0  0  0  0  0  0              0 V3000
M  V30 BEGIN CTAB
M  V30 COUNTS 35 39 0 0 0
M  V30 BEGIN ATOM
M  V30 1 S 1.732 -0.5 0.0 0
M  V30 2 O 1.232 -1.366 0.0 0
M  V30 3 O 2.232 0.366 0.0 0
M  V30 4 N 0.866 0.0 0.0 0
M  V30 5 C 2.598 -0.9999 0.0 0
M  V30 6 C 0.0 -0.5 0.0 0
M  V30 7 C -0.866 0.0 0.0 0
M  V30 8 C 0.0 -1.4999 0.0 0
M  V30 9 C -1.732 -0.4999 0.0 0
M  V30 10 C -0.866 -1.9999 0.0 0
M  V30 11 C -2.598 0.0 0.0 0
M  V30 12 C -1.732 -1.4999 0.0 0
M  V30 13 C -2.7026 0.9945 0.0 0
M  V30 14 C -3.5116 -0.4067 0.0 0
M  V30 15 N -2.0334 1.7376 0.0 0
M  V30 16 C -3.6807 1.2024 0.0 0
M  V30 17 S -4.1807 0.3364 0.0 0
M  V30 18 C -2.3424 2.6887 0.0 0
M  V30 19 C -3.9897 2.1534 0.0 0
M  V30 20 N -3.3206 2.8966 0.0 0
M  V30 21 N -1.6733 3.4318 0.0 0
M  V30 22 C -1.9823 4.3829 0.0 0
M  V30 23 C -1.3132 5.126 0.0 0
M  V30 24 C -2.9605 4.5908 0.0 0
M  V30 25 C -1.6222 6.0771 0.0 0
M  V30 26 C -3.2695 5.5418 0.0 0
M  V30 27 C -2.6004 6.285 0.0 0
M  V30 28 N -2.9094 7.236 0.0 0
M  V30 29 C -2.2402 7.9792 0.0 0
M  V30 30 C -3.8875 7.444 0.0 0
M  V30 31 C -2.5493 8.9302 0.0 0
M  V30 32 C -4.1965 8.395 0.0 0
M  V30 33 N -3.5274 9.1382 0.0 0
M  V30 34 C -3.8364 10.0892 0.0 0
M  V30 35 C -4.8146 10.2971 0.0 0
M  V30 END ATOM
M  V30 BEGIN BOND
M  V30 1 2 1 2
M  V30 2 2 1 3
M  V30 3 1 1 4
M  V30 4 1 1 5
M  V30 5 1 4 6
M  V30 6 2 6 7
M  V30 7 1 6 8
M  V30 8 1 7 9
M  V30 9 2 8 10
M  V30 10 1 9 11
M  V30 11 2 9 12
M  V30 12 1 11 13
M  V30 13 2 11 14
M  V30 14 2 13 15
M  V30 15 1 13 16
M  V30 16 1 14 17
M  V30 17 1 15 18
M  V30 18 2 16 19
M  V30 19 2 18 20
M  V30 20 1 18 21
M  V30 21 1 21 22
M  V30 22 2 22 23
M  V30 23 1 22 24
M  V30 24 1 23 25
M  V30 25 2 24 26
M  V30 26 2 25 27
M  V30 27 1 27 28
M  V30 28 1 28 29
M  V30 29 1 28 30
M  V30 30 1 29 31
M  V30 31 1 30 32
M  V30 32 1 31 33
M  V30 33 1 33 34
M  V30 34 1 34 35
M  V30 35 1 10 12
M  V30 36 1 16 17
M  V30 37 1 19 20
M  V30 38 1 26 27
M  V30 39 1 32 33
M  V30 END BOND
M  V30 END CTAB
M  END
>  <Molecule Name>
Compound 660

>  <Molecule Name 2>
Compound 660

>  <Compound ID>
210

>  <Name>


>  <Uniprot>
Q00534

>  <Target>
CDK6

>  <Smiles>
CCN1CCN(C2=CC=C(NC3=NC=C4SC=C(C5=CC=CC(NS(C)(=O)=O)=C5)C4=N3)C=C2)CC1

>  <Kd (nM)>


>  <Assay (Kd)>


>  <Ki (nM)>


>  <Assay (Ki)>


>  <IC50 (nM)>


>  <Assay (IC50)>


>  <EC50 (nM)>


>  <Assay (EC50)>


>  <Article DOI>
10.1016/j.cell.2020.10.038

>  <Molecular Weight>
508.673

>  <Exact Mass>
508.1715161

>  <XLogP3>
4.08

>  <Heavy Atom Count>
35

>  <Ring Count>
5

>  <Hydrogen Bond Acceptor Count>
8

>  <Hydrogen Bond Donor Count>
2

>  <Rotatable Bond Count>
7

>  <Topological Polar Surface Area>
90.46

>  <Molecular Formula>
C25H28N6O2S2

>  <InChI>
InChI=1S/C25H28N6O2S2/c1-3-30-11-13-31(14-12-30)21-9-7-19(8-10-21)27-25-26-16-23-24(28-25)22(17-34-23)18-5-4-6-20(15-18)29-35(2,32)33/h4-10,15-17,29H,3,11-14H2,1-2H3,(H,26,27,28)

>  <InChI Key>
MQMVBXQAIMTOTQ-UHFFFAOYSA-N

>  <BindingDB>


>  <PubChem>
90466261

>  <ChEMBL>


$$$$
210
Actelion Java MolfileCreator 2.0

  0  0  0  0  0  0              0 V3000
M  V30 BEGIN CTAB
M  V30 COUNTS 35 39 0 0 0
M  V30 BEGIN ATOM
M  V30 1 S 1.732 -0.5 0.0 0
M  V30 2 O 1.232 -1.366 0.0 0
M  V30 3 O 2.232 0.366 0.0 0
M  V30 4 N 0.866 0.0 0.0 0
M  V30 5 C 2.598 -0.9999 0.0 0
M  V30 6 C 0.0 -0.5 0.0 0
M  V30 7 C -0.866 0.0 0.0 0
M  V30 8 C 0.0 -1.4999 0.0 0
M  V30 9 C -1.732 -0.4999 0.0 0
M  V30 10 C -0.866 -1.9999 0.0 0
M  V30 11 C -2.598 0.0 0.0 0
M  V30 12 C -1.732 -1.4999 0.0 0
M  V30 13 C -2.7026 0.9945 0.0 0
M  V30 14 C -3.5116 -0.4067 0.0 0
M  V30 15 N -2.0334 1.7376 0.0 0
M  V30 16 C -3.6807 1.2024 0.0 0
M  V30 17 S -4.1807 0.3364 0.0 0
M  V30 18 C -2.3424 2.6887 0.0 0
M  V30 19 C -3.9897 2.1534 0.0 0
M  V30 20 N -3.3206 2.8966 0.0 0
M  V30 21 N -1.6733 3.4318 0.0 0
M  V30 22 C -1.9823 4.3829 0.0 0
M  V30 23 C -1.3132 5.126 0.0 0
M  V30 24 C -2.9605 4.5908 0.0 0
M  V30 25 C -1.6222 6.0771 0.0 0
M  V30 26 C -3.2695 5.5418 0.0 0
M  V30 27 C -2.6004 6.285 0.0 0
M  V30 28 N -2.9094 7.236 0.0 0
M  V30 29 C -2.2402 7.9792 0.0 0
M  V30 30 C -3.8875 7.444 0.0 0
M  V30 31 C -2.5493 8.9302 0.0 0
M  V30 32 C -4.1965 8.395 0.0 0
M  V30 33 N -3.5274 9.1382 0.0 0
M  V30 34 C -3.8364 10.0892 0.0 0
M  V30 35 C -4.8146 10.2971 0.0 0
M  V30 END ATOM
M  V30 BEGIN BOND
M  V30 1 2 1 2
M  V30 2 2 1 3
M  V30 3 1 1 4
M  V30 4 1 1 5
M  V30 5 1 4 6
M  V30 6 2 6 7
M  V30 7 1 6 8
M  V30 8 1 7 9
M  V30 9 2 8 10
M  V30 10 1 9 11
M  V30 11 2 9 12
M  V30 12 1 11 13
M  V30 13 2 11 14
M  V30 14 2 13 15
M  V30 15 1 13 16
M  V30 16 1 14 17
M  V30 17 1 15 18
M  V30 18 2 16 19
M  V30 19 2 18 20
M  V30 20 1 18 21
M  V30 21 1 21 22
M  V30 22 2 22 23
M  V30 23 1 22 24
M  V30 24 1 23 25
M  V30 25 2 24 26
M  V30 26 2 25 27
M  V30 27 1 27 28
M  V30 28 1 28 29
M  V30 29 1 28 30
M  V30 30 1 29 31
M  V30 31 1 30 32
M  V30 32 1 31 33
M  V30 33 1 33 34
M  V30 34 1 34 35
M  V30 35 1 10 12
M  V30 36 1 16 17
M  V30 37 1 19 20
M  V30 38 1 26 27
M  V30 39 1 32 33
M  V30 END BOND
M  V30 END CTAB
M  END
>  <Molecule Name>
Compound 661

>  <Molecule Name 2>
Compound 661

>  <Compound ID>
210

>  <Name>


>  <Uniprot>
P50613

>  <Target>
CDK7

>  <Smiles>
CCN1CCN(C2=CC=C(NC3=NC=C4SC=C(C5=CC=CC(NS(C)(=O)=O)=C5)C4=N3)C=C2)CC1

>  <Kd (nM)>


>  <Assay (Kd)>


>  <Ki (nM)>


>  <Assay (Ki)>


>  <IC50 (nM)>


>  <Assay (IC50)>


>  <EC50 (nM)>


>  <Assay (EC50)>


>  <Article DOI>
10.1016/j.cell.2020.10.038

>  <Molecular Weight>
508.673

>  <Exact Mass>
508.1715161

>  <XLogP3>
4.08

>  <Heavy Atom Count>
35

>  <Ring Count>
5

>  <Hydrogen Bond Acceptor Count>
8

>  <Hydrogen Bond Donor Count>
2

>  <Rotatable Bond Count>
7

>  <Topological Polar Surface Area>
90.46

>  <Molecular Formula>
C25H28N6O2S2

>  <InChI>
InChI=1S/C25H28N6O2S2/c1-3-30-11-13-31(14-12-30)21-9-7-19(8-10-21)27-25-26-16-23-24(28-25)22(17-34-23)18-5-4-6-20(15-18)29-35(2,32)33/h4-10,15-17,29H,3,11-14H2,1-2H3,(H,26,27,28)

>  <InChI Key>
MQMVBXQAIMTOTQ-UHFFFAOYSA-N

>  <BindingDB>


>  <PubChem>
90466261

>  <ChEMBL>


$$$$
210
Actelion Java MolfileCreator 2.0

  0  0  0  0  0  0              0 V3000
M  V30 BEGIN CTAB
M  V30 COUNTS 35 39 0 0 0
M  V30 BEGIN ATOM
M  V30 1 S 1.732 -0.5 0.0 0
M  V30 2 O 1.232 -1.366 0.0 0
M  V30 3 O 2.232 0.366 0.0 0
M  V30 4 N 0.866 0.0 0.0 0
M  V30 5 C 2.598 -0.9999 0.0 0
M  V30 6 C 0.0 -0.5 0.0 0
M  V30 7 C -0.866 0.0 0.0 0
M  V30 8 C 0.0 -1.4999 0.0 0
M  V30 9 C -1.732 -0.4999 0.0 0
M  V30 10 C -0.866 -1.9999 0.0 0
M  V30 11 C -2.598 0.0 0.0 0
M  V30 12 C -1.732 -1.4999 0.0 0
M  V30 13 C -2.7026 0.9945 0.0 0
M  V30 14 C -3.5116 -0.4067 0.0 0
M  V30 15 N -2.0334 1.7376 0.0 0
M  V30 16 C -3.6807 1.2024 0.0 0
M  V30 17 S -4.1807 0.3364 0.0 0
M  V30 18 C -2.3424 2.6887 0.0 0
M  V30 19 C -3.9897 2.1534 0.0 0
M  V30 20 N -3.3206 2.8966 0.0 0
M  V30 21 N -1.6733 3.4318 0.0 0
M  V30 22 C -1.9823 4.3829 0.0 0
M  V30 23 C -1.3132 5.126 0.0 0
M  V30 24 C -2.9605 4.5908 0.0 0
M  V30 25 C -1.6222 6.0771 0.0 0
M  V30 26 C -3.2695 5.5418 0.0 0
M  V30 27 C -2.6004 6.285 0.0 0
M  V30 28 N -2.9094 7.236 0.0 0
M  V30 29 C -2.2402 7.9792 0.0 0
M  V30 30 C -3.8875 7.444 0.0 0
M  V30 31 C -2.5493 8.9302 0.0 0
M  V30 32 C -4.1965 8.395 0.0 0
M  V30 33 N -3.5274 9.1382 0.0 0
M  V30 34 C -3.8364 10.0892 0.0 0
M  V30 35 C -4.8146 10.2971 0.0 0
M  V30 END ATOM
M  V30 BEGIN BOND
M  V30 1 2 1 2
M  V30 2 2 1 3
M  V30 3 1 1 4
M  V30 4 1 1 5
M  V30 5 1 4 6
M  V30 6 2 6 7
M  V30 7 1 6 8
M  V30 8 1 7 9
M  V30 9 2 8 10
M  V30 10 1 9 11
M  V30 11 2 9 12
M  V30 12 1 11 13
M  V30 13 2 11 14
M  V30 14 2 13 15
M  V30 15 1 13 16
M  V30 16 1 14 17
M  V30 17 1 15 18
M  V30 18 2 16 19
M  V30 19 2 18 20
M  V30 20 1 18 21
M  V30 21 1 21 22
M  V30 22 2 22 23
M  V30 23 1 22 24
M  V30 24 1 23 25
M  V30 25 2 24 26
M  V30 26 2 25 27
M  V30 27 1 27 28
M  V30 28 1 28 29
M  V30 29 1 28 30
M  V30 30 1 29 31
M  V30 31 1 30 32
M  V30 32 1 31 33
M  V30 33 1 33 34
M  V30 34 1 34 35
M  V30 35 1 10 12
M  V30 36 1 16 17
M  V30 37 1 19 20
M  V30 38 1 26 27
M  V30 39 1 32 33
M  V30 END BOND
M  V30 END CTAB
M  END
>  <Molecule Name>
Compound 662

>  <Molecule Name 2>
Compound 662

>  <Compound ID>
210

>  <Name>


>  <Uniprot>
P19525

>  <Target>
EIF2AK2

>  <Smiles>
CCN1CCN(C2=CC=C(NC3=NC=C4SC=C(C5=CC=CC(NS(C)(=O)=O)=C5)C4=N3)C=C2)CC1

>  <Kd (nM)>


>  <Assay (Kd)>


>  <Ki (nM)>


>  <Assay (Ki)>


>  <IC50 (nM)>


>  <Assay (IC50)>


>  <EC50 (nM)>


>  <Assay (EC50)>


>  <Article DOI>
10.1016/j.cell.2020.10.038

>  <Molecular Weight>
508.673

>  <Exact Mass>
508.1715161

>  <XLogP3>
4.08

>  <Heavy Atom Count>
35

>  <Ring Count>
5

>  <Hydrogen Bond Acceptor Count>
8

>  <Hydrogen Bond Donor Count>
2

>  <Rotatable Bond Count>
7

>  <Topological Polar Surface Area>
90.46

>  <Molecular Formula>
C25H28N6O2S2

>  <InChI>
InChI=1S/C25H28N6O2S2/c1-3-30-11-13-31(14-12-30)21-9-7-19(8-10-21)27-25-26-16-23-24(28-25)22(17-34-23)18-5-4-6-20(15-18)29-35(2,32)33/h4-10,15-17,29H,3,11-14H2,1-2H3,(H,26,27,28)

>  <InChI Key>
MQMVBXQAIMTOTQ-UHFFFAOYSA-N

>  <BindingDB>


>  <PubChem>
90466261

>  <ChEMBL>


$$$$
210
Actelion Java MolfileCreator 2.0

  0  0  0  0  0  0              0 V3000
M  V30 BEGIN CTAB
M  V30 COUNTS 35 39 0 0 0
M  V30 BEGIN ATOM
M  V30 1 S 1.732 -0.5 0.0 0
M  V30 2 O 1.232 -1.366 0.0 0
M  V30 3 O 2.232 0.366 0.0 0
M  V30 4 N 0.866 0.0 0.0 0
M  V30 5 C 2.598 -0.9999 0.0 0
M  V30 6 C 0.0 -0.5 0.0 0
M  V30 7 C -0.866 0.0 0.0 0
M  V30 8 C 0.0 -1.4999 0.0 0
M  V30 9 C -1.732 -0.4999 0.0 0
M  V30 10 C -0.866 -1.9999 0.0 0
M  V30 11 C -2.598 0.0 0.0 0
M  V30 12 C -1.732 -1.4999 0.0 0
M  V30 13 C -2.7026 0.9945 0.0 0
M  V30 14 C -3.5116 -0.4067 0.0 0
M  V30 15 N -2.0334 1.7376 0.0 0
M  V30 16 C -3.6807 1.2024 0.0 0
M  V30 17 S -4.1807 0.3364 0.0 0
M  V30 18 C -2.3424 2.6887 0.0 0
M  V30 19 C -3.9897 2.1534 0.0 0
M  V30 20 N -3.3206 2.8966 0.0 0
M  V30 21 N -1.6733 3.4318 0.0 0
M  V30 22 C -1.9823 4.3829 0.0 0
M  V30 23 C -1.3132 5.126 0.0 0
M  V30 24 C -2.9605 4.5908 0.0 0
M  V30 25 C -1.6222 6.0771 0.0 0
M  V30 26 C -3.2695 5.5418 0.0 0
M  V30 27 C -2.6004 6.285 0.0 0
M  V30 28 N -2.9094 7.236 0.0 0
M  V30 29 C -2.2402 7.9792 0.0 0
M  V30 30 C -3.8875 7.444 0.0 0
M  V30 31 C -2.5493 8.9302 0.0 0
M  V30 32 C -4.1965 8.395 0.0 0
M  V30 33 N -3.5274 9.1382 0.0 0
M  V30 34 C -3.8364 10.0892 0.0 0
M  V30 35 C -4.8146 10.2971 0.0 0
M  V30 END ATOM
M  V30 BEGIN BOND
M  V30 1 2 1 2
M  V30 2 2 1 3
M  V30 3 1 1 4
M  V30 4 1 1 5
M  V30 5 1 4 6
M  V30 6 2 6 7
M  V30 7 1 6 8
M  V30 8 1 7 9
M  V30 9 2 8 10
M  V30 10 1 9 11
M  V30 11 2 9 12
M  V30 12 1 11 13
M  V30 13 2 11 14
M  V30 14 2 13 15
M  V30 15 1 13 16
M  V30 16 1 14 17
M  V30 17 1 15 18
M  V30 18 2 16 19
M  V30 19 2 18 20
M  V30 20 1 18 21
M  V30 21 1 21 22
M  V30 22 2 22 23
M  V30 23 1 22 24
M  V30 24 1 23 25
M  V30 25 2 24 26
M  V30 26 2 25 27
M  V30 27 1 27 28
M  V30 28 1 28 29
M  V30 29 1 28 30
M  V30 30 1 29 31
M  V30 31 1 30 32
M  V30 32 1 31 33
M  V30 33 1 33 34
M  V30 34 1 34 35
M  V30 35 1 10 12
M  V30 36 1 16 17
M  V30 37 1 19 20
M  V30 38 1 26 27
M  V30 39 1 32 33
M  V30 END BOND
M  V30 END CTAB
M  END
>  <Molecule Name>
Compound 663

>  <Molecule Name 2>
Compound 663

>  <Compound ID>
210

>  <Name>


>  <Uniprot>
Q9P2K8

>  <Target>
EIF2AK4

>  <Smiles>
CCN1CCN(C2=CC=C(NC3=NC=C4SC=C(C5=CC=CC(NS(C)(=O)=O)=C5)C4=N3)C=C2)CC1

>  <Kd (nM)>


>  <Assay (Kd)>


>  <Ki (nM)>


>  <Assay (Ki)>


>  <IC50 (nM)>


>  <Assay (IC50)>


>  <EC50 (nM)>


>  <Assay (EC50)>


>  <Article DOI>
10.1016/j.cell.2020.10.038

>  <Molecular Weight>
508.673

>  <Exact Mass>
508.1715161

>  <XLogP3>
4.08

>  <Heavy Atom Count>
35

>  <Ring Count>
5

>  <Hydrogen Bond Acceptor Count>
8

>  <Hydrogen Bond Donor Count>
2

>  <Rotatable Bond Count>
7

>  <Topological Polar Surface Area>
90.46

>  <Molecular Formula>
C25H28N6O2S2

>  <InChI>
InChI=1S/C25H28N6O2S2/c1-3-30-11-13-31(14-12-30)21-9-7-19(8-10-21)27-25-26-16-23-24(28-25)22(17-34-23)18-5-4-6-20(15-18)29-35(2,32)33/h4-10,15-17,29H,3,11-14H2,1-2H3,(H,26,27,28)

>  <InChI Key>
MQMVBXQAIMTOTQ-UHFFFAOYSA-N

>  <BindingDB>


>  <PubChem>
90466261

>  <ChEMBL>


$$$$
210
Actelion Java MolfileCreator 2.0

  0  0  0  0  0  0              0 V3000
M  V30 BEGIN CTAB
M  V30 COUNTS 35 39 0 0 0
M  V30 BEGIN ATOM
M  V30 1 S 1.732 -0.5 0.0 0
M  V30 2 O 1.232 -1.366 0.0 0
M  V30 3 O 2.232 0.366 0.0 0
M  V30 4 N 0.866 0.0 0.0 0
M  V30 5 C 2.598 -0.9999 0.0 0
M  V30 6 C 0.0 -0.5 0.0 0
M  V30 7 C -0.866 0.0 0.0 0
M  V30 8 C 0.0 -1.4999 0.0 0
M  V30 9 C -1.732 -0.4999 0.0 0
M  V30 10 C -0.866 -1.9999 0.0 0
M  V30 11 C -2.598 0.0 0.0 0
M  V30 12 C -1.732 -1.4999 0.0 0
M  V30 13 C -2.7026 0.9945 0.0 0
M  V30 14 C -3.5116 -0.4067 0.0 0
M  V30 15 N -2.0334 1.7376 0.0 0
M  V30 16 C -3.6807 1.2024 0.0 0
M  V30 17 S -4.1807 0.3364 0.0 0
M  V30 18 C -2.3424 2.6887 0.0 0
M  V30 19 C -3.9897 2.1534 0.0 0
M  V30 20 N -3.3206 2.8966 0.0 0
M  V30 21 N -1.6733 3.4318 0.0 0
M  V30 22 C -1.9823 4.3829 0.0 0
M  V30 23 C -1.3132 5.126 0.0 0
M  V30 24 C -2.9605 4.5908 0.0 0
M  V30 25 C -1.6222 6.0771 0.0 0
M  V30 26 C -3.2695 5.5418 0.0 0
M  V30 27 C -2.6004 6.285 0.0 0
M  V30 28 N -2.9094 7.236 0.0 0
M  V30 29 C -2.2402 7.9792 0.0 0
M  V30 30 C -3.8875 7.444 0.0 0
M  V30 31 C -2.5493 8.9302 0.0 0
M  V30 32 C -4.1965 8.395 0.0 0
M  V30 33 N -3.5274 9.1382 0.0 0
M  V30 34 C -3.8364 10.0892 0.0 0
M  V30 35 C -4.8146 10.2971 0.0 0
M  V30 END ATOM
M  V30 BEGIN BOND
M  V30 1 2 1 2
M  V30 2 2 1 3
M  V30 3 1 1 4
M  V30 4 1 1 5
M  V30 5 1 4 6
M  V30 6 2 6 7
M  V30 7 1 6 8
M  V30 8 1 7 9
M  V30 9 2 8 10
M  V30 10 1 9 11
M  V30 11 2 9 12
M  V30 12 1 11 13
M  V30 13 2 11 14
M  V30 14 2 13 15
M  V30 15 1 13 16
M  V30 16 1 14 17
M  V30 17 1 15 18
M  V30 18 2 16 19
M  V30 19 2 18 20
M  V30 20 1 18 21
M  V30 21 1 21 22
M  V30 22 2 22 23
M  V30 23 1 22 24
M  V30 24 1 23 25
M  V30 25 2 24 26
M  V30 26 2 25 27
M  V30 27 1 27 28
M  V30 28 1 28 29
M  V30 29 1 28 30
M  V30 30 1 29 31
M  V30 31 1 30 32
M  V30 32 1 31 33
M  V30 33 1 33 34
M  V30 34 1 34 35
M  V30 35 1 10 12
M  V30 36 1 16 17
M  V30 37 1 19 20
M  V30 38 1 26 27
M  V30 39 1 32 33
M  V30 END BOND
M  V30 END CTAB
M  END
>  <Molecule Name>
Compound 664

>  <Molecule Name 2>
Compound 664

>  <Compound ID>
210

>  <Name>


>  <Uniprot>
P16591

>  <Target>
FER

>  <Smiles>
CCN1CCN(C2=CC=C(NC3=NC=C4SC=C(C5=CC=CC(NS(C)(=O)=O)=C5)C4=N3)C=C2)CC1

>  <Kd (nM)>


>  <Assay (Kd)>


>  <Ki (nM)>


>  <Assay (Ki)>


>  <IC50 (nM)>


>  <Assay (IC50)>


>  <EC50 (nM)>


>  <Assay (EC50)>


>  <Article DOI>
10.1016/j.cell.2020.10.038

>  <Molecular Weight>
508.673

>  <Exact Mass>
508.1715161

>  <XLogP3>
4.08

>  <Heavy Atom Count>
35

>  <Ring Count>
5

>  <Hydrogen Bond Acceptor Count>
8

>  <Hydrogen Bond Donor Count>
2

>  <Rotatable Bond Count>
7

>  <Topological Polar Surface Area>
90.46

>  <Molecular Formula>
C25H28N6O2S2

>  <InChI>
InChI=1S/C25H28N6O2S2/c1-3-30-11-13-31(14-12-30)21-9-7-19(8-10-21)27-25-26-16-23-24(28-25)22(17-34-23)18-5-4-6-20(15-18)29-35(2,32)33/h4-10,15-17,29H,3,11-14H2,1-2H3,(H,26,27,28)

>  <InChI Key>
MQMVBXQAIMTOTQ-UHFFFAOYSA-N

>  <BindingDB>


>  <PubChem>
90466261

>  <ChEMBL>


$$$$
210
Actelion Java MolfileCreator 2.0

  0  0  0  0  0  0              0 V3000
M  V30 BEGIN CTAB
M  V30 COUNTS 35 39 0 0 0
M  V30 BEGIN ATOM
M  V30 1 S 1.732 -0.5 0.0 0
M  V30 2 O 1.232 -1.366 0.0 0
M  V30 3 O 2.232 0.366 0.0 0
M  V30 4 N 0.866 0.0 0.0 0
M  V30 5 C 2.598 -0.9999 0.0 0
M  V30 6 C 0.0 -0.5 0.0 0
M  V30 7 C -0.866 0.0 0.0 0
M  V30 8 C 0.0 -1.4999 0.0 0
M  V30 9 C -1.732 -0.4999 0.0 0
M  V30 10 C -0.866 -1.9999 0.0 0
M  V30 11 C -2.598 0.0 0.0 0
M  V30 12 C -1.732 -1.4999 0.0 0
M  V30 13 C -2.7026 0.9945 0.0 0
M  V30 14 C -3.5116 -0.4067 0.0 0
M  V30 15 N -2.0334 1.7376 0.0 0
M  V30 16 C -3.6807 1.2024 0.0 0
M  V30 17 S -4.1807 0.3364 0.0 0
M  V30 18 C -2.3424 2.6887 0.0 0
M  V30 19 C -3.9897 2.1534 0.0 0
M  V30 20 N -3.3206 2.8966 0.0 0
M  V30 21 N -1.6733 3.4318 0.0 0
M  V30 22 C -1.9823 4.3829 0.0 0
M  V30 23 C -1.3132 5.126 0.0 0
M  V30 24 C -2.9605 4.5908 0.0 0
M  V30 25 C -1.6222 6.0771 0.0 0
M  V30 26 C -3.2695 5.5418 0.0 0
M  V30 27 C -2.6004 6.285 0.0 0
M  V30 28 N -2.9094 7.236 0.0 0
M  V30 29 C -2.2402 7.9792 0.0 0
M  V30 30 C -3.8875 7.444 0.0 0
M  V30 31 C -2.5493 8.9302 0.0 0
M  V30 32 C -4.1965 8.395 0.0 0
M  V30 33 N -3.5274 9.1382 0.0 0
M  V30 34 C -3.8364 10.0892 0.0 0
M  V30 35 C -4.8146 10.2971 0.0 0
M  V30 END ATOM
M  V30 BEGIN BOND
M  V30 1 2 1 2
M  V30 2 2 1 3
M  V30 3 1 1 4
M  V30 4 1 1 5
M  V30 5 1 4 6
M  V30 6 2 6 7
M  V30 7 1 6 8
M  V30 8 1 7 9
M  V30 9 2 8 10
M  V30 10 1 9 11
M  V30 11 2 9 12
M  V30 12 1 11 13
M  V30 13 2 11 14
M  V30 14 2 13 15
M  V30 15 1 13 16
M  V30 16 1 14 17
M  V30 17 1 15 18
M  V30 18 2 16 19
M  V30 19 2 18 20
M  V30 20 1 18 21
M  V30 21 1 21 22
M  V30 22 2 22 23
M  V30 23 1 22 24
M  V30 24 1 23 25
M  V30 25 2 24 26
M  V30 26 2 25 27
M  V30 27 1 27 28
M  V30 28 1 28 29
M  V30 29 1 28 30
M  V30 30 1 29 31
M  V30 31 1 30 32
M  V30 32 1 31 33
M  V30 33 1 33 34
M  V30 34 1 34 35
M  V30 35 1 10 12
M  V30 36 1 16 17
M  V30 37 1 19 20
M  V30 38 1 26 27
M  V30 39 1 32 33
M  V30 END BOND
M  V30 END CTAB
M  END
>  <Molecule Name>
Compound 665

>  <Molecule Name 2>
Compound 665

>  <Compound ID>
210

>  <Name>


>  <Uniprot>
O14976

>  <Target>
GAK

>  <Smiles>
CCN1CCN(C2=CC=C(NC3=NC=C4SC=C(C5=CC=CC(NS(C)(=O)=O)=C5)C4=N3)C=C2)CC1

>  <Kd (nM)>


>  <Assay (Kd)>


>  <Ki (nM)>


>  <Assay (Ki)>


>  <IC50 (nM)>


>  <Assay (IC50)>


>  <EC50 (nM)>


>  <Assay (EC50)>


>  <Article DOI>
10.1016/j.cell.2020.10.038

>  <Molecular Weight>
508.673

>  <Exact Mass>
508.1715161

>  <XLogP3>
4.08

>  <Heavy Atom Count>
35

>  <Ring Count>
5

>  <Hydrogen Bond Acceptor Count>
8

>  <Hydrogen Bond Donor Count>
2

>  <Rotatable Bond Count>
7

>  <Topological Polar Surface Area>
90.46

>  <Molecular Formula>
C25H28N6O2S2

>  <InChI>
InChI=1S/C25H28N6O2S2/c1-3-30-11-13-31(14-12-30)21-9-7-19(8-10-21)27-25-26-16-23-24(28-25)22(17-34-23)18-5-4-6-20(15-18)29-35(2,32)33/h4-10,15-17,29H,3,11-14H2,1-2H3,(H,26,27,28)

>  <InChI Key>
MQMVBXQAIMTOTQ-UHFFFAOYSA-N

>  <BindingDB>


>  <PubChem>
90466261

>  <ChEMBL>


$$$$
210
Actelion Java MolfileCreator 2.0

  0  0  0  0  0  0              0 V3000
M  V30 BEGIN CTAB
M  V30 COUNTS 35 39 0 0 0
M  V30 BEGIN ATOM
M  V30 1 S 1.732 -0.5 0.0 0
M  V30 2 O 1.232 -1.366 0.0 0
M  V30 3 O 2.232 0.366 0.0 0
M  V30 4 N 0.866 0.0 0.0 0
M  V30 5 C 2.598 -0.9999 0.0 0
M  V30 6 C 0.0 -0.5 0.0 0
M  V30 7 C -0.866 0.0 0.0 0
M  V30 8 C 0.0 -1.4999 0.0 0
M  V30 9 C -1.732 -0.4999 0.0 0
M  V30 10 C -0.866 -1.9999 0.0 0
M  V30 11 C -2.598 0.0 0.0 0
M  V30 12 C -1.732 -1.4999 0.0 0
M  V30 13 C -2.7026 0.9945 0.0 0
M  V30 14 C -3.5116 -0.4067 0.0 0
M  V30 15 N -2.0334 1.7376 0.0 0
M  V30 16 C -3.6807 1.2024 0.0 0
M  V30 17 S -4.1807 0.3364 0.0 0
M  V30 18 C -2.3424 2.6887 0.0 0
M  V30 19 C -3.9897 2.1534 0.0 0
M  V30 20 N -3.3206 2.8966 0.0 0
M  V30 21 N -1.6733 3.4318 0.0 0
M  V30 22 C -1.9823 4.3829 0.0 0
M  V30 23 C -1.3132 5.126 0.0 0
M  V30 24 C -2.9605 4.5908 0.0 0
M  V30 25 C -1.6222 6.0771 0.0 0
M  V30 26 C -3.2695 5.5418 0.0 0
M  V30 27 C -2.6004 6.285 0.0 0
M  V30 28 N -2.9094 7.236 0.0 0
M  V30 29 C -2.2402 7.9792 0.0 0
M  V30 30 C -3.8875 7.444 0.0 0
M  V30 31 C -2.5493 8.9302 0.0 0
M  V30 32 C -4.1965 8.395 0.0 0
M  V30 33 N -3.5274 9.1382 0.0 0
M  V30 34 C -3.8364 10.0892 0.0 0
M  V30 35 C -4.8146 10.2971 0.0 0
M  V30 END ATOM
M  V30 BEGIN BOND
M  V30 1 2 1 2
M  V30 2 2 1 3
M  V30 3 1 1 4
M  V30 4 1 1 5
M  V30 5 1 4 6
M  V30 6 2 6 7
M  V30 7 1 6 8
M  V30 8 1 7 9
M  V30 9 2 8 10
M  V30 10 1 9 11
M  V30 11 2 9 12
M  V30 12 1 11 13
M  V30 13 2 11 14
M  V30 14 2 13 15
M  V30 15 1 13 16
M  V30 16 1 14 17
M  V30 17 1 15 18
M  V30 18 2 16 19
M  V30 19 2 18 20
M  V30 20 1 18 21
M  V30 21 1 21 22
M  V30 22 2 22 23
M  V30 23 1 22 24
M  V30 24 1 23 25
M  V30 25 2 24 26
M  V30 26 2 25 27
M  V30 27 1 27 28
M  V30 28 1 28 29
M  V30 29 1 28 30
M  V30 30 1 29 31
M  V30 31 1 30 32
M  V30 32 1 31 33
M  V30 33 1 33 34
M  V30 34 1 34 35
M  V30 35 1 10 12
M  V30 36 1 16 17
M  V30 37 1 19 20
M  V30 38 1 26 27
M  V30 39 1 32 33
M  V30 END BOND
M  V30 END CTAB
M  END
>  <Molecule Name>
Compound 666

>  <Molecule Name 2>
Compound 666

>  <Compound ID>
210

>  <Name>


>  <Uniprot>
O95835

>  <Target>
LATS1

>  <Smiles>
CCN1CCN(C2=CC=C(NC3=NC=C4SC=C(C5=CC=CC(NS(C)(=O)=O)=C5)C4=N3)C=C2)CC1

>  <Kd (nM)>


>  <Assay (Kd)>


>  <Ki (nM)>


>  <Assay (Ki)>


>  <IC50 (nM)>


>  <Assay (IC50)>


>  <EC50 (nM)>


>  <Assay (EC50)>


>  <Article DOI>
10.1016/j.cell.2020.10.038

>  <Molecular Weight>
508.673

>  <Exact Mass>
508.1715161

>  <XLogP3>
4.08

>  <Heavy Atom Count>
35

>  <Ring Count>
5

>  <Hydrogen Bond Acceptor Count>
8

>  <Hydrogen Bond Donor Count>
2

>  <Rotatable Bond Count>
7

>  <Topological Polar Surface Area>
90.46

>  <Molecular Formula>
C25H28N6O2S2

>  <InChI>
InChI=1S/C25H28N6O2S2/c1-3-30-11-13-31(14-12-30)21-9-7-19(8-10-21)27-25-26-16-23-24(28-25)22(17-34-23)18-5-4-6-20(15-18)29-35(2,32)33/h4-10,15-17,29H,3,11-14H2,1-2H3,(H,26,27,28)

>  <InChI Key>
MQMVBXQAIMTOTQ-UHFFFAOYSA-N

>  <BindingDB>


>  <PubChem>
90466261

>  <ChEMBL>


$$$$
210
Actelion Java MolfileCreator 2.0

  0  0  0  0  0  0              0 V3000
M  V30 BEGIN CTAB
M  V30 COUNTS 35 39 0 0 0
M  V30 BEGIN ATOM
M  V30 1 S 1.732 -0.5 0.0 0
M  V30 2 O 1.232 -1.366 0.0 0
M  V30 3 O 2.232 0.366 0.0 0
M  V30 4 N 0.866 0.0 0.0 0
M  V30 5 C 2.598 -0.9999 0.0 0
M  V30 6 C 0.0 -0.5 0.0 0
M  V30 7 C -0.866 0.0 0.0 0
M  V30 8 C 0.0 -1.4999 0.0 0
M  V30 9 C -1.732 -0.4999 0.0 0
M  V30 10 C -0.866 -1.9999 0.0 0
M  V30 11 C -2.598 0.0 0.0 0
M  V30 12 C -1.732 -1.4999 0.0 0
M  V30 13 C -2.7026 0.9945 0.0 0
M  V30 14 C -3.5116 -0.4067 0.0 0
M  V30 15 N -2.0334 1.7376 0.0 0
M  V30 16 C -3.6807 1.2024 0.0 0
M  V30 17 S -4.1807 0.3364 0.0 0
M  V30 18 C -2.3424 2.6887 0.0 0
M  V30 19 C -3.9897 2.1534 0.0 0
M  V30 20 N -3.3206 2.8966 0.0 0
M  V30 21 N -1.6733 3.4318 0.0 0
M  V30 22 C -1.9823 4.3829 0.0 0
M  V30 23 C -1.3132 5.126 0.0 0
M  V30 24 C -2.9605 4.5908 0.0 0
M  V30 25 C -1.6222 6.0771 0.0 0
M  V30 26 C -3.2695 5.5418 0.0 0
M  V30 27 C -2.6004 6.285 0.0 0
M  V30 28 N -2.9094 7.236 0.0 0
M  V30 29 C -2.2402 7.9792 0.0 0
M  V30 30 C -3.8875 7.444 0.0 0
M  V30 31 C -2.5493 8.9302 0.0 0
M  V30 32 C -4.1965 8.395 0.0 0
M  V30 33 N -3.5274 9.1382 0.0 0
M  V30 34 C -3.8364 10.0892 0.0 0
M  V30 35 C -4.8146 10.2971 0.0 0
M  V30 END ATOM
M  V30 BEGIN BOND
M  V30 1 2 1 2
M  V30 2 2 1 3
M  V30 3 1 1 4
M  V30 4 1 1 5
M  V30 5 1 4 6
M  V30 6 2 6 7
M  V30 7 1 6 8
M  V30 8 1 7 9
M  V30 9 2 8 10
M  V30 10 1 9 11
M  V30 11 2 9 12
M  V30 12 1 11 13
M  V30 13 2 11 14
M  V30 14 2 13 15
M  V30 15 1 13 16
M  V30 16 1 14 17
M  V30 17 1 15 18
M  V30 18 2 16 19
M  V30 19 2 18 20
M  V30 20 1 18 21
M  V30 21 1 21 22
M  V30 22 2 22 23
M  V30 23 1 22 24
M  V30 24 1 23 25
M  V30 25 2 24 26
M  V30 26 2 25 27
M  V30 27 1 27 28
M  V30 28 1 28 29
M  V30 29 1 28 30
M  V30 30 1 29 31
M  V30 31 1 30 32
M  V30 32 1 31 33
M  V30 33 1 33 34
M  V30 34 1 34 35
M  V30 35 1 10 12
M  V30 36 1 16 17
M  V30 37 1 19 20
M  V30 38 1 26 27
M  V30 39 1 32 33
M  V30 END BOND
M  V30 END CTAB
M  END
>  <Molecule Name>
Compound 667

>  <Molecule Name 2>
Compound 667

>  <Compound ID>
210

>  <Name>


>  <Uniprot>
P06239

>  <Target>
LCK

>  <Smiles>
CCN1CCN(C2=CC=C(NC3=NC=C4SC=C(C5=CC=CC(NS(C)(=O)=O)=C5)C4=N3)C=C2)CC1

>  <Kd (nM)>


>  <Assay (Kd)>


>  <Ki (nM)>


>  <Assay (Ki)>


>  <IC50 (nM)>


>  <Assay (IC50)>


>  <EC50 (nM)>


>  <Assay (EC50)>


>  <Article DOI>
10.1016/j.cell.2020.10.038

>  <Molecular Weight>
508.673

>  <Exact Mass>
508.1715161

>  <XLogP3>
4.08

>  <Heavy Atom Count>
35

>  <Ring Count>
5

>  <Hydrogen Bond Acceptor Count>
8

>  <Hydrogen Bond Donor Count>
2

>  <Rotatable Bond Count>
7

>  <Topological Polar Surface Area>
90.46

>  <Molecular Formula>
C25H28N6O2S2

>  <InChI>
InChI=1S/C25H28N6O2S2/c1-3-30-11-13-31(14-12-30)21-9-7-19(8-10-21)27-25-26-16-23-24(28-25)22(17-34-23)18-5-4-6-20(15-18)29-35(2,32)33/h4-10,15-17,29H,3,11-14H2,1-2H3,(H,26,27,28)

>  <InChI Key>
MQMVBXQAIMTOTQ-UHFFFAOYSA-N

>  <BindingDB>


>  <PubChem>
90466261

>  <ChEMBL>


$$$$
210
Actelion Java MolfileCreator 2.0

  0  0  0  0  0  0              0 V3000
M  V30 BEGIN CTAB
M  V30 COUNTS 35 39 0 0 0
M  V30 BEGIN ATOM
M  V30 1 S 1.732 -0.5 0.0 0
M  V30 2 O 1.232 -1.366 0.0 0
M  V30 3 O 2.232 0.366 0.0 0
M  V30 4 N 0.866 0.0 0.0 0
M  V30 5 C 2.598 -0.9999 0.0 0
M  V30 6 C 0.0 -0.5 0.0 0
M  V30 7 C -0.866 0.0 0.0 0
M  V30 8 C 0.0 -1.4999 0.0 0
M  V30 9 C -1.732 -0.4999 0.0 0
M  V30 10 C -0.866 -1.9999 0.0 0
M  V30 11 C -2.598 0.0 0.0 0
M  V30 12 C -1.732 -1.4999 0.0 0
M  V30 13 C -2.7026 0.9945 0.0 0
M  V30 14 C -3.5116 -0.4067 0.0 0
M  V30 15 N -2.0334 1.7376 0.0 0
M  V30 16 C -3.6807 1.2024 0.0 0
M  V30 17 S -4.1807 0.3364 0.0 0
M  V30 18 C -2.3424 2.6887 0.0 0
M  V30 19 C -3.9897 2.1534 0.0 0
M  V30 20 N -3.3206 2.8966 0.0 0
M  V30 21 N -1.6733 3.4318 0.0 0
M  V30 22 C -1.9823 4.3829 0.0 0
M  V30 23 C -1.3132 5.126 0.0 0
M  V30 24 C -2.9605 4.5908 0.0 0
M  V30 25 C -1.6222 6.0771 0.0 0
M  V30 26 C -3.2695 5.5418 0.0 0
M  V30 27 C -2.6004 6.285 0.0 0
M  V30 28 N -2.9094 7.236 0.0 0
M  V30 29 C -2.2402 7.9792 0.0 0
M  V30 30 C -3.8875 7.444 0.0 0
M  V30 31 C -2.5493 8.9302 0.0 0
M  V30 32 C -4.1965 8.395 0.0 0
M  V30 33 N -3.5274 9.1382 0.0 0
M  V30 34 C -3.8364 10.0892 0.0 0
M  V30 35 C -4.8146 10.2971 0.0 0
M  V30 END ATOM
M  V30 BEGIN BOND
M  V30 1 2 1 2
M  V30 2 2 1 3
M  V30 3 1 1 4
M  V30 4 1 1 5
M  V30 5 1 4 6
M  V30 6 2 6 7
M  V30 7 1 6 8
M  V30 8 1 7 9
M  V30 9 2 8 10
M  V30 10 1 9 11
M  V30 11 2 9 12
M  V30 12 1 11 13
M  V30 13 2 11 14
M  V30 14 2 13 15
M  V30 15 1 13 16
M  V30 16 1 14 17
M  V30 17 1 15 18
M  V30 18 2 16 19
M  V30 19 2 18 20
M  V30 20 1 18 21
M  V30 21 1 21 22
M  V30 22 2 22 23
M  V30 23 1 22 24
M  V30 24 1 23 25
M  V30 25 2 24 26
M  V30 26 2 25 27
M  V30 27 1 27 28
M  V30 28 1 28 29
M  V30 29 1 28 30
M  V30 30 1 29 31
M  V30 31 1 30 32
M  V30 32 1 31 33
M  V30 33 1 33 34
M  V30 34 1 34 35
M  V30 35 1 10 12
M  V30 36 1 16 17
M  V30 37 1 19 20
M  V30 38 1 26 27
M  V30 39 1 32 33
M  V30 END BOND
M  V30 END CTAB
M  END
>  <Molecule Name>
Compound 668

>  <Molecule Name 2>
Compound 668

>  <Compound ID>
210

>  <Name>


>  <Uniprot>
P53671

>  <Target>
LIMK2

>  <Smiles>
CCN1CCN(C2=CC=C(NC3=NC=C4SC=C(C5=CC=CC(NS(C)(=O)=O)=C5)C4=N3)C=C2)CC1

>  <Kd (nM)>


>  <Assay (Kd)>


>  <Ki (nM)>


>  <Assay (Ki)>


>  <IC50 (nM)>


>  <Assay (IC50)>


>  <EC50 (nM)>


>  <Assay (EC50)>


>  <Article DOI>
10.1016/j.cell.2020.10.038

>  <Molecular Weight>
508.673

>  <Exact Mass>
508.1715161

>  <XLogP3>
4.08

>  <Heavy Atom Count>
35

>  <Ring Count>
5

>  <Hydrogen Bond Acceptor Count>
8

>  <Hydrogen Bond Donor Count>
2

>  <Rotatable Bond Count>
7

>  <Topological Polar Surface Area>
90.46

>  <Molecular Formula>
C25H28N6O2S2

>  <InChI>
InChI=1S/C25H28N6O2S2/c1-3-30-11-13-31(14-12-30)21-9-7-19(8-10-21)27-25-26-16-23-24(28-25)22(17-34-23)18-5-4-6-20(15-18)29-35(2,32)33/h4-10,15-17,29H,3,11-14H2,1-2H3,(H,26,27,28)

>  <InChI Key>
MQMVBXQAIMTOTQ-UHFFFAOYSA-N

>  <BindingDB>


>  <PubChem>
90466261

>  <ChEMBL>


$$$$
210
Actelion Java MolfileCreator 2.0

  0  0  0  0  0  0              0 V3000
M  V30 BEGIN CTAB
M  V30 COUNTS 35 39 0 0 0
M  V30 BEGIN ATOM
M  V30 1 S 1.732 -0.5 0.0 0
M  V30 2 O 1.232 -1.366 0.0 0
M  V30 3 O 2.232 0.366 0.0 0
M  V30 4 N 0.866 0.0 0.0 0
M  V30 5 C 2.598 -0.9999 0.0 0
M  V30 6 C 0.0 -0.5 0.0 0
M  V30 7 C -0.866 0.0 0.0 0
M  V30 8 C 0.0 -1.4999 0.0 0
M  V30 9 C -1.732 -0.4999 0.0 0
M  V30 10 C -0.866 -1.9999 0.0 0
M  V30 11 C -2.598 0.0 0.0 0
M  V30 12 C -1.732 -1.4999 0.0 0
M  V30 13 C -2.7026 0.9945 0.0 0
M  V30 14 C -3.5116 -0.4067 0.0 0
M  V30 15 N -2.0334 1.7376 0.0 0
M  V30 16 C -3.6807 1.2024 0.0 0
M  V30 17 S -4.1807 0.3364 0.0 0
M  V30 18 C -2.3424 2.6887 0.0 0
M  V30 19 C -3.9897 2.1534 0.0 0
M  V30 20 N -3.3206 2.8966 0.0 0
M  V30 21 N -1.6733 3.4318 0.0 0
M  V30 22 C -1.9823 4.3829 0.0 0
M  V30 23 C -1.3132 5.126 0.0 0
M  V30 24 C -2.9605 4.5908 0.0 0
M  V30 25 C -1.6222 6.0771 0.0 0
M  V30 26 C -3.2695 5.5418 0.0 0
M  V30 27 C -2.6004 6.285 0.0 0
M  V30 28 N -2.9094 7.236 0.0 0
M  V30 29 C -2.2402 7.9792 0.0 0
M  V30 30 C -3.8875 7.444 0.0 0
M  V30 31 C -2.5493 8.9302 0.0 0
M  V30 32 C -4.1965 8.395 0.0 0
M  V30 33 N -3.5274 9.1382 0.0 0
M  V30 34 C -3.8364 10.0892 0.0 0
M  V30 35 C -4.8146 10.2971 0.0 0
M  V30 END ATOM
M  V30 BEGIN BOND
M  V30 1 2 1 2
M  V30 2 2 1 3
M  V30 3 1 1 4
M  V30 4 1 1 5
M  V30 5 1 4 6
M  V30 6 2 6 7
M  V30 7 1 6 8
M  V30 8 1 7 9
M  V30 9 2 8 10
M  V30 10 1 9 11
M  V30 11 2 9 12
M  V30 12 1 11 13
M  V30 13 2 11 14
M  V30 14 2 13 15
M  V30 15 1 13 16
M  V30 16 1 14 17
M  V30 17 1 15 18
M  V30 18 2 16 19
M  V30 19 2 18 20
M  V30 20 1 18 21
M  V30 21 1 21 22
M  V30 22 2 22 23
M  V30 23 1 22 24
M  V30 24 1 23 25
M  V30 25 2 24 26
M  V30 26 2 25 27
M  V30 27 1 27 28
M  V30 28 1 28 29
M  V30 29 1 28 30
M  V30 30 1 29 31
M  V30 31 1 30 32
M  V30 32 1 31 33
M  V30 33 1 33 34
M  V30 34 1 34 35
M  V30 35 1 10 12
M  V30 36 1 16 17
M  V30 37 1 19 20
M  V30 38 1 26 27
M  V30 39 1 32 33
M  V30 END BOND
M  V30 END CTAB
M  END
>  <Molecule Name>
Compound 669

>  <Molecule Name 2>
Compound 669

>  <Compound ID>
210

>  <Name>


>  <Uniprot>
Q16584

>  <Target>
MAP3K11

>  <Smiles>
CCN1CCN(C2=CC=C(NC3=NC=C4SC=C(C5=CC=CC(NS(C)(=O)=O)=C5)C4=N3)C=C2)CC1

>  <Kd (nM)>


>  <Assay (Kd)>


>  <Ki (nM)>


>  <Assay (Ki)>


>  <IC50 (nM)>


>  <Assay (IC50)>


>  <EC50 (nM)>


>  <Assay (EC50)>


>  <Article DOI>
10.1016/j.cell.2020.10.038

>  <Molecular Weight>
508.673

>  <Exact Mass>
508.1715161

>  <XLogP3>
4.08

>  <Heavy Atom Count>
35

>  <Ring Count>
5

>  <Hydrogen Bond Acceptor Count>
8

>  <Hydrogen Bond Donor Count>
2

>  <Rotatable Bond Count>
7

>  <Topological Polar Surface Area>
90.46

>  <Molecular Formula>
C25H28N6O2S2

>  <InChI>
InChI=1S/C25H28N6O2S2/c1-3-30-11-13-31(14-12-30)21-9-7-19(8-10-21)27-25-26-16-23-24(28-25)22(17-34-23)18-5-4-6-20(15-18)29-35(2,32)33/h4-10,15-17,29H,3,11-14H2,1-2H3,(H,26,27,28)

>  <InChI Key>
MQMVBXQAIMTOTQ-UHFFFAOYSA-N

>  <BindingDB>


>  <PubChem>
90466261

>  <ChEMBL>


$$$$
210
Actelion Java MolfileCreator 2.0

  0  0  0  0  0  0              0 V3000
M  V30 BEGIN CTAB
M  V30 COUNTS 35 39 0 0 0
M  V30 BEGIN ATOM
M  V30 1 S 1.732 -0.5 0.0 0
M  V30 2 O 1.232 -1.366 0.0 0
M  V30 3 O 2.232 0.366 0.0 0
M  V30 4 N 0.866 0.0 0.0 0
M  V30 5 C 2.598 -0.9999 0.0 0
M  V30 6 C 0.0 -0.5 0.0 0
M  V30 7 C -0.866 0.0 0.0 0
M  V30 8 C 0.0 -1.4999 0.0 0
M  V30 9 C -1.732 -0.4999 0.0 0
M  V30 10 C -0.866 -1.9999 0.0 0
M  V30 11 C -2.598 0.0 0.0 0
M  V30 12 C -1.732 -1.4999 0.0 0
M  V30 13 C -2.7026 0.9945 0.0 0
M  V30 14 C -3.5116 -0.4067 0.0 0
M  V30 15 N -2.0334 1.7376 0.0 0
M  V30 16 C -3.6807 1.2024 0.0 0
M  V30 17 S -4.1807 0.3364 0.0 0
M  V30 18 C -2.3424 2.6887 0.0 0
M  V30 19 C -3.9897 2.1534 0.0 0
M  V30 20 N -3.3206 2.8966 0.0 0
M  V30 21 N -1.6733 3.4318 0.0 0
M  V30 22 C -1.9823 4.3829 0.0 0
M  V30 23 C -1.3132 5.126 0.0 0
M  V30 24 C -2.9605 4.5908 0.0 0
M  V30 25 C -1.6222 6.0771 0.0 0
M  V30 26 C -3.2695 5.5418 0.0 0
M  V30 27 C -2.6004 6.285 0.0 0
M  V30 28 N -2.9094 7.236 0.0 0
M  V30 29 C -2.2402 7.9792 0.0 0
M  V30 30 C -3.8875 7.444 0.0 0
M  V30 31 C -2.5493 8.9302 0.0 0
M  V30 32 C -4.1965 8.395 0.0 0
M  V30 33 N -3.5274 9.1382 0.0 0
M  V30 34 C -3.8364 10.0892 0.0 0
M  V30 35 C -4.8146 10.2971 0.0 0
M  V30 END ATOM
M  V30 BEGIN BOND
M  V30 1 2 1 2
M  V30 2 2 1 3
M  V30 3 1 1 4
M  V30 4 1 1 5
M  V30 5 1 4 6
M  V30 6 2 6 7
M  V30 7 1 6 8
M  V30 8 1 7 9
M  V30 9 2 8 10
M  V30 10 1 9 11
M  V30 11 2 9 12
M  V30 12 1 11 13
M  V30 13 2 11 14
M  V30 14 2 13 15
M  V30 15 1 13 16
M  V30 16 1 14 17
M  V30 17 1 15 18
M  V30 18 2 16 19
M  V30 19 2 18 20
M  V30 20 1 18 21
M  V30 21 1 21 22
M  V30 22 2 22 23
M  V30 23 1 22 24
M  V30 24 1 23 25
M  V30 25 2 24 26
M  V30 26 2 25 27
M  V30 27 1 27 28
M  V30 28 1 28 29
M  V30 29 1 28 30
M  V30 30 1 29 31
M  V30 31 1 30 32
M  V30 32 1 31 33
M  V30 33 1 33 34
M  V30 34 1 34 35
M  V30 35 1 10 12
M  V30 36 1 16 17
M  V30 37 1 19 20
M  V30 38 1 26 27
M  V30 39 1 32 33
M  V30 END BOND
M  V30 END CTAB
M  END
>  <Molecule Name>
Compound 670

>  <Molecule Name 2>
Compound 670

>  <Compound ID>
210

>  <Name>


>  <Uniprot>
Q16659

>  <Target>
MAPK6

>  <Smiles>
CCN1CCN(C2=CC=C(NC3=NC=C4SC=C(C5=CC=CC(NS(C)(=O)=O)=C5)C4=N3)C=C2)CC1

>  <Kd (nM)>


>  <Assay (Kd)>


>  <Ki (nM)>


>  <Assay (Ki)>


>  <IC50 (nM)>


>  <Assay (IC50)>


>  <EC50 (nM)>


>  <Assay (EC50)>


>  <Article DOI>
10.1016/j.cell.2020.10.038

>  <Molecular Weight>
508.673

>  <Exact Mass>
508.1715161

>  <XLogP3>
4.08

>  <Heavy Atom Count>
35

>  <Ring Count>
5

>  <Hydrogen Bond Acceptor Count>
8

>  <Hydrogen Bond Donor Count>
2

>  <Rotatable Bond Count>
7

>  <Topological Polar Surface Area>
90.46

>  <Molecular Formula>
C25H28N6O2S2

>  <InChI>
InChI=1S/C25H28N6O2S2/c1-3-30-11-13-31(14-12-30)21-9-7-19(8-10-21)27-25-26-16-23-24(28-25)22(17-34-23)18-5-4-6-20(15-18)29-35(2,32)33/h4-10,15-17,29H,3,11-14H2,1-2H3,(H,26,27,28)

>  <InChI Key>
MQMVBXQAIMTOTQ-UHFFFAOYSA-N

>  <BindingDB>


>  <PubChem>
90466261

>  <ChEMBL>


$$$$
210
Actelion Java MolfileCreator 2.0

  0  0  0  0  0  0              0 V3000
M  V30 BEGIN CTAB
M  V30 COUNTS 35 39 0 0 0
M  V30 BEGIN ATOM
M  V30 1 S 1.732 -0.5 0.0 0
M  V30 2 O 1.232 -1.366 0.0 0
M  V30 3 O 2.232 0.366 0.0 0
M  V30 4 N 0.866 0.0 0.0 0
M  V30 5 C 2.598 -0.9999 0.0 0
M  V30 6 C 0.0 -0.5 0.0 0
M  V30 7 C -0.866 0.0 0.0 0
M  V30 8 C 0.0 -1.4999 0.0 0
M  V30 9 C -1.732 -0.4999 0.0 0
M  V30 10 C -0.866 -1.9999 0.0 0
M  V30 11 C -2.598 0.0 0.0 0
M  V30 12 C -1.732 -1.4999 0.0 0
M  V30 13 C -2.7026 0.9945 0.0 0
M  V30 14 C -3.5116 -0.4067 0.0 0
M  V30 15 N -2.0334 1.7376 0.0 0
M  V30 16 C -3.6807 1.2024 0.0 0
M  V30 17 S -4.1807 0.3364 0.0 0
M  V30 18 C -2.3424 2.6887 0.0 0
M  V30 19 C -3.9897 2.1534 0.0 0
M  V30 20 N -3.3206 2.8966 0.0 0
M  V30 21 N -1.6733 3.4318 0.0 0
M  V30 22 C -1.9823 4.3829 0.0 0
M  V30 23 C -1.3132 5.126 0.0 0
M  V30 24 C -2.9605 4.5908 0.0 0
M  V30 25 C -1.6222 6.0771 0.0 0
M  V30 26 C -3.2695 5.5418 0.0 0
M  V30 27 C -2.6004 6.285 0.0 0
M  V30 28 N -2.9094 7.236 0.0 0
M  V30 29 C -2.2402 7.9792 0.0 0
M  V30 30 C -3.8875 7.444 0.0 0
M  V30 31 C -2.5493 8.9302 0.0 0
M  V30 32 C -4.1965 8.395 0.0 0
M  V30 33 N -3.5274 9.1382 0.0 0
M  V30 34 C -3.8364 10.0892 0.0 0
M  V30 35 C -4.8146 10.2971 0.0 0
M  V30 END ATOM
M  V30 BEGIN BOND
M  V30 1 2 1 2
M  V30 2 2 1 3
M  V30 3 1 1 4
M  V30 4 1 1 5
M  V30 5 1 4 6
M  V30 6 2 6 7
M  V30 7 1 6 8
M  V30 8 1 7 9
M  V30 9 2 8 10
M  V30 10 1 9 11
M  V30 11 2 9 12
M  V30 12 1 11 13
M  V30 13 2 11 14
M  V30 14 2 13 15
M  V30 15 1 13 16
M  V30 16 1 14 17
M  V30 17 1 15 18
M  V30 18 2 16 19
M  V30 19 2 18 20
M  V30 20 1 18 21
M  V30 21 1 21 22
M  V30 22 2 22 23
M  V30 23 1 22 24
M  V30 24 1 23 25
M  V30 25 2 24 26
M  V30 26 2 25 27
M  V30 27 1 27 28
M  V30 28 1 28 29
M  V30 29 1 28 30
M  V30 30 1 29 31
M  V30 31 1 30 32
M  V30 32 1 31 33
M  V30 33 1 33 34
M  V30 34 1 34 35
M  V30 35 1 10 12
M  V30 36 1 16 17
M  V30 37 1 19 20
M  V30 38 1 26 27
M  V30 39 1 32 33
M  V30 END BOND
M  V30 END CTAB
M  END
>  <Molecule Name>
Compound 671

>  <Molecule Name 2>
Compound 671

>  <Compound ID>
210

>  <Name>


>  <Uniprot>
P45983

>  <Target>
MAPK8

>  <Smiles>
CCN1CCN(C2=CC=C(NC3=NC=C4SC=C(C5=CC=CC(NS(C)(=O)=O)=C5)C4=N3)C=C2)CC1

>  <Kd (nM)>


>  <Assay (Kd)>


>  <Ki (nM)>


>  <Assay (Ki)>


>  <IC50 (nM)>


>  <Assay (IC50)>


>  <EC50 (nM)>


>  <Assay (EC50)>


>  <Article DOI>
10.1016/j.cell.2020.10.038

>  <Molecular Weight>
508.673

>  <Exact Mass>
508.1715161

>  <XLogP3>
4.08

>  <Heavy Atom Count>
35

>  <Ring Count>
5

>  <Hydrogen Bond Acceptor Count>
8

>  <Hydrogen Bond Donor Count>
2

>  <Rotatable Bond Count>
7

>  <Topological Polar Surface Area>
90.46

>  <Molecular Formula>
C25H28N6O2S2

>  <InChI>
InChI=1S/C25H28N6O2S2/c1-3-30-11-13-31(14-12-30)21-9-7-19(8-10-21)27-25-26-16-23-24(28-25)22(17-34-23)18-5-4-6-20(15-18)29-35(2,32)33/h4-10,15-17,29H,3,11-14H2,1-2H3,(H,26,27,28)

>  <InChI Key>
MQMVBXQAIMTOTQ-UHFFFAOYSA-N

>  <BindingDB>


>  <PubChem>
90466261

>  <ChEMBL>


$$$$
210
Actelion Java MolfileCreator 2.0

  0  0  0  0  0  0              0 V3000
M  V30 BEGIN CTAB
M  V30 COUNTS 35 39 0 0 0
M  V30 BEGIN ATOM
M  V30 1 S 1.732 -0.5 0.0 0
M  V30 2 O 1.232 -1.366 0.0 0
M  V30 3 O 2.232 0.366 0.0 0
M  V30 4 N 0.866 0.0 0.0 0
M  V30 5 C 2.598 -0.9999 0.0 0
M  V30 6 C 0.0 -0.5 0.0 0
M  V30 7 C -0.866 0.0 0.0 0
M  V30 8 C 0.0 -1.4999 0.0 0
M  V30 9 C -1.732 -0.4999 0.0 0
M  V30 10 C -0.866 -1.9999 0.0 0
M  V30 11 C -2.598 0.0 0.0 0
M  V30 12 C -1.732 -1.4999 0.0 0
M  V30 13 C -2.7026 0.9945 0.0 0
M  V30 14 C -3.5116 -0.4067 0.0 0
M  V30 15 N -2.0334 1.7376 0.0 0
M  V30 16 C -3.6807 1.2024 0.0 0
M  V30 17 S -4.1807 0.3364 0.0 0
M  V30 18 C -2.3424 2.6887 0.0 0
M  V30 19 C -3.9897 2.1534 0.0 0
M  V30 20 N -3.3206 2.8966 0.0 0
M  V30 21 N -1.6733 3.4318 0.0 0
M  V30 22 C -1.9823 4.3829 0.0 0
M  V30 23 C -1.3132 5.126 0.0 0
M  V30 24 C -2.9605 4.5908 0.0 0
M  V30 25 C -1.6222 6.0771 0.0 0
M  V30 26 C -3.2695 5.5418 0.0 0
M  V30 27 C -2.6004 6.285 0.0 0
M  V30 28 N -2.9094 7.236 0.0 0
M  V30 29 C -2.2402 7.9792 0.0 0
M  V30 30 C -3.8875 7.444 0.0 0
M  V30 31 C -2.5493 8.9302 0.0 0
M  V30 32 C -4.1965 8.395 0.0 0
M  V30 33 N -3.5274 9.1382 0.0 0
M  V30 34 C -3.8364 10.0892 0.0 0
M  V30 35 C -4.8146 10.2971 0.0 0
M  V30 END ATOM
M  V30 BEGIN BOND
M  V30 1 2 1 2
M  V30 2 2 1 3
M  V30 3 1 1 4
M  V30 4 1 1 5
M  V30 5 1 4 6
M  V30 6 2 6 7
M  V30 7 1 6 8
M  V30 8 1 7 9
M  V30 9 2 8 10
M  V30 10 1 9 11
M  V30 11 2 9 12
M  V30 12 1 11 13
M  V30 13 2 11 14
M  V30 14 2 13 15
M  V30 15 1 13 16
M  V30 16 1 14 17
M  V30 17 1 15 18
M  V30 18 2 16 19
M  V30 19 2 18 20
M  V30 20 1 18 21
M  V30 21 1 21 22
M  V30 22 2 22 23
M  V30 23 1 22 24
M  V30 24 1 23 25
M  V30 25 2 24 26
M  V30 26 2 25 27
M  V30 27 1 27 28
M  V30 28 1 28 29
M  V30 29 1 28 30
M  V30 30 1 29 31
M  V30 31 1 30 32
M  V30 32 1 31 33
M  V30 33 1 33 34
M  V30 34 1 34 35
M  V30 35 1 10 12
M  V30 36 1 16 17
M  V30 37 1 19 20
M  V30 38 1 26 27
M  V30 39 1 32 33
M  V30 END BOND
M  V30 END CTAB
M  END
>  <Molecule Name>
Compound 672

>  <Molecule Name 2>
Compound 672

>  <Compound ID>
210

>  <Name>


>  <Uniprot>
P45984

>  <Target>
MAPK9

>  <Smiles>
CCN1CCN(C2=CC=C(NC3=NC=C4SC=C(C5=CC=CC(NS(C)(=O)=O)=C5)C4=N3)C=C2)CC1

>  <Kd (nM)>


>  <Assay (Kd)>


>  <Ki (nM)>


>  <Assay (Ki)>


>  <IC50 (nM)>


>  <Assay (IC50)>


>  <EC50 (nM)>


>  <Assay (EC50)>


>  <Article DOI>
10.1016/j.cell.2020.10.038

>  <Molecular Weight>
508.673

>  <Exact Mass>
508.1715161

>  <XLogP3>
4.08

>  <Heavy Atom Count>
35

>  <Ring Count>
5

>  <Hydrogen Bond Acceptor Count>
8

>  <Hydrogen Bond Donor Count>
2

>  <Rotatable Bond Count>
7

>  <Topological Polar Surface Area>
90.46

>  <Molecular Formula>
C25H28N6O2S2

>  <InChI>
InChI=1S/C25H28N6O2S2/c1-3-30-11-13-31(14-12-30)21-9-7-19(8-10-21)27-25-26-16-23-24(28-25)22(17-34-23)18-5-4-6-20(15-18)29-35(2,32)33/h4-10,15-17,29H,3,11-14H2,1-2H3,(H,26,27,28)

>  <InChI Key>
MQMVBXQAIMTOTQ-UHFFFAOYSA-N

>  <BindingDB>


>  <PubChem>
90466261

>  <ChEMBL>


$$$$
210
Actelion Java MolfileCreator 2.0

  0  0  0  0  0  0              0 V3000
M  V30 BEGIN CTAB
M  V30 COUNTS 35 39 0 0 0
M  V30 BEGIN ATOM
M  V30 1 S 1.732 -0.5 0.0 0
M  V30 2 O 1.232 -1.366 0.0 0
M  V30 3 O 2.232 0.366 0.0 0
M  V30 4 N 0.866 0.0 0.0 0
M  V30 5 C 2.598 -0.9999 0.0 0
M  V30 6 C 0.0 -0.5 0.0 0
M  V30 7 C -0.866 0.0 0.0 0
M  V30 8 C 0.0 -1.4999 0.0 0
M  V30 9 C -1.732 -0.4999 0.0 0
M  V30 10 C -0.866 -1.9999 0.0 0
M  V30 11 C -2.598 0.0 0.0 0
M  V30 12 C -1.732 -1.4999 0.0 0
M  V30 13 C -2.7026 0.9945 0.0 0
M  V30 14 C -3.5116 -0.4067 0.0 0
M  V30 15 N -2.0334 1.7376 0.0 0
M  V30 16 C -3.6807 1.2024 0.0 0
M  V30 17 S -4.1807 0.3364 0.0 0
M  V30 18 C -2.3424 2.6887 0.0 0
M  V30 19 C -3.9897 2.1534 0.0 0
M  V30 20 N -3.3206 2.8966 0.0 0
M  V30 21 N -1.6733 3.4318 0.0 0
M  V30 22 C -1.9823 4.3829 0.0 0
M  V30 23 C -1.3132 5.126 0.0 0
M  V30 24 C -2.9605 4.5908 0.0 0
M  V30 25 C -1.6222 6.0771 0.0 0
M  V30 26 C -3.2695 5.5418 0.0 0
M  V30 27 C -2.6004 6.285 0.0 0
M  V30 28 N -2.9094 7.236 0.0 0
M  V30 29 C -2.2402 7.9792 0.0 0
M  V30 30 C -3.8875 7.444 0.0 0
M  V30 31 C -2.5493 8.9302 0.0 0
M  V30 32 C -4.1965 8.395 0.0 0
M  V30 33 N -3.5274 9.1382 0.0 0
M  V30 34 C -3.8364 10.0892 0.0 0
M  V30 35 C -4.8146 10.2971 0.0 0
M  V30 END ATOM
M  V30 BEGIN BOND
M  V30 1 2 1 2
M  V30 2 2 1 3
M  V30 3 1 1 4
M  V30 4 1 1 5
M  V30 5 1 4 6
M  V30 6 2 6 7
M  V30 7 1 6 8
M  V30 8 1 7 9
M  V30 9 2 8 10
M  V30 10 1 9 11
M  V30 11 2 9 12
M  V30 12 1 11 13
M  V30 13 2 11 14
M  V30 14 2 13 15
M  V30 15 1 13 16
M  V30 16 1 14 17
M  V30 17 1 15 18
M  V30 18 2 16 19
M  V30 19 2 18 20
M  V30 20 1 18 21
M  V30 21 1 21 22
M  V30 22 2 22 23
M  V30 23 1 22 24
M  V30 24 1 23 25
M  V30 25 2 24 26
M  V30 26 2 25 27
M  V30 27 1 27 28
M  V30 28 1 28 29
M  V30 29 1 28 30
M  V30 30 1 29 31
M  V30 31 1 30 32
M  V30 32 1 31 33
M  V30 33 1 33 34
M  V30 34 1 34 35
M  V30 35 1 10 12
M  V30 36 1 16 17
M  V30 37 1 19 20
M  V30 38 1 26 27
M  V30 39 1 32 33
M  V30 END BOND
M  V30 END CTAB
M  END
>  <Molecule Name>
Compound 673

>  <Molecule Name 2>
Compound 673

>  <Compound ID>
210

>  <Name>


>  <Uniprot>
Q8IW41

>  <Target>
MAPKAPK5

>  <Smiles>
CCN1CCN(C2=CC=C(NC3=NC=C4SC=C(C5=CC=CC(NS(C)(=O)=O)=C5)C4=N3)C=C2)CC1

>  <Kd (nM)>


>  <Assay (Kd)>


>  <Ki (nM)>


>  <Assay (Ki)>


>  <IC50 (nM)>


>  <Assay (IC50)>


>  <EC50 (nM)>


>  <Assay (EC50)>


>  <Article DOI>
10.1016/j.cell.2020.10.038

>  <Molecular Weight>
508.673

>  <Exact Mass>
508.1715161

>  <XLogP3>
4.08

>  <Heavy Atom Count>
35

>  <Ring Count>
5

>  <Hydrogen Bond Acceptor Count>
8

>  <Hydrogen Bond Donor Count>
2

>  <Rotatable Bond Count>
7

>  <Topological Polar Surface Area>
90.46

>  <Molecular Formula>
C25H28N6O2S2

>  <InChI>
InChI=1S/C25H28N6O2S2/c1-3-30-11-13-31(14-12-30)21-9-7-19(8-10-21)27-25-26-16-23-24(28-25)22(17-34-23)18-5-4-6-20(15-18)29-35(2,32)33/h4-10,15-17,29H,3,11-14H2,1-2H3,(H,26,27,28)

>  <InChI Key>
MQMVBXQAIMTOTQ-UHFFFAOYSA-N

>  <BindingDB>


>  <PubChem>
90466261

>  <ChEMBL>


$$$$
210
Actelion Java MolfileCreator 2.0

  0  0  0  0  0  0              0 V3000
M  V30 BEGIN CTAB
M  V30 COUNTS 35 39 0 0 0
M  V30 BEGIN ATOM
M  V30 1 S 1.732 -0.5 0.0 0
M  V30 2 O 1.232 -1.366 0.0 0
M  V30 3 O 2.232 0.366 0.0 0
M  V30 4 N 0.866 0.0 0.0 0
M  V30 5 C 2.598 -0.9999 0.0 0
M  V30 6 C 0.0 -0.5 0.0 0
M  V30 7 C -0.866 0.0 0.0 0
M  V30 8 C 0.0 -1.4999 0.0 0
M  V30 9 C -1.732 -0.4999 0.0 0
M  V30 10 C -0.866 -1.9999 0.0 0
M  V30 11 C -2.598 0.0 0.0 0
M  V30 12 C -1.732 -1.4999 0.0 0
M  V30 13 C -2.7026 0.9945 0.0 0
M  V30 14 C -3.5116 -0.4067 0.0 0
M  V30 15 N -2.0334 1.7376 0.0 0
M  V30 16 C -3.6807 1.2024 0.0 0
M  V30 17 S -4.1807 0.3364 0.0 0
M  V30 18 C -2.3424 2.6887 0.0 0
M  V30 19 C -3.9897 2.1534 0.0 0
M  V30 20 N -3.3206 2.8966 0.0 0
M  V30 21 N -1.6733 3.4318 0.0 0
M  V30 22 C -1.9823 4.3829 0.0 0
M  V30 23 C -1.3132 5.126 0.0 0
M  V30 24 C -2.9605 4.5908 0.0 0
M  V30 25 C -1.6222 6.0771 0.0 0
M  V30 26 C -3.2695 5.5418 0.0 0
M  V30 27 C -2.6004 6.285 0.0 0
M  V30 28 N -2.9094 7.236 0.0 0
M  V30 29 C -2.2402 7.9792 0.0 0
M  V30 30 C -3.8875 7.444 0.0 0
M  V30 31 C -2.5493 8.9302 0.0 0
M  V30 32 C -4.1965 8.395 0.0 0
M  V30 33 N -3.5274 9.1382 0.0 0
M  V30 34 C -3.8364 10.0892 0.0 0
M  V30 35 C -4.8146 10.2971 0.0 0
M  V30 END ATOM
M  V30 BEGIN BOND
M  V30 1 2 1 2
M  V30 2 2 1 3
M  V30 3 1 1 4
M  V30 4 1 1 5
M  V30 5 1 4 6
M  V30 6 2 6 7
M  V30 7 1 6 8
M  V30 8 1 7 9
M  V30 9 2 8 10
M  V30 10 1 9 11
M  V30 11 2 9 12
M  V30 12 1 11 13
M  V30 13 2 11 14
M  V30 14 2 13 15
M  V30 15 1 13 16
M  V30 16 1 14 17
M  V30 17 1 15 18
M  V30 18 2 16 19
M  V30 19 2 18 20
M  V30 20 1 18 21
M  V30 21 1 21 22
M  V30 22 2 22 23
M  V30 23 1 22 24
M  V30 24 1 23 25
M  V30 25 2 24 26
M  V30 26 2 25 27
M  V30 27 1 27 28
M  V30 28 1 28 29
M  V30 29 1 28 30
M  V30 30 1 29 31
M  V30 31 1 30 32
M  V30 32 1 31 33
M  V30 33 1 33 34
M  V30 34 1 34 35
M  V30 35 1 10 12
M  V30 36 1 16 17
M  V30 37 1 19 20
M  V30 38 1 26 27
M  V30 39 1 32 33
M  V30 END BOND
M  V30 END CTAB
M  END
>  <Molecule Name>
Compound 674

>  <Molecule Name 2>
Compound 674

>  <Compound ID>
210

>  <Name>


>  <Uniprot>
Q7KZI7

>  <Target>
MARK2

>  <Smiles>
CCN1CCN(C2=CC=C(NC3=NC=C4SC=C(C5=CC=CC(NS(C)(=O)=O)=C5)C4=N3)C=C2)CC1

>  <Kd (nM)>


>  <Assay (Kd)>


>  <Ki (nM)>


>  <Assay (Ki)>


>  <IC50 (nM)>


>  <Assay (IC50)>


>  <EC50 (nM)>


>  <Assay (EC50)>


>  <Article DOI>
10.1016/j.cell.2020.10.038

>  <Molecular Weight>
508.673

>  <Exact Mass>
508.1715161

>  <XLogP3>
4.08

>  <Heavy Atom Count>
35

>  <Ring Count>
5

>  <Hydrogen Bond Acceptor Count>
8

>  <Hydrogen Bond Donor Count>
2

>  <Rotatable Bond Count>
7

>  <Topological Polar Surface Area>
90.46

>  <Molecular Formula>
C25H28N6O2S2

>  <InChI>
InChI=1S/C25H28N6O2S2/c1-3-30-11-13-31(14-12-30)21-9-7-19(8-10-21)27-25-26-16-23-24(28-25)22(17-34-23)18-5-4-6-20(15-18)29-35(2,32)33/h4-10,15-17,29H,3,11-14H2,1-2H3,(H,26,27,28)

>  <InChI Key>
MQMVBXQAIMTOTQ-UHFFFAOYSA-N

>  <BindingDB>


>  <PubChem>
90466261

>  <ChEMBL>


$$$$
210
Actelion Java MolfileCreator 2.0

  0  0  0  0  0  0              0 V3000
M  V30 BEGIN CTAB
M  V30 COUNTS 35 39 0 0 0
M  V30 BEGIN ATOM
M  V30 1 S 1.732 -0.5 0.0 0
M  V30 2 O 1.232 -1.366 0.0 0
M  V30 3 O 2.232 0.366 0.0 0
M  V30 4 N 0.866 0.0 0.0 0
M  V30 5 C 2.598 -0.9999 0.0 0
M  V30 6 C 0.0 -0.5 0.0 0
M  V30 7 C -0.866 0.0 0.0 0
M  V30 8 C 0.0 -1.4999 0.0 0
M  V30 9 C -1.732 -0.4999 0.0 0
M  V30 10 C -0.866 -1.9999 0.0 0
M  V30 11 C -2.598 0.0 0.0 0
M  V30 12 C -1.732 -1.4999 0.0 0
M  V30 13 C -2.7026 0.9945 0.0 0
M  V30 14 C -3.5116 -0.4067 0.0 0
M  V30 15 N -2.0334 1.7376 0.0 0
M  V30 16 C -3.6807 1.2024 0.0 0
M  V30 17 S -4.1807 0.3364 0.0 0
M  V30 18 C -2.3424 2.6887 0.0 0
M  V30 19 C -3.9897 2.1534 0.0 0
M  V30 20 N -3.3206 2.8966 0.0 0
M  V30 21 N -1.6733 3.4318 0.0 0
M  V30 22 C -1.9823 4.3829 0.0 0
M  V30 23 C -1.3132 5.126 0.0 0
M  V30 24 C -2.9605 4.5908 0.0 0
M  V30 25 C -1.6222 6.0771 0.0 0
M  V30 26 C -3.2695 5.5418 0.0 0
M  V30 27 C -2.6004 6.285 0.0 0
M  V30 28 N -2.9094 7.236 0.0 0
M  V30 29 C -2.2402 7.9792 0.0 0
M  V30 30 C -3.8875 7.444 0.0 0
M  V30 31 C -2.5493 8.9302 0.0 0
M  V30 32 C -4.1965 8.395 0.0 0
M  V30 33 N -3.5274 9.1382 0.0 0
M  V30 34 C -3.8364 10.0892 0.0 0
M  V30 35 C -4.8146 10.2971 0.0 0
M  V30 END ATOM
M  V30 BEGIN BOND
M  V30 1 2 1 2
M  V30 2 2 1 3
M  V30 3 1 1 4
M  V30 4 1 1 5
M  V30 5 1 4 6
M  V30 6 2 6 7
M  V30 7 1 6 8
M  V30 8 1 7 9
M  V30 9 2 8 10
M  V30 10 1 9 11
M  V30 11 2 9 12
M  V30 12 1 11 13
M  V30 13 2 11 14
M  V30 14 2 13 15
M  V30 15 1 13 16
M  V30 16 1 14 17
M  V30 17 1 15 18
M  V30 18 2 16 19
M  V30 19 2 18 20
M  V30 20 1 18 21
M  V30 21 1 21 22
M  V30 22 2 22 23
M  V30 23 1 22 24
M  V30 24 1 23 25
M  V30 25 2 24 26
M  V30 26 2 25 27
M  V30 27 1 27 28
M  V30 28 1 28 29
M  V30 29 1 28 30
M  V30 30 1 29 31
M  V30 31 1 30 32
M  V30 32 1 31 33
M  V30 33 1 33 34
M  V30 34 1 34 35
M  V30 35 1 10 12
M  V30 36 1 16 17
M  V30 37 1 19 20
M  V30 38 1 26 27
M  V30 39 1 32 33
M  V30 END BOND
M  V30 END CTAB
M  END
>  <Molecule Name>
Compound 675

>  <Molecule Name 2>
Compound 675

>  <Compound ID>
210

>  <Name>


>  <Uniprot>
Q96L34

>  <Target>
MARK4

>  <Smiles>
CCN1CCN(C2=CC=C(NC3=NC=C4SC=C(C5=CC=CC(NS(C)(=O)=O)=C5)C4=N3)C=C2)CC1

>  <Kd (nM)>


>  <Assay (Kd)>


>  <Ki (nM)>


>  <Assay (Ki)>


>  <IC50 (nM)>


>  <Assay (IC50)>


>  <EC50 (nM)>


>  <Assay (EC50)>


>  <Article DOI>
10.1016/j.cell.2020.10.038

>  <Molecular Weight>
508.673

>  <Exact Mass>
508.1715161

>  <XLogP3>
4.08

>  <Heavy Atom Count>
35

>  <Ring Count>
5

>  <Hydrogen Bond Acceptor Count>
8

>  <Hydrogen Bond Donor Count>
2

>  <Rotatable Bond Count>
7

>  <Topological Polar Surface Area>
90.46

>  <Molecular Formula>
C25H28N6O2S2

>  <InChI>
InChI=1S/C25H28N6O2S2/c1-3-30-11-13-31(14-12-30)21-9-7-19(8-10-21)27-25-26-16-23-24(28-25)22(17-34-23)18-5-4-6-20(15-18)29-35(2,32)33/h4-10,15-17,29H,3,11-14H2,1-2H3,(H,26,27,28)

>  <InChI Key>
MQMVBXQAIMTOTQ-UHFFFAOYSA-N

>  <BindingDB>


>  <PubChem>
90466261

>  <ChEMBL>


$$$$
210
Actelion Java MolfileCreator 2.0

  0  0  0  0  0  0              0 V3000
M  V30 BEGIN CTAB
M  V30 COUNTS 35 39 0 0 0
M  V30 BEGIN ATOM
M  V30 1 S 1.732 -0.5 0.0 0
M  V30 2 O 1.232 -1.366 0.0 0
M  V30 3 O 2.232 0.366 0.0 0
M  V30 4 N 0.866 0.0 0.0 0
M  V30 5 C 2.598 -0.9999 0.0 0
M  V30 6 C 0.0 -0.5 0.0 0
M  V30 7 C -0.866 0.0 0.0 0
M  V30 8 C 0.0 -1.4999 0.0 0
M  V30 9 C -1.732 -0.4999 0.0 0
M  V30 10 C -0.866 -1.9999 0.0 0
M  V30 11 C -2.598 0.0 0.0 0
M  V30 12 C -1.732 -1.4999 0.0 0
M  V30 13 C -2.7026 0.9945 0.0 0
M  V30 14 C -3.5116 -0.4067 0.0 0
M  V30 15 N -2.0334 1.7376 0.0 0
M  V30 16 C -3.6807 1.2024 0.0 0
M  V30 17 S -4.1807 0.3364 0.0 0
M  V30 18 C -2.3424 2.6887 0.0 0
M  V30 19 C -3.9897 2.1534 0.0 0
M  V30 20 N -3.3206 2.8966 0.0 0
M  V30 21 N -1.6733 3.4318 0.0 0
M  V30 22 C -1.9823 4.3829 0.0 0
M  V30 23 C -1.3132 5.126 0.0 0
M  V30 24 C -2.9605 4.5908 0.0 0
M  V30 25 C -1.6222 6.0771 0.0 0
M  V30 26 C -3.2695 5.5418 0.0 0
M  V30 27 C -2.6004 6.285 0.0 0
M  V30 28 N -2.9094 7.236 0.0 0
M  V30 29 C -2.2402 7.9792 0.0 0
M  V30 30 C -3.8875 7.444 0.0 0
M  V30 31 C -2.5493 8.9302 0.0 0
M  V30 32 C -4.1965 8.395 0.0 0
M  V30 33 N -3.5274 9.1382 0.0 0
M  V30 34 C -3.8364 10.0892 0.0 0
M  V30 35 C -4.8146 10.2971 0.0 0
M  V30 END ATOM
M  V30 BEGIN BOND
M  V30 1 2 1 2
M  V30 2 2 1 3
M  V30 3 1 1 4
M  V30 4 1 1 5
M  V30 5 1 4 6
M  V30 6 2 6 7
M  V30 7 1 6 8
M  V30 8 1 7 9
M  V30 9 2 8 10
M  V30 10 1 9 11
M  V30 11 2 9 12
M  V30 12 1 11 13
M  V30 13 2 11 14
M  V30 14 2 13 15
M  V30 15 1 13 16
M  V30 16 1 14 17
M  V30 17 1 15 18
M  V30 18 2 16 19
M  V30 19 2 18 20
M  V30 20 1 18 21
M  V30 21 1 21 22
M  V30 22 2 22 23
M  V30 23 1 22 24
M  V30 24 1 23 25
M  V30 25 2 24 26
M  V30 26 2 25 27
M  V30 27 1 27 28
M  V30 28 1 28 29
M  V30 29 1 28 30
M  V30 30 1 29 31
M  V30 31 1 30 32
M  V30 32 1 31 33
M  V30 33 1 33 34
M  V30 34 1 34 35
M  V30 35 1 10 12
M  V30 36 1 16 17
M  V30 37 1 19 20
M  V30 38 1 26 27
M  V30 39 1 32 33
M  V30 END BOND
M  V30 END CTAB
M  END
>  <Molecule Name>
Compound 676

>  <Molecule Name 2>
Compound 676

>  <Compound ID>
210

>  <Name>


>  <Uniprot>
Q9HBH9

>  <Target>
MKNK2

>  <Smiles>
CCN1CCN(C2=CC=C(NC3=NC=C4SC=C(C5=CC=CC(NS(C)(=O)=O)=C5)C4=N3)C=C2)CC1

>  <Kd (nM)>


>  <Assay (Kd)>


>  <Ki (nM)>


>  <Assay (Ki)>


>  <IC50 (nM)>


>  <Assay (IC50)>


>  <EC50 (nM)>


>  <Assay (EC50)>


>  <Article DOI>
10.1016/j.cell.2020.10.038

>  <Molecular Weight>
508.673

>  <Exact Mass>
508.1715161

>  <XLogP3>
4.08

>  <Heavy Atom Count>
35

>  <Ring Count>
5

>  <Hydrogen Bond Acceptor Count>
8

>  <Hydrogen Bond Donor Count>
2

>  <Rotatable Bond Count>
7

>  <Topological Polar Surface Area>
90.46

>  <Molecular Formula>
C25H28N6O2S2

>  <InChI>
InChI=1S/C25H28N6O2S2/c1-3-30-11-13-31(14-12-30)21-9-7-19(8-10-21)27-25-26-16-23-24(28-25)22(17-34-23)18-5-4-6-20(15-18)29-35(2,32)33/h4-10,15-17,29H,3,11-14H2,1-2H3,(H,26,27,28)

>  <InChI Key>
MQMVBXQAIMTOTQ-UHFFFAOYSA-N

>  <BindingDB>


>  <PubChem>
90466261

>  <ChEMBL>


$$$$
210
Actelion Java MolfileCreator 2.0

  0  0  0  0  0  0              0 V3000
M  V30 BEGIN CTAB
M  V30 COUNTS 35 39 0 0 0
M  V30 BEGIN ATOM
M  V30 1 S 1.732 -0.5 0.0 0
M  V30 2 O 1.232 -1.366 0.0 0
M  V30 3 O 2.232 0.366 0.0 0
M  V30 4 N 0.866 0.0 0.0 0
M  V30 5 C 2.598 -0.9999 0.0 0
M  V30 6 C 0.0 -0.5 0.0 0
M  V30 7 C -0.866 0.0 0.0 0
M  V30 8 C 0.0 -1.4999 0.0 0
M  V30 9 C -1.732 -0.4999 0.0 0
M  V30 10 C -0.866 -1.9999 0.0 0
M  V30 11 C -2.598 0.0 0.0 0
M  V30 12 C -1.732 -1.4999 0.0 0
M  V30 13 C -2.7026 0.9945 0.0 0
M  V30 14 C -3.5116 -0.4067 0.0 0
M  V30 15 N -2.0334 1.7376 0.0 0
M  V30 16 C -3.6807 1.2024 0.0 0
M  V30 17 S -4.1807 0.3364 0.0 0
M  V30 18 C -2.3424 2.6887 0.0 0
M  V30 19 C -3.9897 2.1534 0.0 0
M  V30 20 N -3.3206 2.8966 0.0 0
M  V30 21 N -1.6733 3.4318 0.0 0
M  V30 22 C -1.9823 4.3829 0.0 0
M  V30 23 C -1.3132 5.126 0.0 0
M  V30 24 C -2.9605 4.5908 0.0 0
M  V30 25 C -1.6222 6.0771 0.0 0
M  V30 26 C -3.2695 5.5418 0.0 0
M  V30 27 C -2.6004 6.285 0.0 0
M  V30 28 N -2.9094 7.236 0.0 0
M  V30 29 C -2.2402 7.9792 0.0 0
M  V30 30 C -3.8875 7.444 0.0 0
M  V30 31 C -2.5493 8.9302 0.0 0
M  V30 32 C -4.1965 8.395 0.0 0
M  V30 33 N -3.5274 9.1382 0.0 0
M  V30 34 C -3.8364 10.0892 0.0 0
M  V30 35 C -4.8146 10.2971 0.0 0
M  V30 END ATOM
M  V30 BEGIN BOND
M  V30 1 2 1 2
M  V30 2 2 1 3
M  V30 3 1 1 4
M  V30 4 1 1 5
M  V30 5 1 4 6
M  V30 6 2 6 7
M  V30 7 1 6 8
M  V30 8 1 7 9
M  V30 9 2 8 10
M  V30 10 1 9 11
M  V30 11 2 9 12
M  V30 12 1 11 13
M  V30 13 2 11 14
M  V30 14 2 13 15
M  V30 15 1 13 16
M  V30 16 1 14 17
M  V30 17 1 15 18
M  V30 18 2 16 19
M  V30 19 2 18 20
M  V30 20 1 18 21
M  V30 21 1 21 22
M  V30 22 2 22 23
M  V30 23 1 22 24
M  V30 24 1 23 25
M  V30 25 2 24 26
M  V30 26 2 25 27
M  V30 27 1 27 28
M  V30 28 1 28 29
M  V30 29 1 28 30
M  V30 30 1 29 31
M  V30 31 1 30 32
M  V30 32 1 31 33
M  V30 33 1 33 34
M  V30 34 1 34 35
M  V30 35 1 10 12
M  V30 36 1 16 17
M  V30 37 1 19 20
M  V30 38 1 26 27
M  V30 39 1 32 33
M  V30 END BOND
M  V30 END CTAB
M  END
>  <Molecule Name>
Compound 677

>  <Molecule Name 2>
Compound 677

>  <Compound ID>
210

>  <Name>


>  <Uniprot>
Q8TD19

>  <Target>
NEK9

>  <Smiles>
CCN1CCN(C2=CC=C(NC3=NC=C4SC=C(C5=CC=CC(NS(C)(=O)=O)=C5)C4=N3)C=C2)CC1

>  <Kd (nM)>


>  <Assay (Kd)>


>  <Ki (nM)>


>  <Assay (Ki)>


>  <IC50 (nM)>


>  <Assay (IC50)>


>  <EC50 (nM)>


>  <Assay (EC50)>


>  <Article DOI>
10.1016/j.cell.2020.10.038

>  <Molecular Weight>
508.673

>  <Exact Mass>
508.1715161

>  <XLogP3>
4.08

>  <Heavy Atom Count>
35

>  <Ring Count>
5

>  <Hydrogen Bond Acceptor Count>
8

>  <Hydrogen Bond Donor Count>
2

>  <Rotatable Bond Count>
7

>  <Topological Polar Surface Area>
90.46

>  <Molecular Formula>
C25H28N6O2S2

>  <InChI>
InChI=1S/C25H28N6O2S2/c1-3-30-11-13-31(14-12-30)21-9-7-19(8-10-21)27-25-26-16-23-24(28-25)22(17-34-23)18-5-4-6-20(15-18)29-35(2,32)33/h4-10,15-17,29H,3,11-14H2,1-2H3,(H,26,27,28)

>  <InChI Key>
MQMVBXQAIMTOTQ-UHFFFAOYSA-N

>  <BindingDB>


>  <PubChem>
90466261

>  <ChEMBL>


$$$$
210
Actelion Java MolfileCreator 2.0

  0  0  0  0  0  0              0 V3000
M  V30 BEGIN CTAB
M  V30 COUNTS 35 39 0 0 0
M  V30 BEGIN ATOM
M  V30 1 S 1.732 -0.5 0.0 0
M  V30 2 O 1.232 -1.366 0.0 0
M  V30 3 O 2.232 0.366 0.0 0
M  V30 4 N 0.866 0.0 0.0 0
M  V30 5 C 2.598 -0.9999 0.0 0
M  V30 6 C 0.0 -0.5 0.0 0
M  V30 7 C -0.866 0.0 0.0 0
M  V30 8 C 0.0 -1.4999 0.0 0
M  V30 9 C -1.732 -0.4999 0.0 0
M  V30 10 C -0.866 -1.9999 0.0 0
M  V30 11 C -2.598 0.0 0.0 0
M  V30 12 C -1.732 -1.4999 0.0 0
M  V30 13 C -2.7026 0.9945 0.0 0
M  V30 14 C -3.5116 -0.4067 0.0 0
M  V30 15 N -2.0334 1.7376 0.0 0
M  V30 16 C -3.6807 1.2024 0.0 0
M  V30 17 S -4.1807 0.3364 0.0 0
M  V30 18 C -2.3424 2.6887 0.0 0
M  V30 19 C -3.9897 2.1534 0.0 0
M  V30 20 N -3.3206 2.8966 0.0 0
M  V30 21 N -1.6733 3.4318 0.0 0
M  V30 22 C -1.9823 4.3829 0.0 0
M  V30 23 C -1.3132 5.126 0.0 0
M  V30 24 C -2.9605 4.5908 0.0 0
M  V30 25 C -1.6222 6.0771 0.0 0
M  V30 26 C -3.2695 5.5418 0.0 0
M  V30 27 C -2.6004 6.285 0.0 0
M  V30 28 N -2.9094 7.236 0.0 0
M  V30 29 C -2.2402 7.9792 0.0 0
M  V30 30 C -3.8875 7.444 0.0 0
M  V30 31 C -2.5493 8.9302 0.0 0
M  V30 32 C -4.1965 8.395 0.0 0
M  V30 33 N -3.5274 9.1382 0.0 0
M  V30 34 C -3.8364 10.0892 0.0 0
M  V30 35 C -4.8146 10.2971 0.0 0
M  V30 END ATOM
M  V30 BEGIN BOND
M  V30 1 2 1 2
M  V30 2 2 1 3
M  V30 3 1 1 4
M  V30 4 1 1 5
M  V30 5 1 4 6
M  V30 6 2 6 7
M  V30 7 1 6 8
M  V30 8 1 7 9
M  V30 9 2 8 10
M  V30 10 1 9 11
M  V30 11 2 9 12
M  V30 12 1 11 13
M  V30 13 2 11 14
M  V30 14 2 13 15
M  V30 15 1 13 16
M  V30 16 1 14 17
M  V30 17 1 15 18
M  V30 18 2 16 19
M  V30 19 2 18 20
M  V30 20 1 18 21
M  V30 21 1 21 22
M  V30 22 2 22 23
M  V30 23 1 22 24
M  V30 24 1 23 25
M  V30 25 2 24 26
M  V30 26 2 25 27
M  V30 27 1 27 28
M  V30 28 1 28 29
M  V30 29 1 28 30
M  V30 30 1 29 31
M  V30 31 1 30 32
M  V30 32 1 31 33
M  V30 33 1 33 34
M  V30 34 1 34 35
M  V30 35 1 10 12
M  V30 36 1 16 17
M  V30 37 1 19 20
M  V30 38 1 26 27
M  V30 39 1 32 33
M  V30 END BOND
M  V30 END CTAB
M  END
>  <Molecule Name>
Compound 678

>  <Molecule Name 2>
Compound 678

>  <Compound ID>
210

>  <Name>


>  <Uniprot>
O00444

>  <Target>
PLK4

>  <Smiles>
CCN1CCN(C2=CC=C(NC3=NC=C4SC=C(C5=CC=CC(NS(C)(=O)=O)=C5)C4=N3)C=C2)CC1

>  <Kd (nM)>


>  <Assay (Kd)>


>  <Ki (nM)>


>  <Assay (Ki)>


>  <IC50 (nM)>


>  <Assay (IC50)>


>  <EC50 (nM)>


>  <Assay (EC50)>


>  <Article DOI>
10.1016/j.cell.2020.10.038

>  <Molecular Weight>
508.673

>  <Exact Mass>
508.1715161

>  <XLogP3>
4.08

>  <Heavy Atom Count>
35

>  <Ring Count>
5

>  <Hydrogen Bond Acceptor Count>
8

>  <Hydrogen Bond Donor Count>
2

>  <Rotatable Bond Count>
7

>  <Topological Polar Surface Area>
90.46

>  <Molecular Formula>
C25H28N6O2S2

>  <InChI>
InChI=1S/C25H28N6O2S2/c1-3-30-11-13-31(14-12-30)21-9-7-19(8-10-21)27-25-26-16-23-24(28-25)22(17-34-23)18-5-4-6-20(15-18)29-35(2,32)33/h4-10,15-17,29H,3,11-14H2,1-2H3,(H,26,27,28)

>  <InChI Key>
MQMVBXQAIMTOTQ-UHFFFAOYSA-N

>  <BindingDB>


>  <PubChem>
90466261

>  <ChEMBL>


$$$$
210
Actelion Java MolfileCreator 2.0

  0  0  0  0  0  0              0 V3000
M  V30 BEGIN CTAB
M  V30 COUNTS 35 39 0 0 0
M  V30 BEGIN ATOM
M  V30 1 S 1.732 -0.5 0.0 0
M  V30 2 O 1.232 -1.366 0.0 0
M  V30 3 O 2.232 0.366 0.0 0
M  V30 4 N 0.866 0.0 0.0 0
M  V30 5 C 2.598 -0.9999 0.0 0
M  V30 6 C 0.0 -0.5 0.0 0
M  V30 7 C -0.866 0.0 0.0 0
M  V30 8 C 0.0 -1.4999 0.0 0
M  V30 9 C -1.732 -0.4999 0.0 0
M  V30 10 C -0.866 -1.9999 0.0 0
M  V30 11 C -2.598 0.0 0.0 0
M  V30 12 C -1.732 -1.4999 0.0 0
M  V30 13 C -2.7026 0.9945 0.0 0
M  V30 14 C -3.5116 -0.4067 0.0 0
M  V30 15 N -2.0334 1.7376 0.0 0
M  V30 16 C -3.6807 1.2024 0.0 0
M  V30 17 S -4.1807 0.3364 0.0 0
M  V30 18 C -2.3424 2.6887 0.0 0
M  V30 19 C -3.9897 2.1534 0.0 0
M  V30 20 N -3.3206 2.8966 0.0 0
M  V30 21 N -1.6733 3.4318 0.0 0
M  V30 22 C -1.9823 4.3829 0.0 0
M  V30 23 C -1.3132 5.126 0.0 0
M  V30 24 C -2.9605 4.5908 0.0 0
M  V30 25 C -1.6222 6.0771 0.0 0
M  V30 26 C -3.2695 5.5418 0.0 0
M  V30 27 C -2.6004 6.285 0.0 0
M  V30 28 N -2.9094 7.236 0.0 0
M  V30 29 C -2.2402 7.9792 0.0 0
M  V30 30 C -3.8875 7.444 0.0 0
M  V30 31 C -2.5493 8.9302 0.0 0
M  V30 32 C -4.1965 8.395 0.0 0
M  V30 33 N -3.5274 9.1382 0.0 0
M  V30 34 C -3.8364 10.0892 0.0 0
M  V30 35 C -4.8146 10.2971 0.0 0
M  V30 END ATOM
M  V30 BEGIN BOND
M  V30 1 2 1 2
M  V30 2 2 1 3
M  V30 3 1 1 4
M  V30 4 1 1 5
M  V30 5 1 4 6
M  V30 6 2 6 7
M  V30 7 1 6 8
M  V30 8 1 7 9
M  V30 9 2 8 10
M  V30 10 1 9 11
M  V30 11 2 9 12
M  V30 12 1 11 13
M  V30 13 2 11 14
M  V30 14 2 13 15
M  V30 15 1 13 16
M  V30 16 1 14 17
M  V30 17 1 15 18
M  V30 18 2 16 19
M  V30 19 2 18 20
M  V30 20 1 18 21
M  V30 21 1 21 22
M  V30 22 2 22 23
M  V30 23 1 22 24
M  V30 24 1 23 25
M  V30 25 2 24 26
M  V30 26 2 25 27
M  V30 27 1 27 28
M  V30 28 1 28 29
M  V30 29 1 28 30
M  V30 30 1 29 31
M  V30 31 1 30 32
M  V30 32 1 31 33
M  V30 33 1 33 34
M  V30 34 1 34 35
M  V30 35 1 10 12
M  V30 36 1 16 17
M  V30 37 1 19 20
M  V30 38 1 26 27
M  V30 39 1 32 33
M  V30 END BOND
M  V30 END CTAB
M  END
>  <Molecule Name>
Compound 679

>  <Molecule Name 2>
Compound 679

>  <Compound ID>
210

>  <Name>


>  <Uniprot>
Q14289

>  <Target>
PTK2B

>  <Smiles>
CCN1CCN(C2=CC=C(NC3=NC=C4SC=C(C5=CC=CC(NS(C)(=O)=O)=C5)C4=N3)C=C2)CC1

>  <Kd (nM)>


>  <Assay (Kd)>


>  <Ki (nM)>


>  <Assay (Ki)>


>  <IC50 (nM)>


>  <Assay (IC50)>


>  <EC50 (nM)>


>  <Assay (EC50)>


>  <Article DOI>
10.1016/j.cell.2020.10.038

>  <Molecular Weight>
508.673

>  <Exact Mass>
508.1715161

>  <XLogP3>
4.08

>  <Heavy Atom Count>
35

>  <Ring Count>
5

>  <Hydrogen Bond Acceptor Count>
8

>  <Hydrogen Bond Donor Count>
2

>  <Rotatable Bond Count>
7

>  <Topological Polar Surface Area>
90.46

>  <Molecular Formula>
C25H28N6O2S2

>  <InChI>
InChI=1S/C25H28N6O2S2/c1-3-30-11-13-31(14-12-30)21-9-7-19(8-10-21)27-25-26-16-23-24(28-25)22(17-34-23)18-5-4-6-20(15-18)29-35(2,32)33/h4-10,15-17,29H,3,11-14H2,1-2H3,(H,26,27,28)

>  <InChI Key>
MQMVBXQAIMTOTQ-UHFFFAOYSA-N

>  <BindingDB>


>  <PubChem>
90466261

>  <ChEMBL>


$$$$
210
Actelion Java MolfileCreator 2.0

  0  0  0  0  0  0              0 V3000
M  V30 BEGIN CTAB
M  V30 COUNTS 35 39 0 0 0
M  V30 BEGIN ATOM
M  V30 1 S 1.732 -0.5 0.0 0
M  V30 2 O 1.232 -1.366 0.0 0
M  V30 3 O 2.232 0.366 0.0 0
M  V30 4 N 0.866 0.0 0.0 0
M  V30 5 C 2.598 -0.9999 0.0 0
M  V30 6 C 0.0 -0.5 0.0 0
M  V30 7 C -0.866 0.0 0.0 0
M  V30 8 C 0.0 -1.4999 0.0 0
M  V30 9 C -1.732 -0.4999 0.0 0
M  V30 10 C -0.866 -1.9999 0.0 0
M  V30 11 C -2.598 0.0 0.0 0
M  V30 12 C -1.732 -1.4999 0.0 0
M  V30 13 C -2.7026 0.9945 0.0 0
M  V30 14 C -3.5116 -0.4067 0.0 0
M  V30 15 N -2.0334 1.7376 0.0 0
M  V30 16 C -3.6807 1.2024 0.0 0
M  V30 17 S -4.1807 0.3364 0.0 0
M  V30 18 C -2.3424 2.6887 0.0 0
M  V30 19 C -3.9897 2.1534 0.0 0
M  V30 20 N -3.3206 2.8966 0.0 0
M  V30 21 N -1.6733 3.4318 0.0 0
M  V30 22 C -1.9823 4.3829 0.0 0
M  V30 23 C -1.3132 5.126 0.0 0
M  V30 24 C -2.9605 4.5908 0.0 0
M  V30 25 C -1.6222 6.0771 0.0 0
M  V30 26 C -3.2695 5.5418 0.0 0
M  V30 27 C -2.6004 6.285 0.0 0
M  V30 28 N -2.9094 7.236 0.0 0
M  V30 29 C -2.2402 7.9792 0.0 0
M  V30 30 C -3.8875 7.444 0.0 0
M  V30 31 C -2.5493 8.9302 0.0 0
M  V30 32 C -4.1965 8.395 0.0 0
M  V30 33 N -3.5274 9.1382 0.0 0
M  V30 34 C -3.8364 10.0892 0.0 0
M  V30 35 C -4.8146 10.2971 0.0 0
M  V30 END ATOM
M  V30 BEGIN BOND
M  V30 1 2 1 2
M  V30 2 2 1 3
M  V30 3 1 1 4
M  V30 4 1 1 5
M  V30 5 1 4 6
M  V30 6 2 6 7
M  V30 7 1 6 8
M  V30 8 1 7 9
M  V30 9 2 8 10
M  V30 10 1 9 11
M  V30 11 2 9 12
M  V30 12 1 11 13
M  V30 13 2 11 14
M  V30 14 2 13 15
M  V30 15 1 13 16
M  V30 16 1 14 17
M  V30 17 1 15 18
M  V30 18 2 16 19
M  V30 19 2 18 20
M  V30 20 1 18 21
M  V30 21 1 21 22
M  V30 22 2 22 23
M  V30 23 1 22 24
M  V30 24 1 23 25
M  V30 25 2 24 26
M  V30 26 2 25 27
M  V30 27 1 27 28
M  V30 28 1 28 29
M  V30 29 1 28 30
M  V30 30 1 29 31
M  V30 31 1 30 32
M  V30 32 1 31 33
M  V30 33 1 33 34
M  V30 34 1 34 35
M  V30 35 1 10 12
M  V30 36 1 16 17
M  V30 37 1 19 20
M  V30 38 1 26 27
M  V30 39 1 32 33
M  V30 END BOND
M  V30 END CTAB
M  END
>  <Molecule Name>
Compound 680

>  <Molecule Name 2>
Compound 680

>  <Compound ID>
210

>  <Name>


>  <Uniprot>
P23443

>  <Target>
RPS6KB1

>  <Smiles>
CCN1CCN(C2=CC=C(NC3=NC=C4SC=C(C5=CC=CC(NS(C)(=O)=O)=C5)C4=N3)C=C2)CC1

>  <Kd (nM)>


>  <Assay (Kd)>


>  <Ki (nM)>


>  <Assay (Ki)>


>  <IC50 (nM)>


>  <Assay (IC50)>


>  <EC50 (nM)>


>  <Assay (EC50)>


>  <Article DOI>
10.1016/j.cell.2020.10.038

>  <Molecular Weight>
508.673

>  <Exact Mass>
508.1715161

>  <XLogP3>
4.08

>  <Heavy Atom Count>
35

>  <Ring Count>
5

>  <Hydrogen Bond Acceptor Count>
8

>  <Hydrogen Bond Donor Count>
2

>  <Rotatable Bond Count>
7

>  <Topological Polar Surface Area>
90.46

>  <Molecular Formula>
C25H28N6O2S2

>  <InChI>
InChI=1S/C25H28N6O2S2/c1-3-30-11-13-31(14-12-30)21-9-7-19(8-10-21)27-25-26-16-23-24(28-25)22(17-34-23)18-5-4-6-20(15-18)29-35(2,32)33/h4-10,15-17,29H,3,11-14H2,1-2H3,(H,26,27,28)

>  <InChI Key>
MQMVBXQAIMTOTQ-UHFFFAOYSA-N

>  <BindingDB>


>  <PubChem>
90466261

>  <ChEMBL>


$$$$
210
Actelion Java MolfileCreator 2.0

  0  0  0  0  0  0              0 V3000
M  V30 BEGIN CTAB
M  V30 COUNTS 35 39 0 0 0
M  V30 BEGIN ATOM
M  V30 1 S 1.732 -0.5 0.0 0
M  V30 2 O 1.232 -1.366 0.0 0
M  V30 3 O 2.232 0.366 0.0 0
M  V30 4 N 0.866 0.0 0.0 0
M  V30 5 C 2.598 -0.9999 0.0 0
M  V30 6 C 0.0 -0.5 0.0 0
M  V30 7 C -0.866 0.0 0.0 0
M  V30 8 C 0.0 -1.4999 0.0 0
M  V30 9 C -1.732 -0.4999 0.0 0
M  V30 10 C -0.866 -1.9999 0.0 0
M  V30 11 C -2.598 0.0 0.0 0
M  V30 12 C -1.732 -1.4999 0.0 0
M  V30 13 C -2.7026 0.9945 0.0 0
M  V30 14 C -3.5116 -0.4067 0.0 0
M  V30 15 N -2.0334 1.7376 0.0 0
M  V30 16 C -3.6807 1.2024 0.0 0
M  V30 17 S -4.1807 0.3364 0.0 0
M  V30 18 C -2.3424 2.6887 0.0 0
M  V30 19 C -3.9897 2.1534 0.0 0
M  V30 20 N -3.3206 2.8966 0.0 0
M  V30 21 N -1.6733 3.4318 0.0 0
M  V30 22 C -1.9823 4.3829 0.0 0
M  V30 23 C -1.3132 5.126 0.0 0
M  V30 24 C -2.9605 4.5908 0.0 0
M  V30 25 C -1.6222 6.0771 0.0 0
M  V30 26 C -3.2695 5.5418 0.0 0
M  V30 27 C -2.6004 6.285 0.0 0
M  V30 28 N -2.9094 7.236 0.0 0
M  V30 29 C -2.2402 7.9792 0.0 0
M  V30 30 C -3.8875 7.444 0.0 0
M  V30 31 C -2.5493 8.9302 0.0 0
M  V30 32 C -4.1965 8.395 0.0 0
M  V30 33 N -3.5274 9.1382 0.0 0
M  V30 34 C -3.8364 10.0892 0.0 0
M  V30 35 C -4.8146 10.2971 0.0 0
M  V30 END ATOM
M  V30 BEGIN BOND
M  V30 1 2 1 2
M  V30 2 2 1 3
M  V30 3 1 1 4
M  V30 4 1 1 5
M  V30 5 1 4 6
M  V30 6 2 6 7
M  V30 7 1 6 8
M  V30 8 1 7 9
M  V30 9 2 8 10
M  V30 10 1 9 11
M  V30 11 2 9 12
M  V30 12 1 11 13
M  V30 13 2 11 14
M  V30 14 2 13 15
M  V30 15 1 13 16
M  V30 16 1 14 17
M  V30 17 1 15 18
M  V30 18 2 16 19
M  V30 19 2 18 20
M  V30 20 1 18 21
M  V30 21 1 21 22
M  V30 22 2 22 23
M  V30 23 1 22 24
M  V30 24 1 23 25
M  V30 25 2 24 26
M  V30 26 2 25 27
M  V30 27 1 27 28
M  V30 28 1 28 29
M  V30 29 1 28 30
M  V30 30 1 29 31
M  V30 31 1 30 32
M  V30 32 1 31 33
M  V30 33 1 33 34
M  V30 34 1 34 35
M  V30 35 1 10 12
M  V30 36 1 16 17
M  V30 37 1 19 20
M  V30 38 1 26 27
M  V30 39 1 32 33
M  V30 END BOND
M  V30 END CTAB
M  END
>  <Molecule Name>
Compound 681

>  <Molecule Name 2>
Compound 681

>  <Compound ID>
210

>  <Name>


>  <Uniprot>
Q9H0K1

>  <Target>
SIK2

>  <Smiles>
CCN1CCN(C2=CC=C(NC3=NC=C4SC=C(C5=CC=CC(NS(C)(=O)=O)=C5)C4=N3)C=C2)CC1

>  <Kd (nM)>


>  <Assay (Kd)>


>  <Ki (nM)>


>  <Assay (Ki)>


>  <IC50 (nM)>


>  <Assay (IC50)>


>  <EC50 (nM)>


>  <Assay (EC50)>


>  <Article DOI>
10.1016/j.cell.2020.10.038

>  <Molecular Weight>
508.673

>  <Exact Mass>
508.1715161

>  <XLogP3>
4.08

>  <Heavy Atom Count>
35

>  <Ring Count>
5

>  <Hydrogen Bond Acceptor Count>
8

>  <Hydrogen Bond Donor Count>
2

>  <Rotatable Bond Count>
7

>  <Topological Polar Surface Area>
90.46

>  <Molecular Formula>
C25H28N6O2S2

>  <InChI>
InChI=1S/C25H28N6O2S2/c1-3-30-11-13-31(14-12-30)21-9-7-19(8-10-21)27-25-26-16-23-24(28-25)22(17-34-23)18-5-4-6-20(15-18)29-35(2,32)33/h4-10,15-17,29H,3,11-14H2,1-2H3,(H,26,27,28)

>  <InChI Key>
MQMVBXQAIMTOTQ-UHFFFAOYSA-N

>  <BindingDB>


>  <PubChem>
90466261

>  <ChEMBL>


$$$$
210
Actelion Java MolfileCreator 2.0

  0  0  0  0  0  0              0 V3000
M  V30 BEGIN CTAB
M  V30 COUNTS 35 39 0 0 0
M  V30 BEGIN ATOM
M  V30 1 S 1.732 -0.5 0.0 0
M  V30 2 O 1.232 -1.366 0.0 0
M  V30 3 O 2.232 0.366 0.0 0
M  V30 4 N 0.866 0.0 0.0 0
M  V30 5 C 2.598 -0.9999 0.0 0
M  V30 6 C 0.0 -0.5 0.0 0
M  V30 7 C -0.866 0.0 0.0 0
M  V30 8 C 0.0 -1.4999 0.0 0
M  V30 9 C -1.732 -0.4999 0.0 0
M  V30 10 C -0.866 -1.9999 0.0 0
M  V30 11 C -2.598 0.0 0.0 0
M  V30 12 C -1.732 -1.4999 0.0 0
M  V30 13 C -2.7026 0.9945 0.0 0
M  V30 14 C -3.5116 -0.4067 0.0 0
M  V30 15 N -2.0334 1.7376 0.0 0
M  V30 16 C -3.6807 1.2024 0.0 0
M  V30 17 S -4.1807 0.3364 0.0 0
M  V30 18 C -2.3424 2.6887 0.0 0
M  V30 19 C -3.9897 2.1534 0.0 0
M  V30 20 N -3.3206 2.8966 0.0 0
M  V30 21 N -1.6733 3.4318 0.0 0
M  V30 22 C -1.9823 4.3829 0.0 0
M  V30 23 C -1.3132 5.126 0.0 0
M  V30 24 C -2.9605 4.5908 0.0 0
M  V30 25 C -1.6222 6.0771 0.0 0
M  V30 26 C -3.2695 5.5418 0.0 0
M  V30 27 C -2.6004 6.285 0.0 0
M  V30 28 N -2.9094 7.236 0.0 0
M  V30 29 C -2.2402 7.9792 0.0 0
M  V30 30 C -3.8875 7.444 0.0 0
M  V30 31 C -2.5493 8.9302 0.0 0
M  V30 32 C -4.1965 8.395 0.0 0
M  V30 33 N -3.5274 9.1382 0.0 0
M  V30 34 C -3.8364 10.0892 0.0 0
M  V30 35 C -4.8146 10.2971 0.0 0
M  V30 END ATOM
M  V30 BEGIN BOND
M  V30 1 2 1 2
M  V30 2 2 1 3
M  V30 3 1 1 4
M  V30 4 1 1 5
M  V30 5 1 4 6
M  V30 6 2 6 7
M  V30 7 1 6 8
M  V30 8 1 7 9
M  V30 9 2 8 10
M  V30 10 1 9 11
M  V30 11 2 9 12
M  V30 12 1 11 13
M  V30 13 2 11 14
M  V30 14 2 13 15
M  V30 15 1 13 16
M  V30 16 1 14 17
M  V30 17 1 15 18
M  V30 18 2 16 19
M  V30 19 2 18 20
M  V30 20 1 18 21
M  V30 21 1 21 22
M  V30 22 2 22 23
M  V30 23 1 22 24
M  V30 24 1 23 25
M  V30 25 2 24 26
M  V30 26 2 25 27
M  V30 27 1 27 28
M  V30 28 1 28 29
M  V30 29 1 28 30
M  V30 30 1 29 31
M  V30 31 1 30 32
M  V30 32 1 31 33
M  V30 33 1 33 34
M  V30 34 1 34 35
M  V30 35 1 10 12
M  V30 36 1 16 17
M  V30 37 1 19 20
M  V30 38 1 26 27
M  V30 39 1 32 33
M  V30 END BOND
M  V30 END CTAB
M  END
>  <Molecule Name>
Compound 682

>  <Molecule Name 2>
Compound 682

>  <Compound ID>
210

>  <Name>


>  <Uniprot>
Q9NRH2

>  <Target>
SNRK

>  <Smiles>
CCN1CCN(C2=CC=C(NC3=NC=C4SC=C(C5=CC=CC(NS(C)(=O)=O)=C5)C4=N3)C=C2)CC1

>  <Kd (nM)>


>  <Assay (Kd)>


>  <Ki (nM)>


>  <Assay (Ki)>


>  <IC50 (nM)>


>  <Assay (IC50)>


>  <EC50 (nM)>


>  <Assay (EC50)>


>  <Article DOI>
10.1016/j.cell.2020.10.038

>  <Molecular Weight>
508.673

>  <Exact Mass>
508.1715161

>  <XLogP3>
4.08

>  <Heavy Atom Count>
35

>  <Ring Count>
5

>  <Hydrogen Bond Acceptor Count>
8

>  <Hydrogen Bond Donor Count>
2

>  <Rotatable Bond Count>
7

>  <Topological Polar Surface Area>
90.46

>  <Molecular Formula>
C25H28N6O2S2

>  <InChI>
InChI=1S/C25H28N6O2S2/c1-3-30-11-13-31(14-12-30)21-9-7-19(8-10-21)27-25-26-16-23-24(28-25)22(17-34-23)18-5-4-6-20(15-18)29-35(2,32)33/h4-10,15-17,29H,3,11-14H2,1-2H3,(H,26,27,28)

>  <InChI Key>
MQMVBXQAIMTOTQ-UHFFFAOYSA-N

>  <BindingDB>


>  <PubChem>
90466261

>  <ChEMBL>


$$$$
210
Actelion Java MolfileCreator 2.0

  0  0  0  0  0  0              0 V3000
M  V30 BEGIN CTAB
M  V30 COUNTS 35 39 0 0 0
M  V30 BEGIN ATOM
M  V30 1 S 1.732 -0.5 0.0 0
M  V30 2 O 1.232 -1.366 0.0 0
M  V30 3 O 2.232 0.366 0.0 0
M  V30 4 N 0.866 0.0 0.0 0
M  V30 5 C 2.598 -0.9999 0.0 0
M  V30 6 C 0.0 -0.5 0.0 0
M  V30 7 C -0.866 0.0 0.0 0
M  V30 8 C 0.0 -1.4999 0.0 0
M  V30 9 C -1.732 -0.4999 0.0 0
M  V30 10 C -0.866 -1.9999 0.0 0
M  V30 11 C -2.598 0.0 0.0 0
M  V30 12 C -1.732 -1.4999 0.0 0
M  V30 13 C -2.7026 0.9945 0.0 0
M  V30 14 C -3.5116 -0.4067 0.0 0
M  V30 15 N -2.0334 1.7376 0.0 0
M  V30 16 C -3.6807 1.2024 0.0 0
M  V30 17 S -4.1807 0.3364 0.0 0
M  V30 18 C -2.3424 2.6887 0.0 0
M  V30 19 C -3.9897 2.1534 0.0 0
M  V30 20 N -3.3206 2.8966 0.0 0
M  V30 21 N -1.6733 3.4318 0.0 0
M  V30 22 C -1.9823 4.3829 0.0 0
M  V30 23 C -1.3132 5.126 0.0 0
M  V30 24 C -2.9605 4.5908 0.0 0
M  V30 25 C -1.6222 6.0771 0.0 0
M  V30 26 C -3.2695 5.5418 0.0 0
M  V30 27 C -2.6004 6.285 0.0 0
M  V30 28 N -2.9094 7.236 0.0 0
M  V30 29 C -2.2402 7.9792 0.0 0
M  V30 30 C -3.8875 7.444 0.0 0
M  V30 31 C -2.5493 8.9302 0.0 0
M  V30 32 C -4.1965 8.395 0.0 0
M  V30 33 N -3.5274 9.1382 0.0 0
M  V30 34 C -3.8364 10.0892 0.0 0
M  V30 35 C -4.8146 10.2971 0.0 0
M  V30 END ATOM
M  V30 BEGIN BOND
M  V30 1 2 1 2
M  V30 2 2 1 3
M  V30 3 1 1 4
M  V30 4 1 1 5
M  V30 5 1 4 6
M  V30 6 2 6 7
M  V30 7 1 6 8
M  V30 8 1 7 9
M  V30 9 2 8 10
M  V30 10 1 9 11
M  V30 11 2 9 12
M  V30 12 1 11 13
M  V30 13 2 11 14
M  V30 14 2 13 15
M  V30 15 1 13 16
M  V30 16 1 14 17
M  V30 17 1 15 18
M  V30 18 2 16 19
M  V30 19 2 18 20
M  V30 20 1 18 21
M  V30 21 1 21 22
M  V30 22 2 22 23
M  V30 23 1 22 24
M  V30 24 1 23 25
M  V30 25 2 24 26
M  V30 26 2 25 27
M  V30 27 1 27 28
M  V30 28 1 28 29
M  V30 29 1 28 30
M  V30 30 1 29 31
M  V30 31 1 30 32
M  V30 32 1 31 33
M  V30 33 1 33 34
M  V30 34 1 34 35
M  V30 35 1 10 12
M  V30 36 1 16 17
M  V30 37 1 19 20
M  V30 38 1 26 27
M  V30 39 1 32 33
M  V30 END BOND
M  V30 END CTAB
M  END
>  <Molecule Name>
Compound 683

>  <Molecule Name 2>
Compound 683

>  <Compound ID>
210

>  <Name>


>  <Uniprot>
Q9UEE5

>  <Target>
STK17A

>  <Smiles>
CCN1CCN(C2=CC=C(NC3=NC=C4SC=C(C5=CC=CC(NS(C)(=O)=O)=C5)C4=N3)C=C2)CC1

>  <Kd (nM)>


>  <Assay (Kd)>


>  <Ki (nM)>


>  <Assay (Ki)>


>  <IC50 (nM)>


>  <Assay (IC50)>


>  <EC50 (nM)>


>  <Assay (EC50)>


>  <Article DOI>
10.1016/j.cell.2020.10.038

>  <Molecular Weight>
508.673

>  <Exact Mass>
508.1715161

>  <XLogP3>
4.08

>  <Heavy Atom Count>
35

>  <Ring Count>
5

>  <Hydrogen Bond Acceptor Count>
8

>  <Hydrogen Bond Donor Count>
2

>  <Rotatable Bond Count>
7

>  <Topological Polar Surface Area>
90.46

>  <Molecular Formula>
C25H28N6O2S2

>  <InChI>
InChI=1S/C25H28N6O2S2/c1-3-30-11-13-31(14-12-30)21-9-7-19(8-10-21)27-25-26-16-23-24(28-25)22(17-34-23)18-5-4-6-20(15-18)29-35(2,32)33/h4-10,15-17,29H,3,11-14H2,1-2H3,(H,26,27,28)

>  <InChI Key>
MQMVBXQAIMTOTQ-UHFFFAOYSA-N

>  <BindingDB>


>  <PubChem>
90466261

>  <ChEMBL>


$$$$
210
Actelion Java MolfileCreator 2.0

  0  0  0  0  0  0              0 V3000
M  V30 BEGIN CTAB
M  V30 COUNTS 35 39 0 0 0
M  V30 BEGIN ATOM
M  V30 1 S 1.732 -0.5 0.0 0
M  V30 2 O 1.232 -1.366 0.0 0
M  V30 3 O 2.232 0.366 0.0 0
M  V30 4 N 0.866 0.0 0.0 0
M  V30 5 C 2.598 -0.9999 0.0 0
M  V30 6 C 0.0 -0.5 0.0 0
M  V30 7 C -0.866 0.0 0.0 0
M  V30 8 C 0.0 -1.4999 0.0 0
M  V30 9 C -1.732 -0.4999 0.0 0
M  V30 10 C -0.866 -1.9999 0.0 0
M  V30 11 C -2.598 0.0 0.0 0
M  V30 12 C -1.732 -1.4999 0.0 0
M  V30 13 C -2.7026 0.9945 0.0 0
M  V30 14 C -3.5116 -0.4067 0.0 0
M  V30 15 N -2.0334 1.7376 0.0 0
M  V30 16 C -3.6807 1.2024 0.0 0
M  V30 17 S -4.1807 0.3364 0.0 0
M  V30 18 C -2.3424 2.6887 0.0 0
M  V30 19 C -3.9897 2.1534 0.0 0
M  V30 20 N -3.3206 2.8966 0.0 0
M  V30 21 N -1.6733 3.4318 0.0 0
M  V30 22 C -1.9823 4.3829 0.0 0
M  V30 23 C -1.3132 5.126 0.0 0
M  V30 24 C -2.9605 4.5908 0.0 0
M  V30 25 C -1.6222 6.0771 0.0 0
M  V30 26 C -3.2695 5.5418 0.0 0
M  V30 27 C -2.6004 6.285 0.0 0
M  V30 28 N -2.9094 7.236 0.0 0
M  V30 29 C -2.2402 7.9792 0.0 0
M  V30 30 C -3.8875 7.444 0.0 0
M  V30 31 C -2.5493 8.9302 0.0 0
M  V30 32 C -4.1965 8.395 0.0 0
M  V30 33 N -3.5274 9.1382 0.0 0
M  V30 34 C -3.8364 10.0892 0.0 0
M  V30 35 C -4.8146 10.2971 0.0 0
M  V30 END ATOM
M  V30 BEGIN BOND
M  V30 1 2 1 2
M  V30 2 2 1 3
M  V30 3 1 1 4
M  V30 4 1 1 5
M  V30 5 1 4 6
M  V30 6 2 6 7
M  V30 7 1 6 8
M  V30 8 1 7 9
M  V30 9 2 8 10
M  V30 10 1 9 11
M  V30 11 2 9 12
M  V30 12 1 11 13
M  V30 13 2 11 14
M  V30 14 2 13 15
M  V30 15 1 13 16
M  V30 16 1 14 17
M  V30 17 1 15 18
M  V30 18 2 16 19
M  V30 19 2 18 20
M  V30 20 1 18 21
M  V30 21 1 21 22
M  V30 22 2 22 23
M  V30 23 1 22 24
M  V30 24 1 23 25
M  V30 25 2 24 26
M  V30 26 2 25 27
M  V30 27 1 27 28
M  V30 28 1 28 29
M  V30 29 1 28 30
M  V30 30 1 29 31
M  V30 31 1 30 32
M  V30 32 1 31 33
M  V30 33 1 33 34
M  V30 34 1 34 35
M  V30 35 1 10 12
M  V30 36 1 16 17
M  V30 37 1 19 20
M  V30 38 1 26 27
M  V30 39 1 32 33
M  V30 END BOND
M  V30 END CTAB
M  END
>  <Molecule Name>
Compound 684

>  <Molecule Name 2>
Compound 684

>  <Compound ID>
210

>  <Name>


>  <Uniprot>
O94768

>  <Target>
STK17B

>  <Smiles>
CCN1CCN(C2=CC=C(NC3=NC=C4SC=C(C5=CC=CC(NS(C)(=O)=O)=C5)C4=N3)C=C2)CC1

>  <Kd (nM)>


>  <Assay (Kd)>


>  <Ki (nM)>


>  <Assay (Ki)>


>  <IC50 (nM)>


>  <Assay (IC50)>


>  <EC50 (nM)>


>  <Assay (EC50)>


>  <Article DOI>
10.1016/j.cell.2020.10.038

>  <Molecular Weight>
508.673

>  <Exact Mass>
508.1715161

>  <XLogP3>
4.08

>  <Heavy Atom Count>
35

>  <Ring Count>
5

>  <Hydrogen Bond Acceptor Count>
8

>  <Hydrogen Bond Donor Count>
2

>  <Rotatable Bond Count>
7

>  <Topological Polar Surface Area>
90.46

>  <Molecular Formula>
C25H28N6O2S2

>  <InChI>
InChI=1S/C25H28N6O2S2/c1-3-30-11-13-31(14-12-30)21-9-7-19(8-10-21)27-25-26-16-23-24(28-25)22(17-34-23)18-5-4-6-20(15-18)29-35(2,32)33/h4-10,15-17,29H,3,11-14H2,1-2H3,(H,26,27,28)

>  <InChI Key>
MQMVBXQAIMTOTQ-UHFFFAOYSA-N

>  <BindingDB>


>  <PubChem>
90466261

>  <ChEMBL>


$$$$
210
Actelion Java MolfileCreator 2.0

  0  0  0  0  0  0              0 V3000
M  V30 BEGIN CTAB
M  V30 COUNTS 35 39 0 0 0
M  V30 BEGIN ATOM
M  V30 1 S 1.732 -0.5 0.0 0
M  V30 2 O 1.232 -1.366 0.0 0
M  V30 3 O 2.232 0.366 0.0 0
M  V30 4 N 0.866 0.0 0.0 0
M  V30 5 C 2.598 -0.9999 0.0 0
M  V30 6 C 0.0 -0.5 0.0 0
M  V30 7 C -0.866 0.0 0.0 0
M  V30 8 C 0.0 -1.4999 0.0 0
M  V30 9 C -1.732 -0.4999 0.0 0
M  V30 10 C -0.866 -1.9999 0.0 0
M  V30 11 C -2.598 0.0 0.0 0
M  V30 12 C -1.732 -1.4999 0.0 0
M  V30 13 C -2.7026 0.9945 0.0 0
M  V30 14 C -3.5116 -0.4067 0.0 0
M  V30 15 N -2.0334 1.7376 0.0 0
M  V30 16 C -3.6807 1.2024 0.0 0
M  V30 17 S -4.1807 0.3364 0.0 0
M  V30 18 C -2.3424 2.6887 0.0 0
M  V30 19 C -3.9897 2.1534 0.0 0
M  V30 20 N -3.3206 2.8966 0.0 0
M  V30 21 N -1.6733 3.4318 0.0 0
M  V30 22 C -1.9823 4.3829 0.0 0
M  V30 23 C -1.3132 5.126 0.0 0
M  V30 24 C -2.9605 4.5908 0.0 0
M  V30 25 C -1.6222 6.0771 0.0 0
M  V30 26 C -3.2695 5.5418 0.0 0
M  V30 27 C -2.6004 6.285 0.0 0
M  V30 28 N -2.9094 7.236 0.0 0
M  V30 29 C -2.2402 7.9792 0.0 0
M  V30 30 C -3.8875 7.444 0.0 0
M  V30 31 C -2.5493 8.9302 0.0 0
M  V30 32 C -4.1965 8.395 0.0 0
M  V30 33 N -3.5274 9.1382 0.0 0
M  V30 34 C -3.8364 10.0892 0.0 0
M  V30 35 C -4.8146 10.2971 0.0 0
M  V30 END ATOM
M  V30 BEGIN BOND
M  V30 1 2 1 2
M  V30 2 2 1 3
M  V30 3 1 1 4
M  V30 4 1 1 5
M  V30 5 1 4 6
M  V30 6 2 6 7
M  V30 7 1 6 8
M  V30 8 1 7 9
M  V30 9 2 8 10
M  V30 10 1 9 11
M  V30 11 2 9 12
M  V30 12 1 11 13
M  V30 13 2 11 14
M  V30 14 2 13 15
M  V30 15 1 13 16
M  V30 16 1 14 17
M  V30 17 1 15 18
M  V30 18 2 16 19
M  V30 19 2 18 20
M  V30 20 1 18 21
M  V30 21 1 21 22
M  V30 22 2 22 23
M  V30 23 1 22 24
M  V30 24 1 23 25
M  V30 25 2 24 26
M  V30 26 2 25 27
M  V30 27 1 27 28
M  V30 28 1 28 29
M  V30 29 1 28 30
M  V30 30 1 29 31
M  V30 31 1 30 32
M  V30 32 1 31 33
M  V30 33 1 33 34
M  V30 34 1 34 35
M  V30 35 1 10 12
M  V30 36 1 16 17
M  V30 37 1 19 20
M  V30 38 1 26 27
M  V30 39 1 32 33
M  V30 END BOND
M  V30 END CTAB
M  END
>  <Molecule Name>
Compound 685

>  <Molecule Name 2>
Compound 685

>  <Compound ID>
210

>  <Name>


>  <Uniprot>
Q8TDR2

>  <Target>
STK35

>  <Smiles>
CCN1CCN(C2=CC=C(NC3=NC=C4SC=C(C5=CC=CC(NS(C)(=O)=O)=C5)C4=N3)C=C2)CC1

>  <Kd (nM)>


>  <Assay (Kd)>


>  <Ki (nM)>


>  <Assay (Ki)>


>  <IC50 (nM)>


>  <Assay (IC50)>


>  <EC50 (nM)>


>  <Assay (EC50)>


>  <Article DOI>
10.1016/j.cell.2020.10.038

>  <Molecular Weight>
508.673

>  <Exact Mass>
508.1715161

>  <XLogP3>
4.08

>  <Heavy Atom Count>
35

>  <Ring Count>
5

>  <Hydrogen Bond Acceptor Count>
8

>  <Hydrogen Bond Donor Count>
2

>  <Rotatable Bond Count>
7

>  <Topological Polar Surface Area>
90.46

>  <Molecular Formula>
C25H28N6O2S2

>  <InChI>
InChI=1S/C25H28N6O2S2/c1-3-30-11-13-31(14-12-30)21-9-7-19(8-10-21)27-25-26-16-23-24(28-25)22(17-34-23)18-5-4-6-20(15-18)29-35(2,32)33/h4-10,15-17,29H,3,11-14H2,1-2H3,(H,26,27,28)

>  <InChI Key>
MQMVBXQAIMTOTQ-UHFFFAOYSA-N

>  <BindingDB>


>  <PubChem>
90466261

>  <ChEMBL>


$$$$
210
Actelion Java MolfileCreator 2.0

  0  0  0  0  0  0              0 V3000
M  V30 BEGIN CTAB
M  V30 COUNTS 35 39 0 0 0
M  V30 BEGIN ATOM
M  V30 1 S 1.732 -0.5 0.0 0
M  V30 2 O 1.232 -1.366 0.0 0
M  V30 3 O 2.232 0.366 0.0 0
M  V30 4 N 0.866 0.0 0.0 0
M  V30 5 C 2.598 -0.9999 0.0 0
M  V30 6 C 0.0 -0.5 0.0 0
M  V30 7 C -0.866 0.0 0.0 0
M  V30 8 C 0.0 -1.4999 0.0 0
M  V30 9 C -1.732 -0.4999 0.0 0
M  V30 10 C -0.866 -1.9999 0.0 0
M  V30 11 C -2.598 0.0 0.0 0
M  V30 12 C -1.732 -1.4999 0.0 0
M  V30 13 C -2.7026 0.9945 0.0 0
M  V30 14 C -3.5116 -0.4067 0.0 0
M  V30 15 N -2.0334 1.7376 0.0 0
M  V30 16 C -3.6807 1.2024 0.0 0
M  V30 17 S -4.1807 0.3364 0.0 0
M  V30 18 C -2.3424 2.6887 0.0 0
M  V30 19 C -3.9897 2.1534 0.0 0
M  V30 20 N -3.3206 2.8966 0.0 0
M  V30 21 N -1.6733 3.4318 0.0 0
M  V30 22 C -1.9823 4.3829 0.0 0
M  V30 23 C -1.3132 5.126 0.0 0
M  V30 24 C -2.9605 4.5908 0.0 0
M  V30 25 C -1.6222 6.0771 0.0 0
M  V30 26 C -3.2695 5.5418 0.0 0
M  V30 27 C -2.6004 6.285 0.0 0
M  V30 28 N -2.9094 7.236 0.0 0
M  V30 29 C -2.2402 7.9792 0.0 0
M  V30 30 C -3.8875 7.444 0.0 0
M  V30 31 C -2.5493 8.9302 0.0 0
M  V30 32 C -4.1965 8.395 0.0 0
M  V30 33 N -3.5274 9.1382 0.0 0
M  V30 34 C -3.8364 10.0892 0.0 0
M  V30 35 C -4.8146 10.2971 0.0 0
M  V30 END ATOM
M  V30 BEGIN BOND
M  V30 1 2 1 2
M  V30 2 2 1 3
M  V30 3 1 1 4
M  V30 4 1 1 5
M  V30 5 1 4 6
M  V30 6 2 6 7
M  V30 7 1 6 8
M  V30 8 1 7 9
M  V30 9 2 8 10
M  V30 10 1 9 11
M  V30 11 2 9 12
M  V30 12 1 11 13
M  V30 13 2 11 14
M  V30 14 2 13 15
M  V30 15 1 13 16
M  V30 16 1 14 17
M  V30 17 1 15 18
M  V30 18 2 16 19
M  V30 19 2 18 20
M  V30 20 1 18 21
M  V30 21 1 21 22
M  V30 22 2 22 23
M  V30 23 1 22 24
M  V30 24 1 23 25
M  V30 25 2 24 26
M  V30 26 2 25 27
M  V30 27 1 27 28
M  V30 28 1 28 29
M  V30 29 1 28 30
M  V30 30 1 29 31
M  V30 31 1 30 32
M  V30 32 1 31 33
M  V30 33 1 33 34
M  V30 34 1 34 35
M  V30 35 1 10 12
M  V30 36 1 16 17
M  V30 37 1 19 20
M  V30 38 1 26 27
M  V30 39 1 32 33
M  V30 END BOND
M  V30 END CTAB
M  END
>  <Molecule Name>
Compound 686

>  <Molecule Name 2>
Compound 686

>  <Compound ID>
210

>  <Name>


>  <Uniprot>
O75385

>  <Target>
ULK1

>  <Smiles>
CCN1CCN(C2=CC=C(NC3=NC=C4SC=C(C5=CC=CC(NS(C)(=O)=O)=C5)C4=N3)C=C2)CC1

>  <Kd (nM)>


>  <Assay (Kd)>


>  <Ki (nM)>


>  <Assay (Ki)>


>  <IC50 (nM)>


>  <Assay (IC50)>


>  <EC50 (nM)>


>  <Assay (EC50)>


>  <Article DOI>
10.1016/j.cell.2020.10.038

>  <Molecular Weight>
508.673

>  <Exact Mass>
508.1715161

>  <XLogP3>
4.08

>  <Heavy Atom Count>
35

>  <Ring Count>
5

>  <Hydrogen Bond Acceptor Count>
8

>  <Hydrogen Bond Donor Count>
2

>  <Rotatable Bond Count>
7

>  <Topological Polar Surface Area>
90.46

>  <Molecular Formula>
C25H28N6O2S2

>  <InChI>
InChI=1S/C25H28N6O2S2/c1-3-30-11-13-31(14-12-30)21-9-7-19(8-10-21)27-25-26-16-23-24(28-25)22(17-34-23)18-5-4-6-20(15-18)29-35(2,32)33/h4-10,15-17,29H,3,11-14H2,1-2H3,(H,26,27,28)

>  <InChI Key>
MQMVBXQAIMTOTQ-UHFFFAOYSA-N

>  <BindingDB>


>  <PubChem>
90466261

>  <ChEMBL>


$$$$
210
Actelion Java MolfileCreator 2.0

  0  0  0  0  0  0              0 V3000
M  V30 BEGIN CTAB
M  V30 COUNTS 35 39 0 0 0
M  V30 BEGIN ATOM
M  V30 1 S 1.732 -0.5 0.0 0
M  V30 2 O 1.232 -1.366 0.0 0
M  V30 3 O 2.232 0.366 0.0 0
M  V30 4 N 0.866 0.0 0.0 0
M  V30 5 C 2.598 -0.9999 0.0 0
M  V30 6 C 0.0 -0.5 0.0 0
M  V30 7 C -0.866 0.0 0.0 0
M  V30 8 C 0.0 -1.4999 0.0 0
M  V30 9 C -1.732 -0.4999 0.0 0
M  V30 10 C -0.866 -1.9999 0.0 0
M  V30 11 C -2.598 0.0 0.0 0
M  V30 12 C -1.732 -1.4999 0.0 0
M  V30 13 C -2.7026 0.9945 0.0 0
M  V30 14 C -3.5116 -0.4067 0.0 0
M  V30 15 N -2.0334 1.7376 0.0 0
M  V30 16 C -3.6807 1.2024 0.0 0
M  V30 17 S -4.1807 0.3364 0.0 0
M  V30 18 C -2.3424 2.6887 0.0 0
M  V30 19 C -3.9897 2.1534 0.0 0
M  V30 20 N -3.3206 2.8966 0.0 0
M  V30 21 N -1.6733 3.4318 0.0 0
M  V30 22 C -1.9823 4.3829 0.0 0
M  V30 23 C -1.3132 5.126 0.0 0
M  V30 24 C -2.9605 4.5908 0.0 0
M  V30 25 C -1.6222 6.0771 0.0 0
M  V30 26 C -3.2695 5.5418 0.0 0
M  V30 27 C -2.6004 6.285 0.0 0
M  V30 28 N -2.9094 7.236 0.0 0
M  V30 29 C -2.2402 7.9792 0.0 0
M  V30 30 C -3.8875 7.444 0.0 0
M  V30 31 C -2.5493 8.9302 0.0 0
M  V30 32 C -4.1965 8.395 0.0 0
M  V30 33 N -3.5274 9.1382 0.0 0
M  V30 34 C -3.8364 10.0892 0.0 0
M  V30 35 C -4.8146 10.2971 0.0 0
M  V30 END ATOM
M  V30 BEGIN BOND
M  V30 1 2 1 2
M  V30 2 2 1 3
M  V30 3 1 1 4
M  V30 4 1 1 5
M  V30 5 1 4 6
M  V30 6 2 6 7
M  V30 7 1 6 8
M  V30 8 1 7 9
M  V30 9 2 8 10
M  V30 10 1 9 11
M  V30 11 2 9 12
M  V30 12 1 11 13
M  V30 13 2 11 14
M  V30 14 2 13 15
M  V30 15 1 13 16
M  V30 16 1 14 17
M  V30 17 1 15 18
M  V30 18 2 16 19
M  V30 19 2 18 20
M  V30 20 1 18 21
M  V30 21 1 21 22
M  V30 22 2 22 23
M  V30 23 1 22 24
M  V30 24 1 23 25
M  V30 25 2 24 26
M  V30 26 2 25 27
M  V30 27 1 27 28
M  V30 28 1 28 29
M  V30 29 1 28 30
M  V30 30 1 29 31
M  V30 31 1 30 32
M  V30 32 1 31 33
M  V30 33 1 33 34
M  V30 34 1 34 35
M  V30 35 1 10 12
M  V30 36 1 16 17
M  V30 37 1 19 20
M  V30 38 1 26 27
M  V30 39 1 32 33
M  V30 END BOND
M  V30 END CTAB
M  END
>  <Molecule Name>
Compound 687

>  <Molecule Name 2>
Compound 687

>  <Compound ID>
210

>  <Name>


>  <Uniprot>
Q6PHR2

>  <Target>
ULK3

>  <Smiles>
CCN1CCN(C2=CC=C(NC3=NC=C4SC=C(C5=CC=CC(NS(C)(=O)=O)=C5)C4=N3)C=C2)CC1

>  <Kd (nM)>


>  <Assay (Kd)>


>  <Ki (nM)>


>  <Assay (Ki)>


>  <IC50 (nM)>


>  <Assay (IC50)>


>  <EC50 (nM)>


>  <Assay (EC50)>


>  <Article DOI>
10.1016/j.cell.2020.10.038

>  <Molecular Weight>
508.673

>  <Exact Mass>
508.1715161

>  <XLogP3>
4.08

>  <Heavy Atom Count>
35

>  <Ring Count>
5

>  <Hydrogen Bond Acceptor Count>
8

>  <Hydrogen Bond Donor Count>
2

>  <Rotatable Bond Count>
7

>  <Topological Polar Surface Area>
90.46

>  <Molecular Formula>
C25H28N6O2S2

>  <InChI>
InChI=1S/C25H28N6O2S2/c1-3-30-11-13-31(14-12-30)21-9-7-19(8-10-21)27-25-26-16-23-24(28-25)22(17-34-23)18-5-4-6-20(15-18)29-35(2,32)33/h4-10,15-17,29H,3,11-14H2,1-2H3,(H,26,27,28)

>  <InChI Key>
MQMVBXQAIMTOTQ-UHFFFAOYSA-N

>  <BindingDB>


>  <PubChem>
90466261

>  <ChEMBL>


$$$$
210
Actelion Java MolfileCreator 2.0

  0  0  0  0  0  0              0 V3000
M  V30 BEGIN CTAB
M  V30 COUNTS 35 39 0 0 0
M  V30 BEGIN ATOM
M  V30 1 S 1.732 -0.5 0.0 0
M  V30 2 O 1.232 -1.366 0.0 0
M  V30 3 O 2.232 0.366 0.0 0
M  V30 4 N 0.866 0.0 0.0 0
M  V30 5 C 2.598 -0.9999 0.0 0
M  V30 6 C 0.0 -0.5 0.0 0
M  V30 7 C -0.866 0.0 0.0 0
M  V30 8 C 0.0 -1.4999 0.0 0
M  V30 9 C -1.732 -0.4999 0.0 0
M  V30 10 C -0.866 -1.9999 0.0 0
M  V30 11 C -2.598 0.0 0.0 0
M  V30 12 C -1.732 -1.4999 0.0 0
M  V30 13 C -2.7026 0.9945 0.0 0
M  V30 14 C -3.5116 -0.4067 0.0 0
M  V30 15 N -2.0334 1.7376 0.0 0
M  V30 16 C -3.6807 1.2024 0.0 0
M  V30 17 S -4.1807 0.3364 0.0 0
M  V30 18 C -2.3424 2.6887 0.0 0
M  V30 19 C -3.9897 2.1534 0.0 0
M  V30 20 N -3.3206 2.8966 0.0 0
M  V30 21 N -1.6733 3.4318 0.0 0
M  V30 22 C -1.9823 4.3829 0.0 0
M  V30 23 C -1.3132 5.126 0.0 0
M  V30 24 C -2.9605 4.5908 0.0 0
M  V30 25 C -1.6222 6.0771 0.0 0
M  V30 26 C -3.2695 5.5418 0.0 0
M  V30 27 C -2.6004 6.285 0.0 0
M  V30 28 N -2.9094 7.236 0.0 0
M  V30 29 C -2.2402 7.9792 0.0 0
M  V30 30 C -3.8875 7.444 0.0 0
M  V30 31 C -2.5493 8.9302 0.0 0
M  V30 32 C -4.1965 8.395 0.0 0
M  V30 33 N -3.5274 9.1382 0.0 0
M  V30 34 C -3.8364 10.0892 0.0 0
M  V30 35 C -4.8146 10.2971 0.0 0
M  V30 END ATOM
M  V30 BEGIN BOND
M  V30 1 2 1 2
M  V30 2 2 1 3
M  V30 3 1 1 4
M  V30 4 1 1 5
M  V30 5 1 4 6
M  V30 6 2 6 7
M  V30 7 1 6 8
M  V30 8 1 7 9
M  V30 9 2 8 10
M  V30 10 1 9 11
M  V30 11 2 9 12
M  V30 12 1 11 13
M  V30 13 2 11 14
M  V30 14 2 13 15
M  V30 15 1 13 16
M  V30 16 1 14 17
M  V30 17 1 15 18
M  V30 18 2 16 19
M  V30 19 2 18 20
M  V30 20 1 18 21
M  V30 21 1 21 22
M  V30 22 2 22 23
M  V30 23 1 22 24
M  V30 24 1 23 25
M  V30 25 2 24 26
M  V30 26 2 25 27
M  V30 27 1 27 28
M  V30 28 1 28 29
M  V30 29 1 28 30
M  V30 30 1 29 31
M  V30 31 1 30 32
M  V30 32 1 31 33
M  V30 33 1 33 34
M  V30 34 1 34 35
M  V30 35 1 10 12
M  V30 36 1 16 17
M  V30 37 1 19 20
M  V30 38 1 26 27
M  V30 39 1 32 33
M  V30 END BOND
M  V30 END CTAB
M  END
>  <Molecule Name>
Compound 688

>  <Molecule Name 2>
Compound 688

>  <Compound ID>
210

>  <Name>


>  <Uniprot>
P30291

>  <Target>
Wee1

>  <Smiles>
CCN1CCN(C2=CC=C(NC3=NC=C4SC=C(C5=CC=CC(NS(C)(=O)=O)=C5)C4=N3)C=C2)CC1

>  <Kd (nM)>


>  <Assay (Kd)>


>  <Ki (nM)>


>  <Assay (Ki)>


>  <IC50 (nM)>


>  <Assay (IC50)>


>  <EC50 (nM)>


>  <Assay (EC50)>


>  <Article DOI>
10.1016/j.cell.2020.10.038

>  <Molecular Weight>
508.673

>  <Exact Mass>
508.1715161

>  <XLogP3>
4.08

>  <Heavy Atom Count>
35

>  <Ring Count>
5

>  <Hydrogen Bond Acceptor Count>
8

>  <Hydrogen Bond Donor Count>
2

>  <Rotatable Bond Count>
7

>  <Topological Polar Surface Area>
90.46

>  <Molecular Formula>
C25H28N6O2S2

>  <InChI>
InChI=1S/C25H28N6O2S2/c1-3-30-11-13-31(14-12-30)21-9-7-19(8-10-21)27-25-26-16-23-24(28-25)22(17-34-23)18-5-4-6-20(15-18)29-35(2,32)33/h4-10,15-17,29H,3,11-14H2,1-2H3,(H,26,27,28)

>  <InChI Key>
MQMVBXQAIMTOTQ-UHFFFAOYSA-N

>  <BindingDB>


>  <PubChem>
90466261

>  <ChEMBL>


$$$$
211
Actelion Java MolfileCreator 2.0

  0  0  0  0  0  0              0 V3000
M  V30 BEGIN CTAB
M  V30 COUNTS 35 40 0 0 0
M  V30 BEGIN ATOM
M  V30 1 N 4.3147 -0.8364 0.0 0
M  V30 2 C 4.8147 -1.7024 0.0 0
M  V30 3 C 3.3147 -0.8364 0.0 0
M  V30 4 N 4.3147 -2.5684 0.0 0
M  V30 5 N 5.8147 -1.7024 0.0 0
M  V30 6 N 2.6455 -0.0932 0.0 0
M  V30 7 C 2.8147 -1.7024 0.0 0
M  V30 8 C 3.3147 -2.5684 0.0 0
M  V30 9 C 6.3147 -0.8364 0.0 0
M  V30 10 C 1.732 -0.5 0.0 0
M  V30 11 C 2.8535 0.8848 0.0 0
M  V30 12 N 1.8365 -1.4945 0.0 0
M  V30 13 C 7.3147 -0.8364 0.0 0
M  V30 14 C 5.8147 0.0296 0.0 0
M  V30 15 N 0.866 0.0 0.0 0
M  V30 16 C 3.767 1.2916 0.0 0
M  V30 17 C 2.1843 1.628 0.0 0
M  V30 18 C 7.8147 0.0296 0.0 0
M  V30 19 C 6.3147 0.8956 0.0 0
M  V30 20 C 0.0 -0.5 0.0 0
M  V30 21 C 3.6625 2.2861 0.0 0
M  V30 22 C 2.6843 2.494 0.0 0
M  V30 23 C 7.3147 0.8956 0.0 0
M  V30 24 C -0.866 0.0 0.0 0
M  V30 25 C 0.0 -1.4999 0.0 0
M  V30 26 N 7.8147 1.7616 0.0 0
M  V30 27 C -1.732 -0.4999 0.0 0
M  V30 28 C -0.866 -1.9999 0.0 0
M  V30 29 C 8.8147 1.7616 0.0 0
M  V30 30 C 7.3147 2.6276 0.0 0
M  V30 31 C -1.732 -1.4999 0.0 0
M  V30 32 C 9.3147 2.6276 0.0 0
M  V30 33 C 7.8147 3.4937 0.0 0
M  V30 34 N 8.8147 3.4937 0.0 0
M  V30 35 C 9.3147 4.3597 0.0 0
M  V30 END ATOM
M  V30 BEGIN BOND
M  V30 1 2 1 2
M  V30 2 1 1 3
M  V30 3 1 2 4
M  V30 4 1 2 5
M  V30 5 1 3 6
M  V30 6 2 3 7
M  V30 7 2 4 8
M  V30 8 1 5 9
M  V30 9 1 6 10
M  V30 10 1 6 11
M  V30 11 1 7 12
M  V30 12 2 9 13
M  V30 13 1 9 14
M  V30 14 1 10 15
M  V30 15 1 11 16
M  V30 16 1 11 17
M  V30 17 1 13 18
M  V30 18 2 14 19
M  V30 19 1 15 20
M  V30 20 1 16 21
M  V30 21 1 17 22
M  V30 22 2 18 23
M  V30 23 2 20 24
M  V30 24 1 20 25
M  V30 25 1 23 26
M  V30 26 1 24 27
M  V30 27 2 25 28
M  V30 28 1 26 29
M  V30 29 1 26 30
M  V30 30 2 27 31
M  V30 31 1 29 32
M  V30 32 1 30 33
M  V30 33 1 32 34
M  V30 34 1 34 35
M  V30 35 1 7 8
M  V30 36 2 10 12
M  V30 37 1 19 23
M  V30 38 1 21 22
M  V30 39 1 28 31
M  V30 40 1 33 34
M  V30 END BOND
M  V30 END CTAB
M  END
>  <Molecule Name>
Compound 689

>  <Molecule Name 2>
Compound 689

>  <Compound ID>
211

>  <Name>


>  <Uniprot>
P00533

>  <Target>
EGFR e19d

>  <Smiles>
CN1CCN(C2=CC=C(NC3=NC=C4N=C(NC5=CC=CC=C5)N(C5CCCC5)C4=N3)C=C2)CC1

>  <Kd (nM)>


>  <Assay (Kd)>


>  <Ki (nM)>


>  <Assay (Ki)>


>  <IC50 (nM)>
0.82

>  <Assay (IC50)>
Inhibit proliferation of HCC827 (EGFRdel19) cells

>  <EC50 (nM)>


>  <Assay (EC50)>


>  <Article DOI>
10.1016/j.ejmech.2020.112781

>  <Molecular Weight>
468.609

>  <Exact Mass>
468.274993

>  <XLogP3>
4.91

>  <Heavy Atom Count>
35

>  <Ring Count>
6

>  <Hydrogen Bond Acceptor Count>
8

>  <Hydrogen Bond Donor Count>
2

>  <Rotatable Bond Count>
6

>  <Topological Polar Surface Area>
74.14

>  <Molecular Formula>
C27H32N8

>  <InChI>
InChI=1S/C27H32N8/c1-33-15-17-34(18-16-33)22-13-11-21(12-14-22)29-26-28-19-24-25(32-26)35(23-9-5-6-10-23)27(31-24)30-20-7-3-2-4-8-20/h2-4,7-8,11-14,19,23H,5-6,9-10,15-18H2,1H3,(H,30,31)(H,28,29,32)

>  <InChI Key>
QPOURHROVVCOHC-UHFFFAOYSA-N

>  <BindingDB>
50399676

>  <PubChem>
54760383

>  <ChEMBL>
CHEMBL2178352

$$$$
211
Actelion Java MolfileCreator 2.0

  0  0  0  0  0  0              0 V3000
M  V30 BEGIN CTAB
M  V30 COUNTS 35 40 0 0 0
M  V30 BEGIN ATOM
M  V30 1 N 4.3147 -0.8364 0.0 0
M  V30 2 C 4.8147 -1.7024 0.0 0
M  V30 3 C 3.3147 -0.8364 0.0 0
M  V30 4 N 4.3147 -2.5684 0.0 0
M  V30 5 N 5.8147 -1.7024 0.0 0
M  V30 6 N 2.6455 -0.0932 0.0 0
M  V30 7 C 2.8147 -1.7024 0.0 0
M  V30 8 C 3.3147 -2.5684 0.0 0
M  V30 9 C 6.3147 -0.8364 0.0 0
M  V30 10 C 1.732 -0.5 0.0 0
M  V30 11 C 2.8535 0.8848 0.0 0
M  V30 12 N 1.8365 -1.4945 0.0 0
M  V30 13 C 7.3147 -0.8364 0.0 0
M  V30 14 C 5.8147 0.0296 0.0 0
M  V30 15 N 0.866 0.0 0.0 0
M  V30 16 C 3.767 1.2916 0.0 0
M  V30 17 C 2.1843 1.628 0.0 0
M  V30 18 C 7.8147 0.0296 0.0 0
M  V30 19 C 6.3147 0.8956 0.0 0
M  V30 20 C 0.0 -0.5 0.0 0
M  V30 21 C 3.6625 2.2861 0.0 0
M  V30 22 C 2.6843 2.494 0.0 0
M  V30 23 C 7.3147 0.8956 0.0 0
M  V30 24 C -0.866 0.0 0.0 0
M  V30 25 C 0.0 -1.4999 0.0 0
M  V30 26 N 7.8147 1.7616 0.0 0
M  V30 27 C -1.732 -0.4999 0.0 0
M  V30 28 C -0.866 -1.9999 0.0 0
M  V30 29 C 8.8147 1.7616 0.0 0
M  V30 30 C 7.3147 2.6276 0.0 0
M  V30 31 C -1.732 -1.4999 0.0 0
M  V30 32 C 9.3147 2.6276 0.0 0
M  V30 33 C 7.8147 3.4937 0.0 0
M  V30 34 N 8.8147 3.4937 0.0 0
M  V30 35 C 9.3147 4.3597 0.0 0
M  V30 END ATOM
M  V30 BEGIN BOND
M  V30 1 2 1 2
M  V30 2 1 1 3
M  V30 3 1 2 4
M  V30 4 1 2 5
M  V30 5 1 3 6
M  V30 6 2 3 7
M  V30 7 2 4 8
M  V30 8 1 5 9
M  V30 9 1 6 10
M  V30 10 1 6 11
M  V30 11 1 7 12
M  V30 12 2 9 13
M  V30 13 1 9 14
M  V30 14 1 10 15
M  V30 15 1 11 16
M  V30 16 1 11 17
M  V30 17 1 13 18
M  V30 18 2 14 19
M  V30 19 1 15 20
M  V30 20 1 16 21
M  V30 21 1 17 22
M  V30 22 2 18 23
M  V30 23 2 20 24
M  V30 24 1 20 25
M  V30 25 1 23 26
M  V30 26 1 24 27
M  V30 27 2 25 28
M  V30 28 1 26 29
M  V30 29 1 26 30
M  V30 30 2 27 31
M  V30 31 1 29 32
M  V30 32 1 30 33
M  V30 33 1 32 34
M  V30 34 1 34 35
M  V30 35 1 7 8
M  V30 36 2 10 12
M  V30 37 1 19 23
M  V30 38 1 21 22
M  V30 39 1 28 31
M  V30 40 1 33 34
M  V30 END BOND
M  V30 END CTAB
M  END
>  <Molecule Name>
Compound 690

>  <Molecule Name 2>
Compound 690

>  <Compound ID>
211

>  <Name>


>  <Uniprot>
P00533

>  <Target>
EGFR L858R/T790M

>  <Smiles>
CN1CCN(C2=CC=C(NC3=NC=C4N=C(NC5=CC=CC=C5)N(C5CCCC5)C4=N3)C=C2)CC1

>  <Kd (nM)>
1.6

>  <Assay (Kd)>
Kd was assessed using the KINOMEscan assay

>  <Ki (nM)>


>  <Assay (Ki)>


>  <IC50 (nM)>


>  <Assay (IC50)>


>  <EC50 (nM)>


>  <Assay (EC50)>


>  <Article DOI>
10.1021/jm301365e

>  <Molecular Weight>
468.609

>  <Exact Mass>
468.274993

>  <XLogP3>
4.91

>  <Heavy Atom Count>
35

>  <Ring Count>
6

>  <Hydrogen Bond Acceptor Count>
8

>  <Hydrogen Bond Donor Count>
2

>  <Rotatable Bond Count>
6

>  <Topological Polar Surface Area>
74.14

>  <Molecular Formula>
C27H32N8

>  <InChI>
InChI=1S/C27H32N8/c1-33-15-17-34(18-16-33)22-13-11-21(12-14-22)29-26-28-19-24-25(32-26)35(23-9-5-6-10-23)27(31-24)30-20-7-3-2-4-8-20/h2-4,7-8,11-14,19,23H,5-6,9-10,15-18H2,1H3,(H,30,31)(H,28,29,32)

>  <InChI Key>
QPOURHROVVCOHC-UHFFFAOYSA-N

>  <BindingDB>
50399676

>  <PubChem>
54760383

>  <ChEMBL>
CHEMBL2178352

$$$$
211
Actelion Java MolfileCreator 2.0

  0  0  0  0  0  0              0 V3000
M  V30 BEGIN CTAB
M  V30 COUNTS 35 40 0 0 0
M  V30 BEGIN ATOM
M  V30 1 N 4.3147 -0.8364 0.0 0
M  V30 2 C 4.8147 -1.7024 0.0 0
M  V30 3 C 3.3147 -0.8364 0.0 0
M  V30 4 N 4.3147 -2.5684 0.0 0
M  V30 5 N 5.8147 -1.7024 0.0 0
M  V30 6 N 2.6455 -0.0932 0.0 0
M  V30 7 C 2.8147 -1.7024 0.0 0
M  V30 8 C 3.3147 -2.5684 0.0 0
M  V30 9 C 6.3147 -0.8364 0.0 0
M  V30 10 C 1.732 -0.5 0.0 0
M  V30 11 C 2.8535 0.8848 0.0 0
M  V30 12 N 1.8365 -1.4945 0.0 0
M  V30 13 C 7.3147 -0.8364 0.0 0
M  V30 14 C 5.8147 0.0296 0.0 0
M  V30 15 N 0.866 0.0 0.0 0
M  V30 16 C 3.767 1.2916 0.0 0
M  V30 17 C 2.1843 1.628 0.0 0
M  V30 18 C 7.8147 0.0296 0.0 0
M  V30 19 C 6.3147 0.8956 0.0 0
M  V30 20 C 0.0 -0.5 0.0 0
M  V30 21 C 3.6625 2.2861 0.0 0
M  V30 22 C 2.6843 2.494 0.0 0
M  V30 23 C 7.3147 0.8956 0.0 0
M  V30 24 C -0.866 0.0 0.0 0
M  V30 25 C 0.0 -1.4999 0.0 0
M  V30 26 N 7.8147 1.7616 0.0 0
M  V30 27 C -1.732 -0.4999 0.0 0
M  V30 28 C -0.866 -1.9999 0.0 0
M  V30 29 C 8.8147 1.7616 0.0 0
M  V30 30 C 7.3147 2.6276 0.0 0
M  V30 31 C -1.732 -1.4999 0.0 0
M  V30 32 C 9.3147 2.6276 0.0 0
M  V30 33 C 7.8147 3.4937 0.0 0
M  V30 34 N 8.8147 3.4937 0.0 0
M  V30 35 C 9.3147 4.3597 0.0 0
M  V30 END ATOM
M  V30 BEGIN BOND
M  V30 1 2 1 2
M  V30 2 1 1 3
M  V30 3 1 2 4
M  V30 4 1 2 5
M  V30 5 1 3 6
M  V30 6 2 3 7
M  V30 7 2 4 8
M  V30 8 1 5 9
M  V30 9 1 6 10
M  V30 10 1 6 11
M  V30 11 1 7 12
M  V30 12 2 9 13
M  V30 13 1 9 14
M  V30 14 1 10 15
M  V30 15 1 11 16
M  V30 16 1 11 17
M  V30 17 1 13 18
M  V30 18 2 14 19
M  V30 19 1 15 20
M  V30 20 1 16 21
M  V30 21 1 17 22
M  V30 22 2 18 23
M  V30 23 2 20 24
M  V30 24 1 20 25
M  V30 25 1 23 26
M  V30 26 1 24 27
M  V30 27 2 25 28
M  V30 28 1 26 29
M  V30 29 1 26 30
M  V30 30 2 27 31
M  V30 31 1 29 32
M  V30 32 1 30 33
M  V30 33 1 32 34
M  V30 34 1 34 35
M  V30 35 1 7 8
M  V30 36 2 10 12
M  V30 37 1 19 23
M  V30 38 1 21 22
M  V30 39 1 28 31
M  V30 40 1 33 34
M  V30 END BOND
M  V30 END CTAB
M  END
>  <Molecule Name>
Compound 691

>  <Molecule Name 2>
Compound 691

>  <Compound ID>
211

>  <Name>


>  <Uniprot>
P00533

>  <Target>
EGFR

>  <Smiles>
CN1CCN(C2=CC=C(NC3=NC=C4N=C(NC5=CC=CC=C5)N(C5CCCC5)C4=N3)C=C2)CC1

>  <Kd (nM)>
0.6

>  <Assay (Kd)>
Kd was assessed using the KINOMEscan assay

>  <Ki (nM)>


>  <Assay (Ki)>


>  <IC50 (nM)>


>  <Assay (IC50)>


>  <EC50 (nM)>


>  <Assay (EC50)>


>  <Article DOI>
10.1021/jm301365e

>  <Molecular Weight>
468.609

>  <Exact Mass>
468.274993

>  <XLogP3>
4.91

>  <Heavy Atom Count>
35

>  <Ring Count>
6

>  <Hydrogen Bond Acceptor Count>
8

>  <Hydrogen Bond Donor Count>
2

>  <Rotatable Bond Count>
6

>  <Topological Polar Surface Area>
74.14

>  <Molecular Formula>
C27H32N8

>  <InChI>
InChI=1S/C27H32N8/c1-33-15-17-34(18-16-33)22-13-11-21(12-14-22)29-26-28-19-24-25(32-26)35(23-9-5-6-10-23)27(31-24)30-20-7-3-2-4-8-20/h2-4,7-8,11-14,19,23H,5-6,9-10,15-18H2,1H3,(H,30,31)(H,28,29,32)

>  <InChI Key>
QPOURHROVVCOHC-UHFFFAOYSA-N

>  <BindingDB>
50399676

>  <PubChem>
54760383

>  <ChEMBL>
CHEMBL2178352

$$$$
212
Actelion Java MolfileCreator 2.0

  0  0  0  0  0  0              0 V3000
M  V30 BEGIN CTAB
M  V30 COUNTS 27 30 0 0 0
M  V30 BEGIN ATOM
M  V30 1 N 6.0621 -1.0 0.0 0
M  V30 2 C 5.1961 -1.5 0.0 0
M  V30 3 C 4.3301 -1.9999 0.0 0
M  V30 4 C 3.4641 -1.4999 0.0 0
M  V30 5 C 3.4641 -0.5 0.0 0
M  V30 6 C 2.598 -1.9999 0.0 0
M  V30 7 C 2.598 0.0 0.0 0
M  V30 8 C 1.732 -1.5 0.0 0
M  V30 9 C 1.732 -0.5 0.0 0
M  V30 10 N 0.866 0.0 0.0 0
M  V30 11 C 0.0 -0.5 0.0 0
M  V30 12 N -0.866 0.0 0.0 0
M  V30 13 N 0.0 -1.4999 0.0 0
M  V30 14 C -1.732 -0.4999 0.0 0
M  V30 15 C -0.866 -2.0 0.0 0
M  V30 16 N -2.598 0.0 0.0 0
M  V30 17 C -1.732 -1.5 0.0 0
M  V30 18 N -0.866 -3.0 0.0 0
M  V30 19 C -3.4641 -0.4999 0.0 0
M  V30 20 C 0.0 -3.5 0.0 0
M  V30 21 N -4.3776 -0.0932 0.0 0
M  V30 22 C -3.5686 -1.4945 0.0 0
M  V30 23 N -5.0467 -0.8364 0.0 0
M  V30 24 C -4.5467 -1.7024 0.0 0
M  V30 25 C -4.9535 -2.6159 0.0 0
M  V30 26 C -5.7625 -3.2037 0.0 0
M  V30 27 C -4.8489 -3.6105 0.0 0
M  V30 END ATOM
M  V30 BEGIN BOND
M  V30 1 3 1 2
M  V30 2 1 2 3
M  V30 3 1 3 4
M  V30 4 2 4 5
M  V30 5 1 4 6
M  V30 6 1 5 7
M  V30 7 2 6 8
M  V30 8 2 7 9
M  V30 9 1 9 10
M  V30 10 1 10 11
M  V30 11 2 11 12
M  V30 12 1 11 13
M  V30 13 1 12 14
M  V30 14 2 13 15
M  V30 15 1 14 16
M  V30 16 2 14 17
M  V30 17 1 15 18
M  V30 18 1 16 19
M  V30 19 1 18 20
M  V30 20 2 19 21
M  V30 21 1 19 22
M  V30 22 1 21 23
M  V30 23 2 22 24
M  V30 24 1 24 25
M  V30 25 1 25 26
M  V30 26 1 25 27
M  V30 27 1 8 9
M  V30 28 1 15 17
M  V30 29 1 23 24
M  V30 30 1 26 27
M  V30 END BOND
M  V30 END CTAB
M  END
>  <Molecule Name>
Compound 692

>  <Molecule Name 2>
Compound 692

>  <Compound ID>
212

>  <Name>


>  <Uniprot>
Q2M2I8

>  <Target>
AAK1

>  <Smiles>
CNC1=CC(NC2=N[NH]C(C3CC3)=C2)=NC(NC2=CC=C(CC#N)C=C2)=N1

>  <Kd (nM)>


>  <Assay (Kd)>


>  <Ki (nM)>


>  <Assay (Ki)>


>  <IC50 (nM)>


>  <Assay (IC50)>


>  <EC50 (nM)>


>  <Assay (EC50)>


>  <Article DOI>
10.1016/j.cell.2020.10.038

>  <Molecular Weight>
360.425

>  <Exact Mass>
360.1810926

>  <XLogP3>
3.13

>  <Heavy Atom Count>
27

>  <Ring Count>
4

>  <Hydrogen Bond Acceptor Count>
7

>  <Hydrogen Bond Donor Count>
4

>  <Rotatable Bond Count>
7

>  <Topological Polar Surface Area>
114.34

>  <Molecular Formula>
C19H20N8

>  <InChI>
InChI=1S/C19H20N8/c1-21-16-11-17(23-18-10-15(26-27-18)13-4-5-13)25-19(24-16)22-14-6-2-12(3-7-14)8-9-20/h2-3,6-7,10-11,13H,4-5,8H2,1H3,(H4,21,22,23,24,25,26,27)

>  <InChI Key>
MFMSRHREFZCFSN-UHFFFAOYSA-N

>  <BindingDB>


>  <PubChem>
23624249

>  <ChEMBL>


$$$$
212
Actelion Java MolfileCreator 2.0

  0  0  0  0  0  0              0 V3000
M  V30 BEGIN CTAB
M  V30 COUNTS 27 30 0 0 0
M  V30 BEGIN ATOM
M  V30 1 N 6.0621 -1.0 0.0 0
M  V30 2 C 5.1961 -1.5 0.0 0
M  V30 3 C 4.3301 -1.9999 0.0 0
M  V30 4 C 3.4641 -1.4999 0.0 0
M  V30 5 C 3.4641 -0.5 0.0 0
M  V30 6 C 2.598 -1.9999 0.0 0
M  V30 7 C 2.598 0.0 0.0 0
M  V30 8 C 1.732 -1.5 0.0 0
M  V30 9 C 1.732 -0.5 0.0 0
M  V30 10 N 0.866 0.0 0.0 0
M  V30 11 C 0.0 -0.5 0.0 0
M  V30 12 N -0.866 0.0 0.0 0
M  V30 13 N 0.0 -1.4999 0.0 0
M  V30 14 C -1.732 -0.4999 0.0 0
M  V30 15 C -0.866 -2.0 0.0 0
M  V30 16 N -2.598 0.0 0.0 0
M  V30 17 C -1.732 -1.5 0.0 0
M  V30 18 N -0.866 -3.0 0.0 0
M  V30 19 C -3.4641 -0.4999 0.0 0
M  V30 20 C 0.0 -3.5 0.0 0
M  V30 21 N -4.3776 -0.0932 0.0 0
M  V30 22 C -3.5686 -1.4945 0.0 0
M  V30 23 N -5.0467 -0.8364 0.0 0
M  V30 24 C -4.5467 -1.7024 0.0 0
M  V30 25 C -4.9535 -2.6159 0.0 0
M  V30 26 C -5.7625 -3.2037 0.0 0
M  V30 27 C -4.8489 -3.6105 0.0 0
M  V30 END ATOM
M  V30 BEGIN BOND
M  V30 1 3 1 2
M  V30 2 1 2 3
M  V30 3 1 3 4
M  V30 4 2 4 5
M  V30 5 1 4 6
M  V30 6 1 5 7
M  V30 7 2 6 8
M  V30 8 2 7 9
M  V30 9 1 9 10
M  V30 10 1 10 11
M  V30 11 2 11 12
M  V30 12 1 11 13
M  V30 13 1 12 14
M  V30 14 2 13 15
M  V30 15 1 14 16
M  V30 16 2 14 17
M  V30 17 1 15 18
M  V30 18 1 16 19
M  V30 19 1 18 20
M  V30 20 2 19 21
M  V30 21 1 19 22
M  V30 22 1 21 23
M  V30 23 2 22 24
M  V30 24 1 24 25
M  V30 25 1 25 26
M  V30 26 1 25 27
M  V30 27 1 8 9
M  V30 28 1 15 17
M  V30 29 1 23 24
M  V30 30 1 26 27
M  V30 END BOND
M  V30 END CTAB
M  END
>  <Molecule Name>
Compound 693

>  <Molecule Name 2>
Compound 693

>  <Compound ID>
212

>  <Name>


>  <Uniprot>
O14965

>  <Target>
AURKA

>  <Smiles>
CNC1=CC(NC2=N[NH]C(C3CC3)=C2)=NC(NC2=CC=C(CC#N)C=C2)=N1

>  <Kd (nM)>


>  <Assay (Kd)>


>  <Ki (nM)>


>  <Assay (Ki)>


>  <IC50 (nM)>


>  <Assay (IC50)>


>  <EC50 (nM)>


>  <Assay (EC50)>


>  <Article DOI>
10.1016/j.cell.2020.10.038

>  <Molecular Weight>
360.425

>  <Exact Mass>
360.1810926

>  <XLogP3>
3.13

>  <Heavy Atom Count>
27

>  <Ring Count>
4

>  <Hydrogen Bond Acceptor Count>
7

>  <Hydrogen Bond Donor Count>
4

>  <Rotatable Bond Count>
7

>  <Topological Polar Surface Area>
114.34

>  <Molecular Formula>
C19H20N8

>  <InChI>
InChI=1S/C19H20N8/c1-21-16-11-17(23-18-10-15(26-27-18)13-4-5-13)25-19(24-16)22-14-6-2-12(3-7-14)8-9-20/h2-3,6-7,10-11,13H,4-5,8H2,1H3,(H4,21,22,23,24,25,26,27)

>  <InChI Key>
MFMSRHREFZCFSN-UHFFFAOYSA-N

>  <BindingDB>


>  <PubChem>
23624249

>  <ChEMBL>


$$$$
212
Actelion Java MolfileCreator 2.0

  0  0  0  0  0  0              0 V3000
M  V30 BEGIN CTAB
M  V30 COUNTS 27 30 0 0 0
M  V30 BEGIN ATOM
M  V30 1 N 6.0621 -1.0 0.0 0
M  V30 2 C 5.1961 -1.5 0.0 0
M  V30 3 C 4.3301 -1.9999 0.0 0
M  V30 4 C 3.4641 -1.4999 0.0 0
M  V30 5 C 3.4641 -0.5 0.0 0
M  V30 6 C 2.598 -1.9999 0.0 0
M  V30 7 C 2.598 0.0 0.0 0
M  V30 8 C 1.732 -1.5 0.0 0
M  V30 9 C 1.732 -0.5 0.0 0
M  V30 10 N 0.866 0.0 0.0 0
M  V30 11 C 0.0 -0.5 0.0 0
M  V30 12 N -0.866 0.0 0.0 0
M  V30 13 N 0.0 -1.4999 0.0 0
M  V30 14 C -1.732 -0.4999 0.0 0
M  V30 15 C -0.866 -2.0 0.0 0
M  V30 16 N -2.598 0.0 0.0 0
M  V30 17 C -1.732 -1.5 0.0 0
M  V30 18 N -0.866 -3.0 0.0 0
M  V30 19 C -3.4641 -0.4999 0.0 0
M  V30 20 C 0.0 -3.5 0.0 0
M  V30 21 N -4.3776 -0.0932 0.0 0
M  V30 22 C -3.5686 -1.4945 0.0 0
M  V30 23 N -5.0467 -0.8364 0.0 0
M  V30 24 C -4.5467 -1.7024 0.0 0
M  V30 25 C -4.9535 -2.6159 0.0 0
M  V30 26 C -5.7625 -3.2037 0.0 0
M  V30 27 C -4.8489 -3.6105 0.0 0
M  V30 END ATOM
M  V30 BEGIN BOND
M  V30 1 3 1 2
M  V30 2 1 2 3
M  V30 3 1 3 4
M  V30 4 2 4 5
M  V30 5 1 4 6
M  V30 6 1 5 7
M  V30 7 2 6 8
M  V30 8 2 7 9
M  V30 9 1 9 10
M  V30 10 1 10 11
M  V30 11 2 11 12
M  V30 12 1 11 13
M  V30 13 1 12 14
M  V30 14 2 13 15
M  V30 15 1 14 16
M  V30 16 2 14 17
M  V30 17 1 15 18
M  V30 18 1 16 19
M  V30 19 1 18 20
M  V30 20 2 19 21
M  V30 21 1 19 22
M  V30 22 1 21 23
M  V30 23 2 22 24
M  V30 24 1 24 25
M  V30 25 1 25 26
M  V30 26 1 25 27
M  V30 27 1 8 9
M  V30 28 1 15 17
M  V30 29 1 23 24
M  V30 30 1 26 27
M  V30 END BOND
M  V30 END CTAB
M  END
>  <Molecule Name>
Compound 694

>  <Molecule Name 2>
Compound 694

>  <Compound ID>
212

>  <Name>


>  <Uniprot>
Q9NSY1

>  <Target>
BMP2K

>  <Smiles>
CNC1=CC(NC2=N[NH]C(C3CC3)=C2)=NC(NC2=CC=C(CC#N)C=C2)=N1

>  <Kd (nM)>


>  <Assay (Kd)>


>  <Ki (nM)>


>  <Assay (Ki)>


>  <IC50 (nM)>


>  <Assay (IC50)>


>  <EC50 (nM)>


>  <Assay (EC50)>


>  <Article DOI>
10.1016/j.cell.2020.10.038

>  <Molecular Weight>
360.425

>  <Exact Mass>
360.1810926

>  <XLogP3>
3.13

>  <Heavy Atom Count>
27

>  <Ring Count>
4

>  <Hydrogen Bond Acceptor Count>
7

>  <Hydrogen Bond Donor Count>
4

>  <Rotatable Bond Count>
7

>  <Topological Polar Surface Area>
114.34

>  <Molecular Formula>
C19H20N8

>  <InChI>
InChI=1S/C19H20N8/c1-21-16-11-17(23-18-10-15(26-27-18)13-4-5-13)25-19(24-16)22-14-6-2-12(3-7-14)8-9-20/h2-3,6-7,10-11,13H,4-5,8H2,1H3,(H4,21,22,23,24,25,26,27)

>  <InChI Key>
MFMSRHREFZCFSN-UHFFFAOYSA-N

>  <BindingDB>


>  <PubChem>
23624249

>  <ChEMBL>


$$$$
212
Actelion Java MolfileCreator 2.0

  0  0  0  0  0  0              0 V3000
M  V30 BEGIN CTAB
M  V30 COUNTS 27 30 0 0 0
M  V30 BEGIN ATOM
M  V30 1 N 6.0621 -1.0 0.0 0
M  V30 2 C 5.1961 -1.5 0.0 0
M  V30 3 C 4.3301 -1.9999 0.0 0
M  V30 4 C 3.4641 -1.4999 0.0 0
M  V30 5 C 3.4641 -0.5 0.0 0
M  V30 6 C 2.598 -1.9999 0.0 0
M  V30 7 C 2.598 0.0 0.0 0
M  V30 8 C 1.732 -1.5 0.0 0
M  V30 9 C 1.732 -0.5 0.0 0
M  V30 10 N 0.866 0.0 0.0 0
M  V30 11 C 0.0 -0.5 0.0 0
M  V30 12 N -0.866 0.0 0.0 0
M  V30 13 N 0.0 -1.4999 0.0 0
M  V30 14 C -1.732 -0.4999 0.0 0
M  V30 15 C -0.866 -2.0 0.0 0
M  V30 16 N -2.598 0.0 0.0 0
M  V30 17 C -1.732 -1.5 0.0 0
M  V30 18 N -0.866 -3.0 0.0 0
M  V30 19 C -3.4641 -0.4999 0.0 0
M  V30 20 C 0.0 -3.5 0.0 0
M  V30 21 N -4.3776 -0.0932 0.0 0
M  V30 22 C -3.5686 -1.4945 0.0 0
M  V30 23 N -5.0467 -0.8364 0.0 0
M  V30 24 C -4.5467 -1.7024 0.0 0
M  V30 25 C -4.9535 -2.6159 0.0 0
M  V30 26 C -5.7625 -3.2037 0.0 0
M  V30 27 C -4.8489 -3.6105 0.0 0
M  V30 END ATOM
M  V30 BEGIN BOND
M  V30 1 3 1 2
M  V30 2 1 2 3
M  V30 3 1 3 4
M  V30 4 2 4 5
M  V30 5 1 4 6
M  V30 6 1 5 7
M  V30 7 2 6 8
M  V30 8 2 7 9
M  V30 9 1 9 10
M  V30 10 1 10 11
M  V30 11 2 11 12
M  V30 12 1 11 13
M  V30 13 1 12 14
M  V30 14 2 13 15
M  V30 15 1 14 16
M  V30 16 2 14 17
M  V30 17 1 15 18
M  V30 18 1 16 19
M  V30 19 1 18 20
M  V30 20 2 19 21
M  V30 21 1 19 22
M  V30 22 1 21 23
M  V30 23 2 22 24
M  V30 24 1 24 25
M  V30 25 1 25 26
M  V30 26 1 25 27
M  V30 27 1 8 9
M  V30 28 1 15 17
M  V30 29 1 23 24
M  V30 30 1 26 27
M  V30 END BOND
M  V30 END CTAB
M  END
>  <Molecule Name>
Compound 695

>  <Molecule Name 2>
Compound 695

>  <Compound ID>
212

>  <Name>


>  <Uniprot>
P49840

>  <Target>
GSK3A

>  <Smiles>
CNC1=CC(NC2=N[NH]C(C3CC3)=C2)=NC(NC2=CC=C(CC#N)C=C2)=N1

>  <Kd (nM)>


>  <Assay (Kd)>


>  <Ki (nM)>


>  <Assay (Ki)>


>  <IC50 (nM)>


>  <Assay (IC50)>


>  <EC50 (nM)>


>  <Assay (EC50)>


>  <Article DOI>
10.1016/j.cell.2020.10.038

>  <Molecular Weight>
360.425

>  <Exact Mass>
360.1810926

>  <XLogP3>
3.13

>  <Heavy Atom Count>
27

>  <Ring Count>
4

>  <Hydrogen Bond Acceptor Count>
7

>  <Hydrogen Bond Donor Count>
4

>  <Rotatable Bond Count>
7

>  <Topological Polar Surface Area>
114.34

>  <Molecular Formula>
C19H20N8

>  <InChI>
InChI=1S/C19H20N8/c1-21-16-11-17(23-18-10-15(26-27-18)13-4-5-13)25-19(24-16)22-14-6-2-12(3-7-14)8-9-20/h2-3,6-7,10-11,13H,4-5,8H2,1H3,(H4,21,22,23,24,25,26,27)

>  <InChI Key>
MFMSRHREFZCFSN-UHFFFAOYSA-N

>  <BindingDB>


>  <PubChem>
23624249

>  <ChEMBL>


$$$$
212
Actelion Java MolfileCreator 2.0

  0  0  0  0  0  0              0 V3000
M  V30 BEGIN CTAB
M  V30 COUNTS 27 30 0 0 0
M  V30 BEGIN ATOM
M  V30 1 N 6.0621 -1.0 0.0 0
M  V30 2 C 5.1961 -1.5 0.0 0
M  V30 3 C 4.3301 -1.9999 0.0 0
M  V30 4 C 3.4641 -1.4999 0.0 0
M  V30 5 C 3.4641 -0.5 0.0 0
M  V30 6 C 2.598 -1.9999 0.0 0
M  V30 7 C 2.598 0.0 0.0 0
M  V30 8 C 1.732 -1.5 0.0 0
M  V30 9 C 1.732 -0.5 0.0 0
M  V30 10 N 0.866 0.0 0.0 0
M  V30 11 C 0.0 -0.5 0.0 0
M  V30 12 N -0.866 0.0 0.0 0
M  V30 13 N 0.0 -1.4999 0.0 0
M  V30 14 C -1.732 -0.4999 0.0 0
M  V30 15 C -0.866 -2.0 0.0 0
M  V30 16 N -2.598 0.0 0.0 0
M  V30 17 C -1.732 -1.5 0.0 0
M  V30 18 N -0.866 -3.0 0.0 0
M  V30 19 C -3.4641 -0.4999 0.0 0
M  V30 20 C 0.0 -3.5 0.0 0
M  V30 21 N -4.3776 -0.0932 0.0 0
M  V30 22 C -3.5686 -1.4945 0.0 0
M  V30 23 N -5.0467 -0.8364 0.0 0
M  V30 24 C -4.5467 -1.7024 0.0 0
M  V30 25 C -4.9535 -2.6159 0.0 0
M  V30 26 C -5.7625 -3.2037 0.0 0
M  V30 27 C -4.8489 -3.6105 0.0 0
M  V30 END ATOM
M  V30 BEGIN BOND
M  V30 1 3 1 2
M  V30 2 1 2 3
M  V30 3 1 3 4
M  V30 4 2 4 5
M  V30 5 1 4 6
M  V30 6 1 5 7
M  V30 7 2 6 8
M  V30 8 2 7 9
M  V30 9 1 9 10
M  V30 10 1 10 11
M  V30 11 2 11 12
M  V30 12 1 11 13
M  V30 13 1 12 14
M  V30 14 2 13 15
M  V30 15 1 14 16
M  V30 16 2 14 17
M  V30 17 1 15 18
M  V30 18 1 16 19
M  V30 19 1 18 20
M  V30 20 2 19 21
M  V30 21 1 19 22
M  V30 22 1 21 23
M  V30 23 2 22 24
M  V30 24 1 24 25
M  V30 25 1 25 26
M  V30 26 1 25 27
M  V30 27 1 8 9
M  V30 28 1 15 17
M  V30 29 1 23 24
M  V30 30 1 26 27
M  V30 END BOND
M  V30 END CTAB
M  END
>  <Molecule Name>
Compound 696

>  <Molecule Name 2>
Compound 696

>  <Compound ID>
212

>  <Name>


>  <Uniprot>
P49841

>  <Target>
GSK-3beta

>  <Smiles>
CNC1=CC(NC2=N[NH]C(C3CC3)=C2)=NC(NC2=CC=C(CC#N)C=C2)=N1

>  <Kd (nM)>


>  <Assay (Kd)>


>  <Ki (nM)>


>  <Assay (Ki)>


>  <IC50 (nM)>


>  <Assay (IC50)>


>  <EC50 (nM)>


>  <Assay (EC50)>


>  <Article DOI>
10.1016/j.cell.2020.10.038

>  <Molecular Weight>
360.425

>  <Exact Mass>
360.1810926

>  <XLogP3>
3.13

>  <Heavy Atom Count>
27

>  <Ring Count>
4

>  <Hydrogen Bond Acceptor Count>
7

>  <Hydrogen Bond Donor Count>
4

>  <Rotatable Bond Count>
7

>  <Topological Polar Surface Area>
114.34

>  <Molecular Formula>
C19H20N8

>  <InChI>
InChI=1S/C19H20N8/c1-21-16-11-17(23-18-10-15(26-27-18)13-4-5-13)25-19(24-16)22-14-6-2-12(3-7-14)8-9-20/h2-3,6-7,10-11,13H,4-5,8H2,1H3,(H4,21,22,23,24,25,26,27)

>  <InChI Key>
MFMSRHREFZCFSN-UHFFFAOYSA-N

>  <BindingDB>


>  <PubChem>
23624249

>  <ChEMBL>


$$$$
213
Actelion Java MolfileCreator 2.0

  0  0  0  0  0  0              0 V3000
M  V30 BEGIN CTAB
M  V30 COUNTS 25 26 0 0 0
M  V30 BEGIN ATOM
M  V30 1 Br 7.4731 1.6006 0.0 0
M  V30 2 C 7.681 0.6225 0.0 0
M  V30 3 C 8.632 0.3134 0.0 0
M  V30 4 C 6.9378 -0.0466 0.0 0
M  V30 5 F 9.3752 0.9826 0.0 0
M  V30 6 C 8.8399 -0.6646 0.0 0
M  V30 7 C 7.1457 -1.0247 0.0 0
M  V30 8 C 8.0968 -1.3337 0.0 0
M  V30 9 N 6.4026 -1.6939 0.0 0
M  V30 10 C 5.4515 -1.3848 0.0 0
M  V30 11 N 4.7084 -2.054 0.0 0
M  V30 12 C 5.2436 -0.4067 0.0 0
M  V30 13 O 3.7573 -1.7449 0.0 0
M  V30 14 N 5.9128 0.3364 0.0 0
M  V30 15 C 4.3301 0.0 0.0 0
M  V30 16 O 5.4128 1.2024 0.0 0
M  V30 17 N 4.4346 0.9945 0.0 0
M  V30 18 N 3.4641 -0.5 0.0 0
M  V30 19 C 2.598 0.0 0.0 0
M  V30 20 C 1.732 -0.5 0.0 0
M  V30 21 N 0.866 0.0 0.0 0
M  V30 22 S 0.0 -0.5 0.0 0
M  V30 23 O -0.4999 0.366 0.0 0
M  V30 24 O 0.4999 -1.366 0.0 0
M  V30 25 N -0.866 -0.9999 0.0 0
M  V30 END ATOM
M  V30 BEGIN BOND
M  V30 1 1 1 2
M  V30 2 2 2 3
M  V30 3 1 2 4
M  V30 4 1 3 5
M  V30 5 1 3 6
M  V30 6 2 4 7
M  V30 7 2 6 8
M  V30 8 1 7 9
M  V30 9 1 9 10
M  V30 10 2 10 11
M  V30 11 1 10 12
M  V30 12 1 11 13
M  V30 13 2 12 14
M  V30 14 1 12 15
M  V30 15 1 14 16
M  V30 16 2 15 17
M  V30 17 1 15 18
M  V30 18 1 18 19
M  V30 19 1 19 20
M  V30 20 1 20 21
M  V30 21 1 21 22
M  V30 22 2 22 23
M  V30 23 2 22 24
M  V30 24 1 22 25
M  V30 25 1 7 8
M  V30 26 1 16 17
M  V30 END BOND
M  V30 END CTAB
M  END
>  <Molecule Name>
Compound 697

>  <Molecule Name 2>
Compound 697

>  <Compound ID>
213

>  <Name>
Epacadostat

>  <Uniprot>
P14902

>  <Target>
IDO1

>  <Smiles>
NS(=O)(=O)NCCNC1=NON=C1/C(=N\O)NC1=CC=C(F)C(Br)=C1

>  <Kd (nM)>


>  <Assay (Kd)>


>  <Ki (nM)>


>  <Assay (Ki)>


>  <IC50 (nM)>
72

>  <Assay (IC50)>
Inhibition of IDO1

>  <EC50 (nM)>


>  <Assay (EC50)>


>  <Article DOI>
10.1021/acs.jmedchem.5b00461

>  <Molecular Weight>
438.239

>  <Exact Mass>
436.9917132

>  <XLogP3>
0.72

>  <Heavy Atom Count>
25

>  <Ring Count>
2

>  <Hydrogen Bond Acceptor Count>
8

>  <Hydrogen Bond Donor Count>
5

>  <Rotatable Bond Count>
7

>  <Topological Polar Surface Area>
167.76

>  <Molecular Formula>
C11H13BrFN7O4S

>  <InChI>
InChI=1S/C11H13BrFN7O4S/c12-7-5-6(1-2-8(7)13)17-11(18-21)9-10(20-24-19-9)15-3-4-16-25(14,22)23/h1-2,5,16,21H,3-4H2,(H,15,20)(H,17,18)(H2,14,22,23)

>  <InChI Key>
FBKMWOJEPMPVTQ-UHFFFAOYSA-N

>  <BindingDB>
50126143

>  <PubChem>
135564890

>  <ChEMBL>
CHEMBL3545369

$$$$
214
Actelion Java MolfileCreator 2.0

  0  0  0  0  0  0              0 V3000
M  V30 BEGIN CTAB
M  V30 COUNTS 31 33 0 0 0
M  V30 BEGIN ATOM
M  V30 1 O -1.0214 -2.8788 0.0 0
M  V30 2 C -0.8971 -1.9815 0.0 0
M  V30 3 O 0.0631 -1.4998 0.0 0
M  V30 4 C -2.0332 -1.2269 0.0 0 CFG=1
M  V30 5 C 0.0306 -0.5304 0.0 0 CFG=2
M  V30 6 C -1.1113 -0.8394 0.0 0 CFG=2
M  V30 7 C -2.3049 -2.1893 0.0 0
M  V30 8 C -2.6866 -0.47 0.0 0
M  V30 9 C 0.866 0.0 0.0 0
M  V30 10 C -1.195 0.157 0.0 0 CFG=2
M  V30 11 C 0.8607 -1.009 0.0 0
M  V30 12 O -0.2934 -0.2085 0.0 0
M  V30 13 C -0.3332 -1.2647 0.0 0
M  V30 14 C -1.722 -3.0018 0.0 0
M  V30 15 C -2.1686 0.3853 0.0 0
M  V30 16 C 1.732 -0.5 0.0 0
M  V30 17 C -0.3273 0.705 0.0 0
M  V30 18 C -0.0608 -2.3035 0.0 0
M  V30 19 C -0.6564 -3.0916 0.0 0
M  V30 20 C 2.598 0.0 0.0 0
M  V30 21 O -1.219 1.1576 0.0 0
M  V30 22 C 0.5104 1.2509 0.0 0
M  V30 23 C -0.3357 -3.9745 0.0 0
M  V30 24 C 3.4641 -0.5 0.0 0
M  V30 25 O 0.6563 -4.0997 0.0 0
M  V30 26 O -0.9403 -4.771 0.0 0
M  V30 27 C 4.3301 0.0 0.0 0
M  V30 28 C 3.4641 -1.5 0.0 0
M  V30 29 C -0.5527 -5.6929 0.0 0
M  V30 30 O 5.1961 -0.5 0.0 0
M  V30 31 O 4.3301 1.0 0.0 0
M  V30 END ATOM
M  V30 BEGIN BOND
M  V30 1 2 1 2
M  V30 2 1 2 3
M  V30 3 1 4 2
M  V30 4 1 5 3
M  V30 5 1 6 4
M  V30 6 1 4 7 CFG=3
M  V30 7 1 4 8
M  V30 8 1 5 9
M  V30 9 1 10 5
M  V30 10 1 5 11 CFG=3
M  V30 11 1 6 12 CFG=3
M  V30 12 1 6 13
M  V30 13 1 7 14
M  V30 14 1 8 15
M  V30 15 2 9 16
M  V30 16 1 12 17
M  V30 17 1 13 18
M  V30 18 2 14 19
M  V30 19 1 16 20
M  V30 20 2 17 21
M  V30 21 1 17 22
M  V30 22 1 19 23
M  V30 23 2 20 24
M  V30 24 2 23 25
M  V30 25 1 23 26
M  V30 26 1 24 27
M  V30 27 1 24 28
M  V30 28 1 26 29
M  V30 29 2 27 30
M  V30 30 1 27 31
M  V30 31 1 6 10
M  V30 32 1 10 15 CFG=3
M  V30 33 1 18 19
M  V30 END BOND
M  V30 BEGIN COLLECTION
M  V30 MDLV30/STEABS ATOMS=(4 4 5 6 10)
M  V30 END COLLECTION
M  V30 END CTAB
M  END
>  <Molecule Name>
Compound 698

>  <Molecule Name 2>
Compound 698

>  <Compound ID>
214

>  <Name>
Pseudolaric acid B

>  <Uniprot>
P35613

>  <Target>
CD147

>  <Smiles>
COC(=O)C1=CC[C@]23CC[C@@H]([C@@]2(OC(C)=O)CC1)[C@@](C)(/C=C/C=C(\C)C(=O)O)OC3=O

>  <Kd (nM)>


>  <Assay (Kd)>


>  <Ki (nM)>


>  <Assay (Ki)>


>  <IC50 (nM)>
1450

>  <Assay (IC50)>
Inhibit proliferation of Sk-Mel-28 cells

>  <EC50 (nM)>


>  <Assay (EC50)>


>  <Article DOI>
10.1016/j.bioorg.2020.104453

>  <Molecular Weight>
432.469

>  <Exact Mass>
432.1784179

>  <XLogP3>
2.34

>  <Heavy Atom Count>
31

>  <Ring Count>
3

>  <Hydrogen Bond Acceptor Count>
7

>  <Hydrogen Bond Donor Count>
1

>  <Rotatable Bond Count>
5

>  <Topological Polar Surface Area>
116.2

>  <Molecular Formula>
C23H28O8

>  <InChI>
InChI=1S/C23H28O8/c1-14(18(25)26)6-5-10-21(3)17-9-12-22(20(28)31-21)11-7-16(19(27)29-4)8-13-23(17,22)30-15(2)24/h5-7,10,17H,8-9,11-13H2,1-4H3,(H,25,26)/b10-5+,14-6+/t17-,21-,22-,23+/m1/s1

>  <InChI Key>
VDGOFNMYZYBUDT-RMESQWPQSA-N

>  <BindingDB>


>  <PubChem>
71307573

>  <ChEMBL>


$$$$
215
Actelion Java MolfileCreator 2.0

  0  0  0  0  0  0              0 V3000
M  V30 BEGIN CTAB
M  V30 COUNTS 26 29 0 0 0
M  V30 BEGIN ATOM
M  V30 1 Cl -1.732 -3.5 0.0 0
M  V30 2 C -0.866 -3.0 0.0 0
M  V30 3 N 0.0 -3.5 0.0 0
M  V30 4 N -0.866 -2.0 0.0 0
M  V30 5 C 0.866 -3.0 0.0 0
M  V30 6 C 0.0 -1.5 0.0 0
M  V30 7 C 0.866 -2.0 0.0 0
M  V30 8 C 1.732 -1.5 0.0 0 CFG=1
M  V30 9 N 1.732 -0.5 0.0 0
M  V30 10 C 2.598 -1.9999 0.0 0
M  V30 11 C 2.598 0.0 0.0 0 CFG=1
M  V30 12 C 0.866 0.0 0.0 0
M  V30 13 N 2.8059 -2.9781 0.0 0
M  V30 14 C 3.4641 -1.4999 0.0 0
M  V30 15 C 3.4641 -0.4999 0.0 0
M  V30 16 C 2.598 1.0 0.0 0
M  V30 17 C 0.866 0.9999 0.0 0
M  V30 18 C 3.8005 -3.0826 0.0 0
M  V30 19 C 4.2072 -2.1691 0.0 0
M  V30 20 F 1.866 1.0 0.0 0
M  V30 21 C 0.866 1.9999 0.0 0
M  V30 22 C -0.1339 0.9999 0.0 0
M  V30 23 C 4.3882 -3.8916 0.0 0
M  V30 24 C 5.2017 -2.0646 0.0 0
M  V30 25 C 5.3828 -3.7871 0.0 0
M  V30 26 C 5.7895 -2.8736 0.0 0
M  V30 END ATOM
M  V30 BEGIN BOND
M  V30 1 1 1 2
M  V30 2 2 2 3
M  V30 3 1 2 4
M  V30 4 1 3 5
M  V30 5 2 4 6
M  V30 6 2 5 7
M  V30 7 1 8 7 CFG=1
M  V30 8 1 8 9
M  V30 9 1 8 10
M  V30 10 1 11 9
M  V30 11 1 9 12
M  V30 12 1 10 13
M  V30 13 2 10 14
M  V30 14 1 11 15
M  V30 15 1 11 16 CFG=3
M  V30 16 1 12 17
M  V30 17 1 13 18
M  V30 18 1 14 19
M  V30 19 1 17 20
M  V30 20 1 17 21
M  V30 21 1 17 22
M  V30 22 1 18 23
M  V30 23 1 19 24
M  V30 24 2 23 25
M  V30 25 2 24 26
M  V30 26 1 6 7
M  V30 27 1 14 15
M  V30 28 2 18 19
M  V30 29 1 25 26
M  V30 END BOND
M  V30 BEGIN COLLECTION
M  V30 MDLV30/STEABS ATOMS=(2 8 11)
M  V30 END COLLECTION
M  V30 END CTAB
M  END
>  <Molecule Name>
Compound 699

>  <Molecule Name 2>
Compound 699

>  <Compound ID>
215

>  <Name>


>  <Uniprot>
P03372

>  <Target>
ER

>  <Smiles>
C[C@@H]1CC2=C([NH]C3=CC=CC=C23)[C@@H](C2=CN=C(Cl)N=C2)N1CC(C)(C)F

>  <Kd (nM)>


>  <Assay (Kd)>


>  <Ki (nM)>


>  <Assay (Ki)>


>  <IC50 (nM)>


>  <Assay (IC50)>


>  <EC50 (nM)>


>  <Assay (EC50)>


>  <Article DOI>


>  <Molecular Weight>
372.875

>  <Exact Mass>
372.1517026

>  <XLogP3>
4.29

>  <Heavy Atom Count>
26

>  <Ring Count>
4

>  <Hydrogen Bond Acceptor Count>
3

>  <Hydrogen Bond Donor Count>
1

>  <Rotatable Bond Count>
3

>  <Topological Polar Surface Area>
44.81

>  <Molecular Formula>
C20H22ClFN4

>  <InChI>
InChI=1S/C20H22ClFN4/c1-12-8-15-14-6-4-5-7-16(14)25-17(15)18(26(12)11-20(2,3)22)13-9-23-19(21)24-10-13/h4-7,9-10,12,18,25H,8,11H2,1-3H3/t12-,18-/m1/s1

>  <InChI Key>
COWURNTXICZXOE-KZULUSFZSA-N

>  <BindingDB>


>  <PubChem>
155166674

>  <ChEMBL>


$$$$
216
Actelion Java MolfileCreator 2.0

  0  0  0  0  0  0              0 V3000
M  V30 BEGIN CTAB
M  V30 COUNTS 41 45 0 0 0
M  V30 BEGIN ATOM
M  V30 1 F 4.3301 0.9999 0.0 0
M  V30 2 C 4.3301 0.0 0.0 0
M  V30 3 C 3.4641 -0.5 0.0 0
M  V30 4 C 5.1961 -0.5 0.0 0
M  V30 5 N 2.598 0.0 0.0 0
M  V30 6 C 3.4641 -1.5 0.0 0
M  V30 7 C 5.1961 -1.5 0.0 0
M  V30 8 C 1.732 -0.5 0.0 0
M  V30 9 C 4.3301 -2.0 0.0 0
M  V30 10 O 6.0621 -2.0 0.0 0
M  V30 11 O 1.732 -1.5 0.0 0
M  V30 12 N 0.866 0.0 0.0 0
M  V30 13 C 6.9282 -1.5 0.0 0
M  V30 14 C 0.0 -0.5 0.0 0
M  V30 15 C 7.7942 -2.0 0.0 0
M  V30 16 C 6.9282 -0.5 0.0 0
M  V30 17 N -0.9135 -0.0932 0.0 0
M  V30 18 C -0.1045 -1.4945 0.0 0
M  V30 19 C 8.6602 -1.5 0.0 0
M  V30 20 C 7.7942 0.0 0.0 0
M  V30 21 N -1.5826 -0.8364 0.0 0
M  V30 22 C -1.1214 0.8848 0.0 0
M  V30 23 C -1.0826 -1.7024 0.0 0
M  V30 24 N 8.6602 -0.5 0.0 0
M  V30 25 C 9.5262 -2.0 0.0 0
M  V30 26 C -0.3783 1.554 0.0 0
M  V30 27 C -2.0725 1.1939 0.0 0
M  V30 28 C -1.4894 -2.6159 0.0 0
M  V30 29 O 10.3923 -1.5 0.0 0
M  V30 30 N 9.5262 -3.0 0.0 0
M  V30 31 C -0.5862 2.5321 0.0 0
M  V30 32 C -2.2804 2.172 0.0 0
M  V30 33 C -0.5758 -3.0227 0.0 0
M  V30 34 C -1.8961 -3.5295 0.0 0
M  V30 35 C -2.4029 -2.2092 0.0 0
M  V30 36 C 10.3923 -3.5 0.0 0
M  V30 37 C -1.5372 2.8411 0.0 0
M  V30 38 C 0.1569 3.2012 0.0 0
M  V30 39 N -1.7451 3.8193 0.0 0
M  V30 40 C -0.0509 4.1794 0.0 0
M  V30 41 C -1.002 4.4884 0.0 0
M  V30 END ATOM
M  V30 BEGIN BOND
M  V30 1 1 1 2
M  V30 2 2 2 3
M  V30 3 1 2 4
M  V30 4 1 3 5
M  V30 5 1 3 6
M  V30 6 2 4 7
M  V30 7 1 5 8
M  V30 8 2 6 9
M  V30 9 1 7 10
M  V30 10 2 8 11
M  V30 11 1 8 12
M  V30 12 1 10 13
M  V30 13 1 12 14
M  V30 14 2 13 15
M  V30 15 1 13 16
M  V30 16 1 14 17
M  V30 17 2 14 18
M  V30 18 1 15 19
M  V30 19 2 16 20
M  V30 20 1 17 21
M  V30 21 1 17 22
M  V30 22 1 18 23
M  V30 23 2 19 24
M  V30 24 1 19 25
M  V30 25 2 22 26
M  V30 26 1 22 27
M  V30 27 1 23 28
M  V30 28 2 25 29
M  V30 29 1 25 30
M  V30 30 1 26 31
M  V30 31 2 27 32
M  V30 32 1 28 33
M  V30 33 1 28 34
M  V30 34 1 28 35
M  V30 35 1 30 36
M  V30 36 1 31 37
M  V30 37 2 31 38
M  V30 38 2 37 39
M  V30 39 1 38 40
M  V30 40 1 39 41
M  V30 41 1 7 9
M  V30 42 1 20 24
M  V30 43 2 21 23
M  V30 44 1 32 37
M  V30 45 2 40 41
M  V30 END BOND
M  V30 END CTAB
M  END
>  <Molecule Name>
Compound 700

>  <Molecule Name 2>
Compound 700

>  <Compound ID>
216

>  <Name>
Rebastinib

>  <Uniprot>
Q2M2I8

>  <Target>
AAK1

>  <Smiles>
CNC(=O)C1=CC(OC2=CC=C(NC(=O)NC3=CC(C(C)(C)C)=NN3C3=CC=C4N=CC=CC4=C3)C(F)=C2)=CC=N1

>  <Kd (nM)>


>  <Assay (Kd)>


>  <Ki (nM)>


>  <Assay (Ki)>


>  <IC50 (nM)>


>  <Assay (IC50)>


>  <EC50 (nM)>


>  <Assay (EC50)>


>  <Article DOI>
10.1016/j.cell.2020.10.038

>  <Molecular Weight>
553.598

>  <Exact Mass>
553.223766

>  <XLogP3>
4.93

>  <Heavy Atom Count>
41

>  <Ring Count>
5

>  <Hydrogen Bond Acceptor Count>
7

>  <Hydrogen Bond Donor Count>
3

>  <Rotatable Bond Count>
6

>  <Topological Polar Surface Area>
123.06

>  <Molecular Formula>
C30H28FN7O3

>  <InChI>
InChI=1S/C30H28FN7O3/c1-30(2,3)26-17-27(38(37-26)19-7-9-23-18(14-19)6-5-12-33-23)36-29(40)35-24-10-8-20(15-22(24)31)41-21-11-13-34-25(16-21)28(39)32-4/h5-17H,1-4H3,(H,32,39)(H2,35,36,40)

>  <InChI Key>
WVXNSAVVKYZVOE-UHFFFAOYSA-N

>  <BindingDB>
185674

>  <PubChem>
25066467

>  <ChEMBL>
CHEMBL1738757

$$$$
216
Actelion Java MolfileCreator 2.0

  0  0  0  0  0  0              0 V3000
M  V30 BEGIN CTAB
M  V30 COUNTS 41 45 0 0 0
M  V30 BEGIN ATOM
M  V30 1 F 4.3301 0.9999 0.0 0
M  V30 2 C 4.3301 0.0 0.0 0
M  V30 3 C 3.4641 -0.5 0.0 0
M  V30 4 C 5.1961 -0.5 0.0 0
M  V30 5 N 2.598 0.0 0.0 0
M  V30 6 C 3.4641 -1.5 0.0 0
M  V30 7 C 5.1961 -1.5 0.0 0
M  V30 8 C 1.732 -0.5 0.0 0
M  V30 9 C 4.3301 -2.0 0.0 0
M  V30 10 O 6.0621 -2.0 0.0 0
M  V30 11 O 1.732 -1.5 0.0 0
M  V30 12 N 0.866 0.0 0.0 0
M  V30 13 C 6.9282 -1.5 0.0 0
M  V30 14 C 0.0 -0.5 0.0 0
M  V30 15 C 7.7942 -2.0 0.0 0
M  V30 16 C 6.9282 -0.5 0.0 0
M  V30 17 N -0.9135 -0.0932 0.0 0
M  V30 18 C -0.1045 -1.4945 0.0 0
M  V30 19 C 8.6602 -1.5 0.0 0
M  V30 20 C 7.7942 0.0 0.0 0
M  V30 21 N -1.5826 -0.8364 0.0 0
M  V30 22 C -1.1214 0.8848 0.0 0
M  V30 23 C -1.0826 -1.7024 0.0 0
M  V30 24 N 8.6602 -0.5 0.0 0
M  V30 25 C 9.5262 -2.0 0.0 0
M  V30 26 C -0.3783 1.554 0.0 0
M  V30 27 C -2.0725 1.1939 0.0 0
M  V30 28 C -1.4894 -2.6159 0.0 0
M  V30 29 O 10.3923 -1.5 0.0 0
M  V30 30 N 9.5262 -3.0 0.0 0
M  V30 31 C -0.5862 2.5321 0.0 0
M  V30 32 C -2.2804 2.172 0.0 0
M  V30 33 C -0.5758 -3.0227 0.0 0
M  V30 34 C -1.8961 -3.5295 0.0 0
M  V30 35 C -2.4029 -2.2092 0.0 0
M  V30 36 C 10.3923 -3.5 0.0 0
M  V30 37 C -1.5372 2.8411 0.0 0
M  V30 38 C 0.1569 3.2012 0.0 0
M  V30 39 N -1.7451 3.8193 0.0 0
M  V30 40 C -0.0509 4.1794 0.0 0
M  V30 41 C -1.002 4.4884 0.0 0
M  V30 END ATOM
M  V30 BEGIN BOND
M  V30 1 1 1 2
M  V30 2 2 2 3
M  V30 3 1 2 4
M  V30 4 1 3 5
M  V30 5 1 3 6
M  V30 6 2 4 7
M  V30 7 1 5 8
M  V30 8 2 6 9
M  V30 9 1 7 10
M  V30 10 2 8 11
M  V30 11 1 8 12
M  V30 12 1 10 13
M  V30 13 1 12 14
M  V30 14 2 13 15
M  V30 15 1 13 16
M  V30 16 1 14 17
M  V30 17 2 14 18
M  V30 18 1 15 19
M  V30 19 2 16 20
M  V30 20 1 17 21
M  V30 21 1 17 22
M  V30 22 1 18 23
M  V30 23 2 19 24
M  V30 24 1 19 25
M  V30 25 2 22 26
M  V30 26 1 22 27
M  V30 27 1 23 28
M  V30 28 2 25 29
M  V30 29 1 25 30
M  V30 30 1 26 31
M  V30 31 2 27 32
M  V30 32 1 28 33
M  V30 33 1 28 34
M  V30 34 1 28 35
M  V30 35 1 30 36
M  V30 36 1 31 37
M  V30 37 2 31 38
M  V30 38 2 37 39
M  V30 39 1 38 40
M  V30 40 1 39 41
M  V30 41 1 7 9
M  V30 42 1 20 24
M  V30 43 2 21 23
M  V30 44 1 32 37
M  V30 45 2 40 41
M  V30 END BOND
M  V30 END CTAB
M  END
>  <Molecule Name>
Compound 701

>  <Molecule Name 2>
Compound 701

>  <Compound ID>
216

>  <Name>
Rebastinib

>  <Uniprot>
P42684

>  <Target>
ABL2

>  <Smiles>
CNC(=O)C1=CC(OC2=CC=C(NC(=O)NC3=CC(C(C)(C)C)=NN3C3=CC=C4N=CC=CC4=C3)C(F)=C2)=CC=N1

>  <Kd (nM)>
135

>  <Assay (Kd)>
Kd apparent of ABL2

>  <Ki (nM)>


>  <Assay (Ki)>


>  <IC50 (nM)>


>  <Assay (IC50)>


>  <EC50 (nM)>


>  <Assay (EC50)>


>  <Article DOI>
10.1126/science.aan4368

>  <Molecular Weight>
553.598

>  <Exact Mass>
553.223766

>  <XLogP3>
4.93

>  <Heavy Atom Count>
41

>  <Ring Count>
5

>  <Hydrogen Bond Acceptor Count>
7

>  <Hydrogen Bond Donor Count>
3

>  <Rotatable Bond Count>
6

>  <Topological Polar Surface Area>
123.06

>  <Molecular Formula>
C30H28FN7O3

>  <InChI>
InChI=1S/C30H28FN7O3/c1-30(2,3)26-17-27(38(37-26)19-7-9-23-18(14-19)6-5-12-33-23)36-29(40)35-24-10-8-20(15-22(24)31)41-21-11-13-34-25(16-21)28(39)32-4/h5-17H,1-4H3,(H,32,39)(H2,35,36,40)

>  <InChI Key>
WVXNSAVVKYZVOE-UHFFFAOYSA-N

>  <BindingDB>
185674

>  <PubChem>
25066467

>  <ChEMBL>
CHEMBL1738757

$$$$
216
Actelion Java MolfileCreator 2.0

  0  0  0  0  0  0              0 V3000
M  V30 BEGIN CTAB
M  V30 COUNTS 41 45 0 0 0
M  V30 BEGIN ATOM
M  V30 1 F 4.3301 0.9999 0.0 0
M  V30 2 C 4.3301 0.0 0.0 0
M  V30 3 C 3.4641 -0.5 0.0 0
M  V30 4 C 5.1961 -0.5 0.0 0
M  V30 5 N 2.598 0.0 0.0 0
M  V30 6 C 3.4641 -1.5 0.0 0
M  V30 7 C 5.1961 -1.5 0.0 0
M  V30 8 C 1.732 -0.5 0.0 0
M  V30 9 C 4.3301 -2.0 0.0 0
M  V30 10 O 6.0621 -2.0 0.0 0
M  V30 11 O 1.732 -1.5 0.0 0
M  V30 12 N 0.866 0.0 0.0 0
M  V30 13 C 6.9282 -1.5 0.0 0
M  V30 14 C 0.0 -0.5 0.0 0
M  V30 15 C 7.7942 -2.0 0.0 0
M  V30 16 C 6.9282 -0.5 0.0 0
M  V30 17 N -0.9135 -0.0932 0.0 0
M  V30 18 C -0.1045 -1.4945 0.0 0
M  V30 19 C 8.6602 -1.5 0.0 0
M  V30 20 C 7.7942 0.0 0.0 0
M  V30 21 N -1.5826 -0.8364 0.0 0
M  V30 22 C -1.1214 0.8848 0.0 0
M  V30 23 C -1.0826 -1.7024 0.0 0
M  V30 24 N 8.6602 -0.5 0.0 0
M  V30 25 C 9.5262 -2.0 0.0 0
M  V30 26 C -0.3783 1.554 0.0 0
M  V30 27 C -2.0725 1.1939 0.0 0
M  V30 28 C -1.4894 -2.6159 0.0 0
M  V30 29 O 10.3923 -1.5 0.0 0
M  V30 30 N 9.5262 -3.0 0.0 0
M  V30 31 C -0.5862 2.5321 0.0 0
M  V30 32 C -2.2804 2.172 0.0 0
M  V30 33 C -0.5758 -3.0227 0.0 0
M  V30 34 C -1.8961 -3.5295 0.0 0
M  V30 35 C -2.4029 -2.2092 0.0 0
M  V30 36 C 10.3923 -3.5 0.0 0
M  V30 37 C -1.5372 2.8411 0.0 0
M  V30 38 C 0.1569 3.2012 0.0 0
M  V30 39 N -1.7451 3.8193 0.0 0
M  V30 40 C -0.0509 4.1794 0.0 0
M  V30 41 C -1.002 4.4884 0.0 0
M  V30 END ATOM
M  V30 BEGIN BOND
M  V30 1 1 1 2
M  V30 2 2 2 3
M  V30 3 1 2 4
M  V30 4 1 3 5
M  V30 5 1 3 6
M  V30 6 2 4 7
M  V30 7 1 5 8
M  V30 8 2 6 9
M  V30 9 1 7 10
M  V30 10 2 8 11
M  V30 11 1 8 12
M  V30 12 1 10 13
M  V30 13 1 12 14
M  V30 14 2 13 15
M  V30 15 1 13 16
M  V30 16 1 14 17
M  V30 17 2 14 18
M  V30 18 1 15 19
M  V30 19 2 16 20
M  V30 20 1 17 21
M  V30 21 1 17 22
M  V30 22 1 18 23
M  V30 23 2 19 24
M  V30 24 1 19 25
M  V30 25 2 22 26
M  V30 26 1 22 27
M  V30 27 1 23 28
M  V30 28 2 25 29
M  V30 29 1 25 30
M  V30 30 1 26 31
M  V30 31 2 27 32
M  V30 32 1 28 33
M  V30 33 1 28 34
M  V30 34 1 28 35
M  V30 35 1 30 36
M  V30 36 1 31 37
M  V30 37 2 31 38
M  V30 38 2 37 39
M  V30 39 1 38 40
M  V30 40 1 39 41
M  V30 41 1 7 9
M  V30 42 1 20 24
M  V30 43 2 21 23
M  V30 44 1 32 37
M  V30 45 2 40 41
M  V30 END BOND
M  V30 END CTAB
M  END
>  <Molecule Name>
Compound 702

>  <Molecule Name 2>
Compound 702

>  <Compound ID>
216

>  <Name>
Rebastinib

>  <Uniprot>
O14965

>  <Target>
AURKA

>  <Smiles>
CNC(=O)C1=CC(OC2=CC=C(NC(=O)NC3=CC(C(C)(C)C)=NN3C3=CC=C4N=CC=CC4=C3)C(F)=C2)=CC=N1

>  <Kd (nM)>


>  <Assay (Kd)>


>  <Ki (nM)>


>  <Assay (Ki)>


>  <IC50 (nM)>


>  <Assay (IC50)>


>  <EC50 (nM)>


>  <Assay (EC50)>


>  <Article DOI>
10.1016/j.cell.2020.10.038

>  <Molecular Weight>
553.598

>  <Exact Mass>
553.223766

>  <XLogP3>
4.93

>  <Heavy Atom Count>
41

>  <Ring Count>
5

>  <Hydrogen Bond Acceptor Count>
7

>  <Hydrogen Bond Donor Count>
3

>  <Rotatable Bond Count>
6

>  <Topological Polar Surface Area>
123.06

>  <Molecular Formula>
C30H28FN7O3

>  <InChI>
InChI=1S/C30H28FN7O3/c1-30(2,3)26-17-27(38(37-26)19-7-9-23-18(14-19)6-5-12-33-23)36-29(40)35-24-10-8-20(15-22(24)31)41-21-11-13-34-25(16-21)28(39)32-4/h5-17H,1-4H3,(H,32,39)(H2,35,36,40)

>  <InChI Key>
WVXNSAVVKYZVOE-UHFFFAOYSA-N

>  <BindingDB>
185674

>  <PubChem>
25066467

>  <ChEMBL>
CHEMBL1738757

$$$$
216
Actelion Java MolfileCreator 2.0

  0  0  0  0  0  0              0 V3000
M  V30 BEGIN CTAB
M  V30 COUNTS 41 45 0 0 0
M  V30 BEGIN ATOM
M  V30 1 F 4.3301 0.9999 0.0 0
M  V30 2 C 4.3301 0.0 0.0 0
M  V30 3 C 3.4641 -0.5 0.0 0
M  V30 4 C 5.1961 -0.5 0.0 0
M  V30 5 N 2.598 0.0 0.0 0
M  V30 6 C 3.4641 -1.5 0.0 0
M  V30 7 C 5.1961 -1.5 0.0 0
M  V30 8 C 1.732 -0.5 0.0 0
M  V30 9 C 4.3301 -2.0 0.0 0
M  V30 10 O 6.0621 -2.0 0.0 0
M  V30 11 O 1.732 -1.5 0.0 0
M  V30 12 N 0.866 0.0 0.0 0
M  V30 13 C 6.9282 -1.5 0.0 0
M  V30 14 C 0.0 -0.5 0.0 0
M  V30 15 C 7.7942 -2.0 0.0 0
M  V30 16 C 6.9282 -0.5 0.0 0
M  V30 17 N -0.9135 -0.0932 0.0 0
M  V30 18 C -0.1045 -1.4945 0.0 0
M  V30 19 C 8.6602 -1.5 0.0 0
M  V30 20 C 7.7942 0.0 0.0 0
M  V30 21 N -1.5826 -0.8364 0.0 0
M  V30 22 C -1.1214 0.8848 0.0 0
M  V30 23 C -1.0826 -1.7024 0.0 0
M  V30 24 N 8.6602 -0.5 0.0 0
M  V30 25 C 9.5262 -2.0 0.0 0
M  V30 26 C -0.3783 1.554 0.0 0
M  V30 27 C -2.0725 1.1939 0.0 0
M  V30 28 C -1.4894 -2.6159 0.0 0
M  V30 29 O 10.3923 -1.5 0.0 0
M  V30 30 N 9.5262 -3.0 0.0 0
M  V30 31 C -0.5862 2.5321 0.0 0
M  V30 32 C -2.2804 2.172 0.0 0
M  V30 33 C -0.5758 -3.0227 0.0 0
M  V30 34 C -1.8961 -3.5295 0.0 0
M  V30 35 C -2.4029 -2.2092 0.0 0
M  V30 36 C 10.3923 -3.5 0.0 0
M  V30 37 C -1.5372 2.8411 0.0 0
M  V30 38 C 0.1569 3.2012 0.0 0
M  V30 39 N -1.7451 3.8193 0.0 0
M  V30 40 C -0.0509 4.1794 0.0 0
M  V30 41 C -1.002 4.4884 0.0 0
M  V30 END ATOM
M  V30 BEGIN BOND
M  V30 1 1 1 2
M  V30 2 2 2 3
M  V30 3 1 2 4
M  V30 4 1 3 5
M  V30 5 1 3 6
M  V30 6 2 4 7
M  V30 7 1 5 8
M  V30 8 2 6 9
M  V30 9 1 7 10
M  V30 10 2 8 11
M  V30 11 1 8 12
M  V30 12 1 10 13
M  V30 13 1 12 14
M  V30 14 2 13 15
M  V30 15 1 13 16
M  V30 16 1 14 17
M  V30 17 2 14 18
M  V30 18 1 15 19
M  V30 19 2 16 20
M  V30 20 1 17 21
M  V30 21 1 17 22
M  V30 22 1 18 23
M  V30 23 2 19 24
M  V30 24 1 19 25
M  V30 25 2 22 26
M  V30 26 1 22 27
M  V30 27 1 23 28
M  V30 28 2 25 29
M  V30 29 1 25 30
M  V30 30 1 26 31
M  V30 31 2 27 32
M  V30 32 1 28 33
M  V30 33 1 28 34
M  V30 34 1 28 35
M  V30 35 1 30 36
M  V30 36 1 31 37
M  V30 37 2 31 38
M  V30 38 2 37 39
M  V30 39 1 38 40
M  V30 40 1 39 41
M  V30 41 1 7 9
M  V30 42 1 20 24
M  V30 43 2 21 23
M  V30 44 1 32 37
M  V30 45 2 40 41
M  V30 END BOND
M  V30 END CTAB
M  END
>  <Molecule Name>
Compound 703

>  <Molecule Name 2>
Compound 703

>  <Compound ID>
216

>  <Name>
Rebastinib

>  <Uniprot>
Q96GD4

>  <Target>
AURKB

>  <Smiles>
CNC(=O)C1=CC(OC2=CC=C(NC(=O)NC3=CC(C(C)(C)C)=NN3C3=CC=C4N=CC=CC4=C3)C(F)=C2)=CC=N1

>  <Kd (nM)>


>  <Assay (Kd)>


>  <Ki (nM)>


>  <Assay (Ki)>


>  <IC50 (nM)>


>  <Assay (IC50)>


>  <EC50 (nM)>


>  <Assay (EC50)>


>  <Article DOI>
10.1016/j.cell.2020.10.038

>  <Molecular Weight>
553.598

>  <Exact Mass>
553.223766

>  <XLogP3>
4.93

>  <Heavy Atom Count>
41

>  <Ring Count>
5

>  <Hydrogen Bond Acceptor Count>
7

>  <Hydrogen Bond Donor Count>
3

>  <Rotatable Bond Count>
6

>  <Topological Polar Surface Area>
123.06

>  <Molecular Formula>
C30H28FN7O3

>  <InChI>
InChI=1S/C30H28FN7O3/c1-30(2,3)26-17-27(38(37-26)19-7-9-23-18(14-19)6-5-12-33-23)36-29(40)35-24-10-8-20(15-22(24)31)41-21-11-13-34-25(16-21)28(39)32-4/h5-17H,1-4H3,(H,32,39)(H2,35,36,40)

>  <InChI Key>
WVXNSAVVKYZVOE-UHFFFAOYSA-N

>  <BindingDB>
185674

>  <PubChem>
25066467

>  <ChEMBL>
CHEMBL1738757

$$$$
216
Actelion Java MolfileCreator 2.0

  0  0  0  0  0  0              0 V3000
M  V30 BEGIN CTAB
M  V30 COUNTS 41 45 0 0 0
M  V30 BEGIN ATOM
M  V30 1 F 4.3301 0.9999 0.0 0
M  V30 2 C 4.3301 0.0 0.0 0
M  V30 3 C 3.4641 -0.5 0.0 0
M  V30 4 C 5.1961 -0.5 0.0 0
M  V30 5 N 2.598 0.0 0.0 0
M  V30 6 C 3.4641 -1.5 0.0 0
M  V30 7 C 5.1961 -1.5 0.0 0
M  V30 8 C 1.732 -0.5 0.0 0
M  V30 9 C 4.3301 -2.0 0.0 0
M  V30 10 O 6.0621 -2.0 0.0 0
M  V30 11 O 1.732 -1.5 0.0 0
M  V30 12 N 0.866 0.0 0.0 0
M  V30 13 C 6.9282 -1.5 0.0 0
M  V30 14 C 0.0 -0.5 0.0 0
M  V30 15 C 7.7942 -2.0 0.0 0
M  V30 16 C 6.9282 -0.5 0.0 0
M  V30 17 N -0.9135 -0.0932 0.0 0
M  V30 18 C -0.1045 -1.4945 0.0 0
M  V30 19 C 8.6602 -1.5 0.0 0
M  V30 20 C 7.7942 0.0 0.0 0
M  V30 21 N -1.5826 -0.8364 0.0 0
M  V30 22 C -1.1214 0.8848 0.0 0
M  V30 23 C -1.0826 -1.7024 0.0 0
M  V30 24 N 8.6602 -0.5 0.0 0
M  V30 25 C 9.5262 -2.0 0.0 0
M  V30 26 C -0.3783 1.554 0.0 0
M  V30 27 C -2.0725 1.1939 0.0 0
M  V30 28 C -1.4894 -2.6159 0.0 0
M  V30 29 O 10.3923 -1.5 0.0 0
M  V30 30 N 9.5262 -3.0 0.0 0
M  V30 31 C -0.5862 2.5321 0.0 0
M  V30 32 C -2.2804 2.172 0.0 0
M  V30 33 C -0.5758 -3.0227 0.0 0
M  V30 34 C -1.8961 -3.5295 0.0 0
M  V30 35 C -2.4029 -2.2092 0.0 0
M  V30 36 C 10.3923 -3.5 0.0 0
M  V30 37 C -1.5372 2.8411 0.0 0
M  V30 38 C 0.1569 3.2012 0.0 0
M  V30 39 N -1.7451 3.8193 0.0 0
M  V30 40 C -0.0509 4.1794 0.0 0
M  V30 41 C -1.002 4.4884 0.0 0
M  V30 END ATOM
M  V30 BEGIN BOND
M  V30 1 1 1 2
M  V30 2 2 2 3
M  V30 3 1 2 4
M  V30 4 1 3 5
M  V30 5 1 3 6
M  V30 6 2 4 7
M  V30 7 1 5 8
M  V30 8 2 6 9
M  V30 9 1 7 10
M  V30 10 2 8 11
M  V30 11 1 8 12
M  V30 12 1 10 13
M  V30 13 1 12 14
M  V30 14 2 13 15
M  V30 15 1 13 16
M  V30 16 1 14 17
M  V30 17 2 14 18
M  V30 18 1 15 19
M  V30 19 2 16 20
M  V30 20 1 17 21
M  V30 21 1 17 22
M  V30 22 1 18 23
M  V30 23 2 19 24
M  V30 24 1 19 25
M  V30 25 2 22 26
M  V30 26 1 22 27
M  V30 27 1 23 28
M  V30 28 2 25 29
M  V30 29 1 25 30
M  V30 30 1 26 31
M  V30 31 2 27 32
M  V30 32 1 28 33
M  V30 33 1 28 34
M  V30 34 1 28 35
M  V30 35 1 30 36
M  V30 36 1 31 37
M  V30 37 2 31 38
M  V30 38 2 37 39
M  V30 39 1 38 40
M  V30 40 1 39 41
M  V30 41 1 7 9
M  V30 42 1 20 24
M  V30 43 2 21 23
M  V30 44 1 32 37
M  V30 45 2 40 41
M  V30 END BOND
M  V30 END CTAB
M  END
>  <Molecule Name>
Compound 704

>  <Molecule Name 2>
Compound 704

>  <Compound ID>
216

>  <Name>
Rebastinib

>  <Uniprot>
P51451

>  <Target>
BLK

>  <Smiles>
CNC(=O)C1=CC(OC2=CC=C(NC(=O)NC3=CC(C(C)(C)C)=NN3C3=CC=C4N=CC=CC4=C3)C(F)=C2)=CC=N1

>  <Kd (nM)>


>  <Assay (Kd)>


>  <Ki (nM)>


>  <Assay (Ki)>


>  <IC50 (nM)>


>  <Assay (IC50)>


>  <EC50 (nM)>


>  <Assay (EC50)>


>  <Article DOI>
10.1016/j.cell.2020.10.038

>  <Molecular Weight>
553.598

>  <Exact Mass>
553.223766

>  <XLogP3>
4.93

>  <Heavy Atom Count>
41

>  <Ring Count>
5

>  <Hydrogen Bond Acceptor Count>
7

>  <Hydrogen Bond Donor Count>
3

>  <Rotatable Bond Count>
6

>  <Topological Polar Surface Area>
123.06

>  <Molecular Formula>
C30H28FN7O3

>  <InChI>
InChI=1S/C30H28FN7O3/c1-30(2,3)26-17-27(38(37-26)19-7-9-23-18(14-19)6-5-12-33-23)36-29(40)35-24-10-8-20(15-22(24)31)41-21-11-13-34-25(16-21)28(39)32-4/h5-17H,1-4H3,(H,32,39)(H2,35,36,40)

>  <InChI Key>
WVXNSAVVKYZVOE-UHFFFAOYSA-N

>  <BindingDB>
185674

>  <PubChem>
25066467

>  <ChEMBL>
CHEMBL1738757

$$$$
216
Actelion Java MolfileCreator 2.0

  0  0  0  0  0  0              0 V3000
M  V30 BEGIN CTAB
M  V30 COUNTS 41 45 0 0 0
M  V30 BEGIN ATOM
M  V30 1 F 4.3301 0.9999 0.0 0
M  V30 2 C 4.3301 0.0 0.0 0
M  V30 3 C 3.4641 -0.5 0.0 0
M  V30 4 C 5.1961 -0.5 0.0 0
M  V30 5 N 2.598 0.0 0.0 0
M  V30 6 C 3.4641 -1.5 0.0 0
M  V30 7 C 5.1961 -1.5 0.0 0
M  V30 8 C 1.732 -0.5 0.0 0
M  V30 9 C 4.3301 -2.0 0.0 0
M  V30 10 O 6.0621 -2.0 0.0 0
M  V30 11 O 1.732 -1.5 0.0 0
M  V30 12 N 0.866 0.0 0.0 0
M  V30 13 C 6.9282 -1.5 0.0 0
M  V30 14 C 0.0 -0.5 0.0 0
M  V30 15 C 7.7942 -2.0 0.0 0
M  V30 16 C 6.9282 -0.5 0.0 0
M  V30 17 N -0.9135 -0.0932 0.0 0
M  V30 18 C -0.1045 -1.4945 0.0 0
M  V30 19 C 8.6602 -1.5 0.0 0
M  V30 20 C 7.7942 0.0 0.0 0
M  V30 21 N -1.5826 -0.8364 0.0 0
M  V30 22 C -1.1214 0.8848 0.0 0
M  V30 23 C -1.0826 -1.7024 0.0 0
M  V30 24 N 8.6602 -0.5 0.0 0
M  V30 25 C 9.5262 -2.0 0.0 0
M  V30 26 C -0.3783 1.554 0.0 0
M  V30 27 C -2.0725 1.1939 0.0 0
M  V30 28 C -1.4894 -2.6159 0.0 0
M  V30 29 O 10.3923 -1.5 0.0 0
M  V30 30 N 9.5262 -3.0 0.0 0
M  V30 31 C -0.5862 2.5321 0.0 0
M  V30 32 C -2.2804 2.172 0.0 0
M  V30 33 C -0.5758 -3.0227 0.0 0
M  V30 34 C -1.8961 -3.5295 0.0 0
M  V30 35 C -2.4029 -2.2092 0.0 0
M  V30 36 C 10.3923 -3.5 0.0 0
M  V30 37 C -1.5372 2.8411 0.0 0
M  V30 38 C 0.1569 3.2012 0.0 0
M  V30 39 N -1.7451 3.8193 0.0 0
M  V30 40 C -0.0509 4.1794 0.0 0
M  V30 41 C -1.002 4.4884 0.0 0
M  V30 END ATOM
M  V30 BEGIN BOND
M  V30 1 1 1 2
M  V30 2 2 2 3
M  V30 3 1 2 4
M  V30 4 1 3 5
M  V30 5 1 3 6
M  V30 6 2 4 7
M  V30 7 1 5 8
M  V30 8 2 6 9
M  V30 9 1 7 10
M  V30 10 2 8 11
M  V30 11 1 8 12
M  V30 12 1 10 13
M  V30 13 1 12 14
M  V30 14 2 13 15
M  V30 15 1 13 16
M  V30 16 1 14 17
M  V30 17 2 14 18
M  V30 18 1 15 19
M  V30 19 2 16 20
M  V30 20 1 17 21
M  V30 21 1 17 22
M  V30 22 1 18 23
M  V30 23 2 19 24
M  V30 24 1 19 25
M  V30 25 2 22 26
M  V30 26 1 22 27
M  V30 27 1 23 28
M  V30 28 2 25 29
M  V30 29 1 25 30
M  V30 30 1 26 31
M  V30 31 2 27 32
M  V30 32 1 28 33
M  V30 33 1 28 34
M  V30 34 1 28 35
M  V30 35 1 30 36
M  V30 36 1 31 37
M  V30 37 2 31 38
M  V30 38 2 37 39
M  V30 39 1 38 40
M  V30 40 1 39 41
M  V30 41 1 7 9
M  V30 42 1 20 24
M  V30 43 2 21 23
M  V30 44 1 32 37
M  V30 45 2 40 41
M  V30 END BOND
M  V30 END CTAB
M  END
>  <Molecule Name>
Compound 705

>  <Molecule Name 2>
Compound 705

>  <Compound ID>
216

>  <Name>
Rebastinib

>  <Uniprot>
O60566

>  <Target>
BUB1B

>  <Smiles>
CNC(=O)C1=CC(OC2=CC=C(NC(=O)NC3=CC(C(C)(C)C)=NN3C3=CC=C4N=CC=CC4=C3)C(F)=C2)=CC=N1

>  <Kd (nM)>


>  <Assay (Kd)>


>  <Ki (nM)>


>  <Assay (Ki)>


>  <IC50 (nM)>


>  <Assay (IC50)>


>  <EC50 (nM)>


>  <Assay (EC50)>


>  <Article DOI>
10.1016/j.cell.2020.10.038

>  <Molecular Weight>
553.598

>  <Exact Mass>
553.223766

>  <XLogP3>
4.93

>  <Heavy Atom Count>
41

>  <Ring Count>
5

>  <Hydrogen Bond Acceptor Count>
7

>  <Hydrogen Bond Donor Count>
3

>  <Rotatable Bond Count>
6

>  <Topological Polar Surface Area>
123.06

>  <Molecular Formula>
C30H28FN7O3

>  <InChI>
InChI=1S/C30H28FN7O3/c1-30(2,3)26-17-27(38(37-26)19-7-9-23-18(14-19)6-5-12-33-23)36-29(40)35-24-10-8-20(15-22(24)31)41-21-11-13-34-25(16-21)28(39)32-4/h5-17H,1-4H3,(H,32,39)(H2,35,36,40)

>  <InChI Key>
WVXNSAVVKYZVOE-UHFFFAOYSA-N

>  <BindingDB>
185674

>  <PubChem>
25066467

>  <ChEMBL>
CHEMBL1738757

$$$$
216
Actelion Java MolfileCreator 2.0

  0  0  0  0  0  0              0 V3000
M  V30 BEGIN CTAB
M  V30 COUNTS 41 45 0 0 0
M  V30 BEGIN ATOM
M  V30 1 F 4.3301 0.9999 0.0 0
M  V30 2 C 4.3301 0.0 0.0 0
M  V30 3 C 3.4641 -0.5 0.0 0
M  V30 4 C 5.1961 -0.5 0.0 0
M  V30 5 N 2.598 0.0 0.0 0
M  V30 6 C 3.4641 -1.5 0.0 0
M  V30 7 C 5.1961 -1.5 0.0 0
M  V30 8 C 1.732 -0.5 0.0 0
M  V30 9 C 4.3301 -2.0 0.0 0
M  V30 10 O 6.0621 -2.0 0.0 0
M  V30 11 O 1.732 -1.5 0.0 0
M  V30 12 N 0.866 0.0 0.0 0
M  V30 13 C 6.9282 -1.5 0.0 0
M  V30 14 C 0.0 -0.5 0.0 0
M  V30 15 C 7.7942 -2.0 0.0 0
M  V30 16 C 6.9282 -0.5 0.0 0
M  V30 17 N -0.9135 -0.0932 0.0 0
M  V30 18 C -0.1045 -1.4945 0.0 0
M  V30 19 C 8.6602 -1.5 0.0 0
M  V30 20 C 7.7942 0.0 0.0 0
M  V30 21 N -1.5826 -0.8364 0.0 0
M  V30 22 C -1.1214 0.8848 0.0 0
M  V30 23 C -1.0826 -1.7024 0.0 0
M  V30 24 N 8.6602 -0.5 0.0 0
M  V30 25 C 9.5262 -2.0 0.0 0
M  V30 26 C -0.3783 1.554 0.0 0
M  V30 27 C -2.0725 1.1939 0.0 0
M  V30 28 C -1.4894 -2.6159 0.0 0
M  V30 29 O 10.3923 -1.5 0.0 0
M  V30 30 N 9.5262 -3.0 0.0 0
M  V30 31 C -0.5862 2.5321 0.0 0
M  V30 32 C -2.2804 2.172 0.0 0
M  V30 33 C -0.5758 -3.0227 0.0 0
M  V30 34 C -1.8961 -3.5295 0.0 0
M  V30 35 C -2.4029 -2.2092 0.0 0
M  V30 36 C 10.3923 -3.5 0.0 0
M  V30 37 C -1.5372 2.8411 0.0 0
M  V30 38 C 0.1569 3.2012 0.0 0
M  V30 39 N -1.7451 3.8193 0.0 0
M  V30 40 C -0.0509 4.1794 0.0 0
M  V30 41 C -1.002 4.4884 0.0 0
M  V30 END ATOM
M  V30 BEGIN BOND
M  V30 1 1 1 2
M  V30 2 2 2 3
M  V30 3 1 2 4
M  V30 4 1 3 5
M  V30 5 1 3 6
M  V30 6 2 4 7
M  V30 7 1 5 8
M  V30 8 2 6 9
M  V30 9 1 7 10
M  V30 10 2 8 11
M  V30 11 1 8 12
M  V30 12 1 10 13
M  V30 13 1 12 14
M  V30 14 2 13 15
M  V30 15 1 13 16
M  V30 16 1 14 17
M  V30 17 2 14 18
M  V30 18 1 15 19
M  V30 19 2 16 20
M  V30 20 1 17 21
M  V30 21 1 17 22
M  V30 22 1 18 23
M  V30 23 2 19 24
M  V30 24 1 19 25
M  V30 25 2 22 26
M  V30 26 1 22 27
M  V30 27 1 23 28
M  V30 28 2 25 29
M  V30 29 1 25 30
M  V30 30 1 26 31
M  V30 31 2 27 32
M  V30 32 1 28 33
M  V30 33 1 28 34
M  V30 34 1 28 35
M  V30 35 1 30 36
M  V30 36 1 31 37
M  V30 37 2 31 38
M  V30 38 2 37 39
M  V30 39 1 38 40
M  V30 40 1 39 41
M  V30 41 1 7 9
M  V30 42 1 20 24
M  V30 43 2 21 23
M  V30 44 1 32 37
M  V30 45 2 40 41
M  V30 END BOND
M  V30 END CTAB
M  END
>  <Molecule Name>
Compound 706

>  <Molecule Name 2>
Compound 706

>  <Compound ID>
216

>  <Name>
Rebastinib

>  <Uniprot>
Q14004

>  <Target>
CDK13

>  <Smiles>
CNC(=O)C1=CC(OC2=CC=C(NC(=O)NC3=CC(C(C)(C)C)=NN3C3=CC=C4N=CC=CC4=C3)C(F)=C2)=CC=N1

>  <Kd (nM)>


>  <Assay (Kd)>


>  <Ki (nM)>


>  <Assay (Ki)>


>  <IC50 (nM)>


>  <Assay (IC50)>


>  <EC50 (nM)>


>  <Assay (EC50)>


>  <Article DOI>
10.1016/j.cell.2020.10.038

>  <Molecular Weight>
553.598

>  <Exact Mass>
553.223766

>  <XLogP3>
4.93

>  <Heavy Atom Count>
41

>  <Ring Count>
5

>  <Hydrogen Bond Acceptor Count>
7

>  <Hydrogen Bond Donor Count>
3

>  <Rotatable Bond Count>
6

>  <Topological Polar Surface Area>
123.06

>  <Molecular Formula>
C30H28FN7O3

>  <InChI>
InChI=1S/C30H28FN7O3/c1-30(2,3)26-17-27(38(37-26)19-7-9-23-18(14-19)6-5-12-33-23)36-29(40)35-24-10-8-20(15-22(24)31)41-21-11-13-34-25(16-21)28(39)32-4/h5-17H,1-4H3,(H,32,39)(H2,35,36,40)

>  <InChI Key>
WVXNSAVVKYZVOE-UHFFFAOYSA-N

>  <BindingDB>
185674

>  <PubChem>
25066467

>  <ChEMBL>
CHEMBL1738757

$$$$
216
Actelion Java MolfileCreator 2.0

  0  0  0  0  0  0              0 V3000
M  V30 BEGIN CTAB
M  V30 COUNTS 41 45 0 0 0
M  V30 BEGIN ATOM
M  V30 1 F 4.3301 0.9999 0.0 0
M  V30 2 C 4.3301 0.0 0.0 0
M  V30 3 C 3.4641 -0.5 0.0 0
M  V30 4 C 5.1961 -0.5 0.0 0
M  V30 5 N 2.598 0.0 0.0 0
M  V30 6 C 3.4641 -1.5 0.0 0
M  V30 7 C 5.1961 -1.5 0.0 0
M  V30 8 C 1.732 -0.5 0.0 0
M  V30 9 C 4.3301 -2.0 0.0 0
M  V30 10 O 6.0621 -2.0 0.0 0
M  V30 11 O 1.732 -1.5 0.0 0
M  V30 12 N 0.866 0.0 0.0 0
M  V30 13 C 6.9282 -1.5 0.0 0
M  V30 14 C 0.0 -0.5 0.0 0
M  V30 15 C 7.7942 -2.0 0.0 0
M  V30 16 C 6.9282 -0.5 0.0 0
M  V30 17 N -0.9135 -0.0932 0.0 0
M  V30 18 C -0.1045 -1.4945 0.0 0
M  V30 19 C 8.6602 -1.5 0.0 0
M  V30 20 C 7.7942 0.0 0.0 0
M  V30 21 N -1.5826 -0.8364 0.0 0
M  V30 22 C -1.1214 0.8848 0.0 0
M  V30 23 C -1.0826 -1.7024 0.0 0
M  V30 24 N 8.6602 -0.5 0.0 0
M  V30 25 C 9.5262 -2.0 0.0 0
M  V30 26 C -0.3783 1.554 0.0 0
M  V30 27 C -2.0725 1.1939 0.0 0
M  V30 28 C -1.4894 -2.6159 0.0 0
M  V30 29 O 10.3923 -1.5 0.0 0
M  V30 30 N 9.5262 -3.0 0.0 0
M  V30 31 C -0.5862 2.5321 0.0 0
M  V30 32 C -2.2804 2.172 0.0 0
M  V30 33 C -0.5758 -3.0227 0.0 0
M  V30 34 C -1.8961 -3.5295 0.0 0
M  V30 35 C -2.4029 -2.2092 0.0 0
M  V30 36 C 10.3923 -3.5 0.0 0
M  V30 37 C -1.5372 2.8411 0.0 0
M  V30 38 C 0.1569 3.2012 0.0 0
M  V30 39 N -1.7451 3.8193 0.0 0
M  V30 40 C -0.0509 4.1794 0.0 0
M  V30 41 C -1.002 4.4884 0.0 0
M  V30 END ATOM
M  V30 BEGIN BOND
M  V30 1 1 1 2
M  V30 2 2 2 3
M  V30 3 1 2 4
M  V30 4 1 3 5
M  V30 5 1 3 6
M  V30 6 2 4 7
M  V30 7 1 5 8
M  V30 8 2 6 9
M  V30 9 1 7 10
M  V30 10 2 8 11
M  V30 11 1 8 12
M  V30 12 1 10 13
M  V30 13 1 12 14
M  V30 14 2 13 15
M  V30 15 1 13 16
M  V30 16 1 14 17
M  V30 17 2 14 18
M  V30 18 1 15 19
M  V30 19 2 16 20
M  V30 20 1 17 21
M  V30 21 1 17 22
M  V30 22 1 18 23
M  V30 23 2 19 24
M  V30 24 1 19 25
M  V30 25 2 22 26
M  V30 26 1 22 27
M  V30 27 1 23 28
M  V30 28 2 25 29
M  V30 29 1 25 30
M  V30 30 1 26 31
M  V30 31 2 27 32
M  V30 32 1 28 33
M  V30 33 1 28 34
M  V30 34 1 28 35
M  V30 35 1 30 36
M  V30 36 1 31 37
M  V30 37 2 31 38
M  V30 38 2 37 39
M  V30 39 1 38 40
M  V30 40 1 39 41
M  V30 41 1 7 9
M  V30 42 1 20 24
M  V30 43 2 21 23
M  V30 44 1 32 37
M  V30 45 2 40 41
M  V30 END BOND
M  V30 END CTAB
M  END
>  <Molecule Name>
Compound 707

>  <Molecule Name 2>
Compound 707

>  <Compound ID>
216

>  <Name>
Rebastinib

>  <Uniprot>
Q00537

>  <Target>
CDK17

>  <Smiles>
CNC(=O)C1=CC(OC2=CC=C(NC(=O)NC3=CC(C(C)(C)C)=NN3C3=CC=C4N=CC=CC4=C3)C(F)=C2)=CC=N1

>  <Kd (nM)>
7

>  <Assay (Kd)>
Kd apparent of CDK17

>  <Ki (nM)>


>  <Assay (Ki)>


>  <IC50 (nM)>


>  <Assay (IC50)>


>  <EC50 (nM)>


>  <Assay (EC50)>


>  <Article DOI>
10.1126/science.aan4368

>  <Molecular Weight>
553.598

>  <Exact Mass>
553.223766

>  <XLogP3>
4.93

>  <Heavy Atom Count>
41

>  <Ring Count>
5

>  <Hydrogen Bond Acceptor Count>
7

>  <Hydrogen Bond Donor Count>
3

>  <Rotatable Bond Count>
6

>  <Topological Polar Surface Area>
123.06

>  <Molecular Formula>
C30H28FN7O3

>  <InChI>
InChI=1S/C30H28FN7O3/c1-30(2,3)26-17-27(38(37-26)19-7-9-23-18(14-19)6-5-12-33-23)36-29(40)35-24-10-8-20(15-22(24)31)41-21-11-13-34-25(16-21)28(39)32-4/h5-17H,1-4H3,(H,32,39)(H2,35,36,40)

>  <InChI Key>
WVXNSAVVKYZVOE-UHFFFAOYSA-N

>  <BindingDB>
185674

>  <PubChem>
25066467

>  <ChEMBL>
CHEMBL1738757

$$$$
216
Actelion Java MolfileCreator 2.0

  0  0  0  0  0  0              0 V3000
M  V30 BEGIN CTAB
M  V30 COUNTS 41 45 0 0 0
M  V30 BEGIN ATOM
M  V30 1 F 4.3301 0.9999 0.0 0
M  V30 2 C 4.3301 0.0 0.0 0
M  V30 3 C 3.4641 -0.5 0.0 0
M  V30 4 C 5.1961 -0.5 0.0 0
M  V30 5 N 2.598 0.0 0.0 0
M  V30 6 C 3.4641 -1.5 0.0 0
M  V30 7 C 5.1961 -1.5 0.0 0
M  V30 8 C 1.732 -0.5 0.0 0
M  V30 9 C 4.3301 -2.0 0.0 0
M  V30 10 O 6.0621 -2.0 0.0 0
M  V30 11 O 1.732 -1.5 0.0 0
M  V30 12 N 0.866 0.0 0.0 0
M  V30 13 C 6.9282 -1.5 0.0 0
M  V30 14 C 0.0 -0.5 0.0 0
M  V30 15 C 7.7942 -2.0 0.0 0
M  V30 16 C 6.9282 -0.5 0.0 0
M  V30 17 N -0.9135 -0.0932 0.0 0
M  V30 18 C -0.1045 -1.4945 0.0 0
M  V30 19 C 8.6602 -1.5 0.0 0
M  V30 20 C 7.7942 0.0 0.0 0
M  V30 21 N -1.5826 -0.8364 0.0 0
M  V30 22 C -1.1214 0.8848 0.0 0
M  V30 23 C -1.0826 -1.7024 0.0 0
M  V30 24 N 8.6602 -0.5 0.0 0
M  V30 25 C 9.5262 -2.0 0.0 0
M  V30 26 C -0.3783 1.554 0.0 0
M  V30 27 C -2.0725 1.1939 0.0 0
M  V30 28 C -1.4894 -2.6159 0.0 0
M  V30 29 O 10.3923 -1.5 0.0 0
M  V30 30 N 9.5262 -3.0 0.0 0
M  V30 31 C -0.5862 2.5321 0.0 0
M  V30 32 C -2.2804 2.172 0.0 0
M  V30 33 C -0.5758 -3.0227 0.0 0
M  V30 34 C -1.8961 -3.5295 0.0 0
M  V30 35 C -2.4029 -2.2092 0.0 0
M  V30 36 C 10.3923 -3.5 0.0 0
M  V30 37 C -1.5372 2.8411 0.0 0
M  V30 38 C 0.1569 3.2012 0.0 0
M  V30 39 N -1.7451 3.8193 0.0 0
M  V30 40 C -0.0509 4.1794 0.0 0
M  V30 41 C -1.002 4.4884 0.0 0
M  V30 END ATOM
M  V30 BEGIN BOND
M  V30 1 1 1 2
M  V30 2 2 2 3
M  V30 3 1 2 4
M  V30 4 1 3 5
M  V30 5 1 3 6
M  V30 6 2 4 7
M  V30 7 1 5 8
M  V30 8 2 6 9
M  V30 9 1 7 10
M  V30 10 2 8 11
M  V30 11 1 8 12
M  V30 12 1 10 13
M  V30 13 1 12 14
M  V30 14 2 13 15
M  V30 15 1 13 16
M  V30 16 1 14 17
M  V30 17 2 14 18
M  V30 18 1 15 19
M  V30 19 2 16 20
M  V30 20 1 17 21
M  V30 21 1 17 22
M  V30 22 1 18 23
M  V30 23 2 19 24
M  V30 24 1 19 25
M  V30 25 2 22 26
M  V30 26 1 22 27
M  V30 27 1 23 28
M  V30 28 2 25 29
M  V30 29 1 25 30
M  V30 30 1 26 31
M  V30 31 2 27 32
M  V30 32 1 28 33
M  V30 33 1 28 34
M  V30 34 1 28 35
M  V30 35 1 30 36
M  V30 36 1 31 37
M  V30 37 2 31 38
M  V30 38 2 37 39
M  V30 39 1 38 40
M  V30 40 1 39 41
M  V30 41 1 7 9
M  V30 42 1 20 24
M  V30 43 2 21 23
M  V30 44 1 32 37
M  V30 45 2 40 41
M  V30 END BOND
M  V30 END CTAB
M  END
>  <Molecule Name>
Compound 708

>  <Molecule Name 2>
Compound 708

>  <Compound ID>
216

>  <Name>
Rebastinib

>  <Uniprot>
P24941

>  <Target>
CDK2

>  <Smiles>
CNC(=O)C1=CC(OC2=CC=C(NC(=O)NC3=CC(C(C)(C)C)=NN3C3=CC=C4N=CC=CC4=C3)C(F)=C2)=CC=N1

>  <Kd (nM)>


>  <Assay (Kd)>


>  <Ki (nM)>


>  <Assay (Ki)>


>  <IC50 (nM)>


>  <Assay (IC50)>


>  <EC50 (nM)>


>  <Assay (EC50)>


>  <Article DOI>
10.1016/j.cell.2020.10.038

>  <Molecular Weight>
553.598

>  <Exact Mass>
553.223766

>  <XLogP3>
4.93

>  <Heavy Atom Count>
41

>  <Ring Count>
5

>  <Hydrogen Bond Acceptor Count>
7

>  <Hydrogen Bond Donor Count>
3

>  <Rotatable Bond Count>
6

>  <Topological Polar Surface Area>
123.06

>  <Molecular Formula>
C30H28FN7O3

>  <InChI>
InChI=1S/C30H28FN7O3/c1-30(2,3)26-17-27(38(37-26)19-7-9-23-18(14-19)6-5-12-33-23)36-29(40)35-24-10-8-20(15-22(24)31)41-21-11-13-34-25(16-21)28(39)32-4/h5-17H,1-4H3,(H,32,39)(H2,35,36,40)

>  <InChI Key>
WVXNSAVVKYZVOE-UHFFFAOYSA-N

>  <BindingDB>
185674

>  <PubChem>
25066467

>  <ChEMBL>
CHEMBL1738757

$$$$
216
Actelion Java MolfileCreator 2.0

  0  0  0  0  0  0              0 V3000
M  V30 BEGIN CTAB
M  V30 COUNTS 41 45 0 0 0
M  V30 BEGIN ATOM
M  V30 1 F 4.3301 0.9999 0.0 0
M  V30 2 C 4.3301 0.0 0.0 0
M  V30 3 C 3.4641 -0.5 0.0 0
M  V30 4 C 5.1961 -0.5 0.0 0
M  V30 5 N 2.598 0.0 0.0 0
M  V30 6 C 3.4641 -1.5 0.0 0
M  V30 7 C 5.1961 -1.5 0.0 0
M  V30 8 C 1.732 -0.5 0.0 0
M  V30 9 C 4.3301 -2.0 0.0 0
M  V30 10 O 6.0621 -2.0 0.0 0
M  V30 11 O 1.732 -1.5 0.0 0
M  V30 12 N 0.866 0.0 0.0 0
M  V30 13 C 6.9282 -1.5 0.0 0
M  V30 14 C 0.0 -0.5 0.0 0
M  V30 15 C 7.7942 -2.0 0.0 0
M  V30 16 C 6.9282 -0.5 0.0 0
M  V30 17 N -0.9135 -0.0932 0.0 0
M  V30 18 C -0.1045 -1.4945 0.0 0
M  V30 19 C 8.6602 -1.5 0.0 0
M  V30 20 C 7.7942 0.0 0.0 0
M  V30 21 N -1.5826 -0.8364 0.0 0
M  V30 22 C -1.1214 0.8848 0.0 0
M  V30 23 C -1.0826 -1.7024 0.0 0
M  V30 24 N 8.6602 -0.5 0.0 0
M  V30 25 C 9.5262 -2.0 0.0 0
M  V30 26 C -0.3783 1.554 0.0 0
M  V30 27 C -2.0725 1.1939 0.0 0
M  V30 28 C -1.4894 -2.6159 0.0 0
M  V30 29 O 10.3923 -1.5 0.0 0
M  V30 30 N 9.5262 -3.0 0.0 0
M  V30 31 C -0.5862 2.5321 0.0 0
M  V30 32 C -2.2804 2.172 0.0 0
M  V30 33 C -0.5758 -3.0227 0.0 0
M  V30 34 C -1.8961 -3.5295 0.0 0
M  V30 35 C -2.4029 -2.2092 0.0 0
M  V30 36 C 10.3923 -3.5 0.0 0
M  V30 37 C -1.5372 2.8411 0.0 0
M  V30 38 C 0.1569 3.2012 0.0 0
M  V30 39 N -1.7451 3.8193 0.0 0
M  V30 40 C -0.0509 4.1794 0.0 0
M  V30 41 C -1.002 4.4884 0.0 0
M  V30 END ATOM
M  V30 BEGIN BOND
M  V30 1 1 1 2
M  V30 2 2 2 3
M  V30 3 1 2 4
M  V30 4 1 3 5
M  V30 5 1 3 6
M  V30 6 2 4 7
M  V30 7 1 5 8
M  V30 8 2 6 9
M  V30 9 1 7 10
M  V30 10 2 8 11
M  V30 11 1 8 12
M  V30 12 1 10 13
M  V30 13 1 12 14
M  V30 14 2 13 15
M  V30 15 1 13 16
M  V30 16 1 14 17
M  V30 17 2 14 18
M  V30 18 1 15 19
M  V30 19 2 16 20
M  V30 20 1 17 21
M  V30 21 1 17 22
M  V30 22 1 18 23
M  V30 23 2 19 24
M  V30 24 1 19 25
M  V30 25 2 22 26
M  V30 26 1 22 27
M  V30 27 1 23 28
M  V30 28 2 25 29
M  V30 29 1 25 30
M  V30 30 1 26 31
M  V30 31 2 27 32
M  V30 32 1 28 33
M  V30 33 1 28 34
M  V30 34 1 28 35
M  V30 35 1 30 36
M  V30 36 1 31 37
M  V30 37 2 31 38
M  V30 38 2 37 39
M  V30 39 1 38 40
M  V30 40 1 39 41
M  V30 41 1 7 9
M  V30 42 1 20 24
M  V30 43 2 21 23
M  V30 44 1 32 37
M  V30 45 2 40 41
M  V30 END BOND
M  V30 END CTAB
M  END
>  <Molecule Name>
Compound 709

>  <Molecule Name 2>
Compound 709

>  <Compound ID>
216

>  <Name>
Rebastinib

>  <Uniprot>
P11802

>  <Target>
CDK4

>  <Smiles>
CNC(=O)C1=CC(OC2=CC=C(NC(=O)NC3=CC(C(C)(C)C)=NN3C3=CC=C4N=CC=CC4=C3)C(F)=C2)=CC=N1

>  <Kd (nM)>


>  <Assay (Kd)>


>  <Ki (nM)>


>  <Assay (Ki)>


>  <IC50 (nM)>


>  <Assay (IC50)>


>  <EC50 (nM)>


>  <Assay (EC50)>


>  <Article DOI>
10.1016/j.cell.2020.10.038

>  <Molecular Weight>
553.598

>  <Exact Mass>
553.223766

>  <XLogP3>
4.93

>  <Heavy Atom Count>
41

>  <Ring Count>
5

>  <Hydrogen Bond Acceptor Count>
7

>  <Hydrogen Bond Donor Count>
3

>  <Rotatable Bond Count>
6

>  <Topological Polar Surface Area>
123.06

>  <Molecular Formula>
C30H28FN7O3

>  <InChI>
InChI=1S/C30H28FN7O3/c1-30(2,3)26-17-27(38(37-26)19-7-9-23-18(14-19)6-5-12-33-23)36-29(40)35-24-10-8-20(15-22(24)31)41-21-11-13-34-25(16-21)28(39)32-4/h5-17H,1-4H3,(H,32,39)(H2,35,36,40)

>  <InChI Key>
WVXNSAVVKYZVOE-UHFFFAOYSA-N

>  <BindingDB>
185674

>  <PubChem>
25066467

>  <ChEMBL>
CHEMBL1738757

$$$$
216
Actelion Java MolfileCreator 2.0

  0  0  0  0  0  0              0 V3000
M  V30 BEGIN CTAB
M  V30 COUNTS 41 45 0 0 0
M  V30 BEGIN ATOM
M  V30 1 F 4.3301 0.9999 0.0 0
M  V30 2 C 4.3301 0.0 0.0 0
M  V30 3 C 3.4641 -0.5 0.0 0
M  V30 4 C 5.1961 -0.5 0.0 0
M  V30 5 N 2.598 0.0 0.0 0
M  V30 6 C 3.4641 -1.5 0.0 0
M  V30 7 C 5.1961 -1.5 0.0 0
M  V30 8 C 1.732 -0.5 0.0 0
M  V30 9 C 4.3301 -2.0 0.0 0
M  V30 10 O 6.0621 -2.0 0.0 0
M  V30 11 O 1.732 -1.5 0.0 0
M  V30 12 N 0.866 0.0 0.0 0
M  V30 13 C 6.9282 -1.5 0.0 0
M  V30 14 C 0.0 -0.5 0.0 0
M  V30 15 C 7.7942 -2.0 0.0 0
M  V30 16 C 6.9282 -0.5 0.0 0
M  V30 17 N -0.9135 -0.0932 0.0 0
M  V30 18 C -0.1045 -1.4945 0.0 0
M  V30 19 C 8.6602 -1.5 0.0 0
M  V30 20 C 7.7942 0.0 0.0 0
M  V30 21 N -1.5826 -0.8364 0.0 0
M  V30 22 C -1.1214 0.8848 0.0 0
M  V30 23 C -1.0826 -1.7024 0.0 0
M  V30 24 N 8.6602 -0.5 0.0 0
M  V30 25 C 9.5262 -2.0 0.0 0
M  V30 26 C -0.3783 1.554 0.0 0
M  V30 27 C -2.0725 1.1939 0.0 0
M  V30 28 C -1.4894 -2.6159 0.0 0
M  V30 29 O 10.3923 -1.5 0.0 0
M  V30 30 N 9.5262 -3.0 0.0 0
M  V30 31 C -0.5862 2.5321 0.0 0
M  V30 32 C -2.2804 2.172 0.0 0
M  V30 33 C -0.5758 -3.0227 0.0 0
M  V30 34 C -1.8961 -3.5295 0.0 0
M  V30 35 C -2.4029 -2.2092 0.0 0
M  V30 36 C 10.3923 -3.5 0.0 0
M  V30 37 C -1.5372 2.8411 0.0 0
M  V30 38 C 0.1569 3.2012 0.0 0
M  V30 39 N -1.7451 3.8193 0.0 0
M  V30 40 C -0.0509 4.1794 0.0 0
M  V30 41 C -1.002 4.4884 0.0 0
M  V30 END ATOM
M  V30 BEGIN BOND
M  V30 1 1 1 2
M  V30 2 2 2 3
M  V30 3 1 2 4
M  V30 4 1 3 5
M  V30 5 1 3 6
M  V30 6 2 4 7
M  V30 7 1 5 8
M  V30 8 2 6 9
M  V30 9 1 7 10
M  V30 10 2 8 11
M  V30 11 1 8 12
M  V30 12 1 10 13
M  V30 13 1 12 14
M  V30 14 2 13 15
M  V30 15 1 13 16
M  V30 16 1 14 17
M  V30 17 2 14 18
M  V30 18 1 15 19
M  V30 19 2 16 20
M  V30 20 1 17 21
M  V30 21 1 17 22
M  V30 22 1 18 23
M  V30 23 2 19 24
M  V30 24 1 19 25
M  V30 25 2 22 26
M  V30 26 1 22 27
M  V30 27 1 23 28
M  V30 28 2 25 29
M  V30 29 1 25 30
M  V30 30 1 26 31
M  V30 31 2 27 32
M  V30 32 1 28 33
M  V30 33 1 28 34
M  V30 34 1 28 35
M  V30 35 1 30 36
M  V30 36 1 31 37
M  V30 37 2 31 38
M  V30 38 2 37 39
M  V30 39 1 38 40
M  V30 40 1 39 41
M  V30 41 1 7 9
M  V30 42 1 20 24
M  V30 43 2 21 23
M  V30 44 1 32 37
M  V30 45 2 40 41
M  V30 END BOND
M  V30 END CTAB
M  END
>  <Molecule Name>
Compound 710

>  <Molecule Name 2>
Compound 710

>  <Compound ID>
216

>  <Name>
Rebastinib

>  <Uniprot>
Q00535

>  <Target>
CDK5

>  <Smiles>
CNC(=O)C1=CC(OC2=CC=C(NC(=O)NC3=CC(C(C)(C)C)=NN3C3=CC=C4N=CC=CC4=C3)C(F)=C2)=CC=N1

>  <Kd (nM)>


>  <Assay (Kd)>


>  <Ki (nM)>


>  <Assay (Ki)>


>  <IC50 (nM)>


>  <Assay (IC50)>


>  <EC50 (nM)>


>  <Assay (EC50)>


>  <Article DOI>
10.1016/j.cell.2020.10.038

>  <Molecular Weight>
553.598

>  <Exact Mass>
553.223766

>  <XLogP3>
4.93

>  <Heavy Atom Count>
41

>  <Ring Count>
5

>  <Hydrogen Bond Acceptor Count>
7

>  <Hydrogen Bond Donor Count>
3

>  <Rotatable Bond Count>
6

>  <Topological Polar Surface Area>
123.06

>  <Molecular Formula>
C30H28FN7O3

>  <InChI>
InChI=1S/C30H28FN7O3/c1-30(2,3)26-17-27(38(37-26)19-7-9-23-18(14-19)6-5-12-33-23)36-29(40)35-24-10-8-20(15-22(24)31)41-21-11-13-34-25(16-21)28(39)32-4/h5-17H,1-4H3,(H,32,39)(H2,35,36,40)

>  <InChI Key>
WVXNSAVVKYZVOE-UHFFFAOYSA-N

>  <BindingDB>
185674

>  <PubChem>
25066467

>  <ChEMBL>
CHEMBL1738757

$$$$
216
Actelion Java MolfileCreator 2.0

  0  0  0  0  0  0              0 V3000
M  V30 BEGIN CTAB
M  V30 COUNTS 41 45 0 0 0
M  V30 BEGIN ATOM
M  V30 1 F 4.3301 0.9999 0.0 0
M  V30 2 C 4.3301 0.0 0.0 0
M  V30 3 C 3.4641 -0.5 0.0 0
M  V30 4 C 5.1961 -0.5 0.0 0
M  V30 5 N 2.598 0.0 0.0 0
M  V30 6 C 3.4641 -1.5 0.0 0
M  V30 7 C 5.1961 -1.5 0.0 0
M  V30 8 C 1.732 -0.5 0.0 0
M  V30 9 C 4.3301 -2.0 0.0 0
M  V30 10 O 6.0621 -2.0 0.0 0
M  V30 11 O 1.732 -1.5 0.0 0
M  V30 12 N 0.866 0.0 0.0 0
M  V30 13 C 6.9282 -1.5 0.0 0
M  V30 14 C 0.0 -0.5 0.0 0
M  V30 15 C 7.7942 -2.0 0.0 0
M  V30 16 C 6.9282 -0.5 0.0 0
M  V30 17 N -0.9135 -0.0932 0.0 0
M  V30 18 C -0.1045 -1.4945 0.0 0
M  V30 19 C 8.6602 -1.5 0.0 0
M  V30 20 C 7.7942 0.0 0.0 0
M  V30 21 N -1.5826 -0.8364 0.0 0
M  V30 22 C -1.1214 0.8848 0.0 0
M  V30 23 C -1.0826 -1.7024 0.0 0
M  V30 24 N 8.6602 -0.5 0.0 0
M  V30 25 C 9.5262 -2.0 0.0 0
M  V30 26 C -0.3783 1.554 0.0 0
M  V30 27 C -2.0725 1.1939 0.0 0
M  V30 28 C -1.4894 -2.6159 0.0 0
M  V30 29 O 10.3923 -1.5 0.0 0
M  V30 30 N 9.5262 -3.0 0.0 0
M  V30 31 C -0.5862 2.5321 0.0 0
M  V30 32 C -2.2804 2.172 0.0 0
M  V30 33 C -0.5758 -3.0227 0.0 0
M  V30 34 C -1.8961 -3.5295 0.0 0
M  V30 35 C -2.4029 -2.2092 0.0 0
M  V30 36 C 10.3923 -3.5 0.0 0
M  V30 37 C -1.5372 2.8411 0.0 0
M  V30 38 C 0.1569 3.2012 0.0 0
M  V30 39 N -1.7451 3.8193 0.0 0
M  V30 40 C -0.0509 4.1794 0.0 0
M  V30 41 C -1.002 4.4884 0.0 0
M  V30 END ATOM
M  V30 BEGIN BOND
M  V30 1 1 1 2
M  V30 2 2 2 3
M  V30 3 1 2 4
M  V30 4 1 3 5
M  V30 5 1 3 6
M  V30 6 2 4 7
M  V30 7 1 5 8
M  V30 8 2 6 9
M  V30 9 1 7 10
M  V30 10 2 8 11
M  V30 11 1 8 12
M  V30 12 1 10 13
M  V30 13 1 12 14
M  V30 14 2 13 15
M  V30 15 1 13 16
M  V30 16 1 14 17
M  V30 17 2 14 18
M  V30 18 1 15 19
M  V30 19 2 16 20
M  V30 20 1 17 21
M  V30 21 1 17 22
M  V30 22 1 18 23
M  V30 23 2 19 24
M  V30 24 1 19 25
M  V30 25 2 22 26
M  V30 26 1 22 27
M  V30 27 1 23 28
M  V30 28 2 25 29
M  V30 29 1 25 30
M  V30 30 1 26 31
M  V30 31 2 27 32
M  V30 32 1 28 33
M  V30 33 1 28 34
M  V30 34 1 28 35
M  V30 35 1 30 36
M  V30 36 1 31 37
M  V30 37 2 31 38
M  V30 38 2 37 39
M  V30 39 1 38 40
M  V30 40 1 39 41
M  V30 41 1 7 9
M  V30 42 1 20 24
M  V30 43 2 21 23
M  V30 44 1 32 37
M  V30 45 2 40 41
M  V30 END BOND
M  V30 END CTAB
M  END
>  <Molecule Name>
Compound 711

>  <Molecule Name 2>
Compound 711

>  <Compound ID>
216

>  <Name>
Rebastinib

>  <Uniprot>
Q00534

>  <Target>
CDK6

>  <Smiles>
CNC(=O)C1=CC(OC2=CC=C(NC(=O)NC3=CC(C(C)(C)C)=NN3C3=CC=C4N=CC=CC4=C3)C(F)=C2)=CC=N1

>  <Kd (nM)>


>  <Assay (Kd)>


>  <Ki (nM)>


>  <Assay (Ki)>


>  <IC50 (nM)>


>  <Assay (IC50)>


>  <EC50 (nM)>


>  <Assay (EC50)>


>  <Article DOI>
10.1016/j.cell.2020.10.038

>  <Molecular Weight>
553.598

>  <Exact Mass>
553.223766

>  <XLogP3>
4.93

>  <Heavy Atom Count>
41

>  <Ring Count>
5

>  <Hydrogen Bond Acceptor Count>
7

>  <Hydrogen Bond Donor Count>
3

>  <Rotatable Bond Count>
6

>  <Topological Polar Surface Area>
123.06

>  <Molecular Formula>
C30H28FN7O3

>  <InChI>
InChI=1S/C30H28FN7O3/c1-30(2,3)26-17-27(38(37-26)19-7-9-23-18(14-19)6-5-12-33-23)36-29(40)35-24-10-8-20(15-22(24)31)41-21-11-13-34-25(16-21)28(39)32-4/h5-17H,1-4H3,(H,32,39)(H2,35,36,40)

>  <InChI Key>
WVXNSAVVKYZVOE-UHFFFAOYSA-N

>  <BindingDB>
185674

>  <PubChem>
25066467

>  <ChEMBL>
CHEMBL1738757

$$$$
216
Actelion Java MolfileCreator 2.0

  0  0  0  0  0  0              0 V3000
M  V30 BEGIN CTAB
M  V30 COUNTS 41 45 0 0 0
M  V30 BEGIN ATOM
M  V30 1 F 4.3301 0.9999 0.0 0
M  V30 2 C 4.3301 0.0 0.0 0
M  V30 3 C 3.4641 -0.5 0.0 0
M  V30 4 C 5.1961 -0.5 0.0 0
M  V30 5 N 2.598 0.0 0.0 0
M  V30 6 C 3.4641 -1.5 0.0 0
M  V30 7 C 5.1961 -1.5 0.0 0
M  V30 8 C 1.732 -0.5 0.0 0
M  V30 9 C 4.3301 -2.0 0.0 0
M  V30 10 O 6.0621 -2.0 0.0 0
M  V30 11 O 1.732 -1.5 0.0 0
M  V30 12 N 0.866 0.0 0.0 0
M  V30 13 C 6.9282 -1.5 0.0 0
M  V30 14 C 0.0 -0.5 0.0 0
M  V30 15 C 7.7942 -2.0 0.0 0
M  V30 16 C 6.9282 -0.5 0.0 0
M  V30 17 N -0.9135 -0.0932 0.0 0
M  V30 18 C -0.1045 -1.4945 0.0 0
M  V30 19 C 8.6602 -1.5 0.0 0
M  V30 20 C 7.7942 0.0 0.0 0
M  V30 21 N -1.5826 -0.8364 0.0 0
M  V30 22 C -1.1214 0.8848 0.0 0
M  V30 23 C -1.0826 -1.7024 0.0 0
M  V30 24 N 8.6602 -0.5 0.0 0
M  V30 25 C 9.5262 -2.0 0.0 0
M  V30 26 C -0.3783 1.554 0.0 0
M  V30 27 C -2.0725 1.1939 0.0 0
M  V30 28 C -1.4894 -2.6159 0.0 0
M  V30 29 O 10.3923 -1.5 0.0 0
M  V30 30 N 9.5262 -3.0 0.0 0
M  V30 31 C -0.5862 2.5321 0.0 0
M  V30 32 C -2.2804 2.172 0.0 0
M  V30 33 C -0.5758 -3.0227 0.0 0
M  V30 34 C -1.8961 -3.5295 0.0 0
M  V30 35 C -2.4029 -2.2092 0.0 0
M  V30 36 C 10.3923 -3.5 0.0 0
M  V30 37 C -1.5372 2.8411 0.0 0
M  V30 38 C 0.1569 3.2012 0.0 0
M  V30 39 N -1.7451 3.8193 0.0 0
M  V30 40 C -0.0509 4.1794 0.0 0
M  V30 41 C -1.002 4.4884 0.0 0
M  V30 END ATOM
M  V30 BEGIN BOND
M  V30 1 1 1 2
M  V30 2 2 2 3
M  V30 3 1 2 4
M  V30 4 1 3 5
M  V30 5 1 3 6
M  V30 6 2 4 7
M  V30 7 1 5 8
M  V30 8 2 6 9
M  V30 9 1 7 10
M  V30 10 2 8 11
M  V30 11 1 8 12
M  V30 12 1 10 13
M  V30 13 1 12 14
M  V30 14 2 13 15
M  V30 15 1 13 16
M  V30 16 1 14 17
M  V30 17 2 14 18
M  V30 18 1 15 19
M  V30 19 2 16 20
M  V30 20 1 17 21
M  V30 21 1 17 22
M  V30 22 1 18 23
M  V30 23 2 19 24
M  V30 24 1 19 25
M  V30 25 2 22 26
M  V30 26 1 22 27
M  V30 27 1 23 28
M  V30 28 2 25 29
M  V30 29 1 25 30
M  V30 30 1 26 31
M  V30 31 2 27 32
M  V30 32 1 28 33
M  V30 33 1 28 34
M  V30 34 1 28 35
M  V30 35 1 30 36
M  V30 36 1 31 37
M  V30 37 2 31 38
M  V30 38 2 37 39
M  V30 39 1 38 40
M  V30 40 1 39 41
M  V30 41 1 7 9
M  V30 42 1 20 24
M  V30 43 2 21 23
M  V30 44 1 32 37
M  V30 45 2 40 41
M  V30 END BOND
M  V30 END CTAB
M  END
>  <Molecule Name>
Compound 712

>  <Molecule Name 2>
Compound 712

>  <Compound ID>
216

>  <Name>
Rebastinib

>  <Uniprot>
P50613

>  <Target>
CDK7

>  <Smiles>
CNC(=O)C1=CC(OC2=CC=C(NC(=O)NC3=CC(C(C)(C)C)=NN3C3=CC=C4N=CC=CC4=C3)C(F)=C2)=CC=N1

>  <Kd (nM)>


>  <Assay (Kd)>


>  <Ki (nM)>


>  <Assay (Ki)>


>  <IC50 (nM)>


>  <Assay (IC50)>


>  <EC50 (nM)>


>  <Assay (EC50)>


>  <Article DOI>
10.1016/j.cell.2020.10.038

>  <Molecular Weight>
553.598

>  <Exact Mass>
553.223766

>  <XLogP3>
4.93

>  <Heavy Atom Count>
41

>  <Ring Count>
5

>  <Hydrogen Bond Acceptor Count>
7

>  <Hydrogen Bond Donor Count>
3

>  <Rotatable Bond Count>
6

>  <Topological Polar Surface Area>
123.06

>  <Molecular Formula>
C30H28FN7O3

>  <InChI>
InChI=1S/C30H28FN7O3/c1-30(2,3)26-17-27(38(37-26)19-7-9-23-18(14-19)6-5-12-33-23)36-29(40)35-24-10-8-20(15-22(24)31)41-21-11-13-34-25(16-21)28(39)32-4/h5-17H,1-4H3,(H,32,39)(H2,35,36,40)

>  <InChI Key>
WVXNSAVVKYZVOE-UHFFFAOYSA-N

>  <BindingDB>
185674

>  <PubChem>
25066467

>  <ChEMBL>
CHEMBL1738757

$$$$
216
Actelion Java MolfileCreator 2.0

  0  0  0  0  0  0              0 V3000
M  V30 BEGIN CTAB
M  V30 COUNTS 41 45 0 0 0
M  V30 BEGIN ATOM
M  V30 1 F 4.3301 0.9999 0.0 0
M  V30 2 C 4.3301 0.0 0.0 0
M  V30 3 C 3.4641 -0.5 0.0 0
M  V30 4 C 5.1961 -0.5 0.0 0
M  V30 5 N 2.598 0.0 0.0 0
M  V30 6 C 3.4641 -1.5 0.0 0
M  V30 7 C 5.1961 -1.5 0.0 0
M  V30 8 C 1.732 -0.5 0.0 0
M  V30 9 C 4.3301 -2.0 0.0 0
M  V30 10 O 6.0621 -2.0 0.0 0
M  V30 11 O 1.732 -1.5 0.0 0
M  V30 12 N 0.866 0.0 0.0 0
M  V30 13 C 6.9282 -1.5 0.0 0
M  V30 14 C 0.0 -0.5 0.0 0
M  V30 15 C 7.7942 -2.0 0.0 0
M  V30 16 C 6.9282 -0.5 0.0 0
M  V30 17 N -0.9135 -0.0932 0.0 0
M  V30 18 C -0.1045 -1.4945 0.0 0
M  V30 19 C 8.6602 -1.5 0.0 0
M  V30 20 C 7.7942 0.0 0.0 0
M  V30 21 N -1.5826 -0.8364 0.0 0
M  V30 22 C -1.1214 0.8848 0.0 0
M  V30 23 C -1.0826 -1.7024 0.0 0
M  V30 24 N 8.6602 -0.5 0.0 0
M  V30 25 C 9.5262 -2.0 0.0 0
M  V30 26 C -0.3783 1.554 0.0 0
M  V30 27 C -2.0725 1.1939 0.0 0
M  V30 28 C -1.4894 -2.6159 0.0 0
M  V30 29 O 10.3923 -1.5 0.0 0
M  V30 30 N 9.5262 -3.0 0.0 0
M  V30 31 C -0.5862 2.5321 0.0 0
M  V30 32 C -2.2804 2.172 0.0 0
M  V30 33 C -0.5758 -3.0227 0.0 0
M  V30 34 C -1.8961 -3.5295 0.0 0
M  V30 35 C -2.4029 -2.2092 0.0 0
M  V30 36 C 10.3923 -3.5 0.0 0
M  V30 37 C -1.5372 2.8411 0.0 0
M  V30 38 C 0.1569 3.2012 0.0 0
M  V30 39 N -1.7451 3.8193 0.0 0
M  V30 40 C -0.0509 4.1794 0.0 0
M  V30 41 C -1.002 4.4884 0.0 0
M  V30 END ATOM
M  V30 BEGIN BOND
M  V30 1 1 1 2
M  V30 2 2 2 3
M  V30 3 1 2 4
M  V30 4 1 3 5
M  V30 5 1 3 6
M  V30 6 2 4 7
M  V30 7 1 5 8
M  V30 8 2 6 9
M  V30 9 1 7 10
M  V30 10 2 8 11
M  V30 11 1 8 12
M  V30 12 1 10 13
M  V30 13 1 12 14
M  V30 14 2 13 15
M  V30 15 1 13 16
M  V30 16 1 14 17
M  V30 17 2 14 18
M  V30 18 1 15 19
M  V30 19 2 16 20
M  V30 20 1 17 21
M  V30 21 1 17 22
M  V30 22 1 18 23
M  V30 23 2 19 24
M  V30 24 1 19 25
M  V30 25 2 22 26
M  V30 26 1 22 27
M  V30 27 1 23 28
M  V30 28 2 25 29
M  V30 29 1 25 30
M  V30 30 1 26 31
M  V30 31 2 27 32
M  V30 32 1 28 33
M  V30 33 1 28 34
M  V30 34 1 28 35
M  V30 35 1 30 36
M  V30 36 1 31 37
M  V30 37 2 31 38
M  V30 38 2 37 39
M  V30 39 1 38 40
M  V30 40 1 39 41
M  V30 41 1 7 9
M  V30 42 1 20 24
M  V30 43 2 21 23
M  V30 44 1 32 37
M  V30 45 2 40 41
M  V30 END BOND
M  V30 END CTAB
M  END
>  <Molecule Name>
Compound 713

>  <Molecule Name 2>
Compound 713

>  <Compound ID>
216

>  <Name>
Rebastinib

>  <Uniprot>
P50750

>  <Target>
CDK9

>  <Smiles>
CNC(=O)C1=CC(OC2=CC=C(NC(=O)NC3=CC(C(C)(C)C)=NN3C3=CC=C4N=CC=CC4=C3)C(F)=C2)=CC=N1

>  <Kd (nM)>


>  <Assay (Kd)>


>  <Ki (nM)>


>  <Assay (Ki)>


>  <IC50 (nM)>


>  <Assay (IC50)>


>  <EC50 (nM)>


>  <Assay (EC50)>


>  <Article DOI>
10.1016/j.cell.2020.10.038

>  <Molecular Weight>
553.598

>  <Exact Mass>
553.223766

>  <XLogP3>
4.93

>  <Heavy Atom Count>
41

>  <Ring Count>
5

>  <Hydrogen Bond Acceptor Count>
7

>  <Hydrogen Bond Donor Count>
3

>  <Rotatable Bond Count>
6

>  <Topological Polar Surface Area>
123.06

>  <Molecular Formula>
C30H28FN7O3

>  <InChI>
InChI=1S/C30H28FN7O3/c1-30(2,3)26-17-27(38(37-26)19-7-9-23-18(14-19)6-5-12-33-23)36-29(40)35-24-10-8-20(15-22(24)31)41-21-11-13-34-25(16-21)28(39)32-4/h5-17H,1-4H3,(H,32,39)(H2,35,36,40)

>  <InChI Key>
WVXNSAVVKYZVOE-UHFFFAOYSA-N

>  <BindingDB>
185674

>  <PubChem>
25066467

>  <ChEMBL>
CHEMBL1738757

$$$$
216
Actelion Java MolfileCreator 2.0

  0  0  0  0  0  0              0 V3000
M  V30 BEGIN CTAB
M  V30 COUNTS 41 45 0 0 0
M  V30 BEGIN ATOM
M  V30 1 F 4.3301 0.9999 0.0 0
M  V30 2 C 4.3301 0.0 0.0 0
M  V30 3 C 3.4641 -0.5 0.0 0
M  V30 4 C 5.1961 -0.5 0.0 0
M  V30 5 N 2.598 0.0 0.0 0
M  V30 6 C 3.4641 -1.5 0.0 0
M  V30 7 C 5.1961 -1.5 0.0 0
M  V30 8 C 1.732 -0.5 0.0 0
M  V30 9 C 4.3301 -2.0 0.0 0
M  V30 10 O 6.0621 -2.0 0.0 0
M  V30 11 O 1.732 -1.5 0.0 0
M  V30 12 N 0.866 0.0 0.0 0
M  V30 13 C 6.9282 -1.5 0.0 0
M  V30 14 C 0.0 -0.5 0.0 0
M  V30 15 C 7.7942 -2.0 0.0 0
M  V30 16 C 6.9282 -0.5 0.0 0
M  V30 17 N -0.9135 -0.0932 0.0 0
M  V30 18 C -0.1045 -1.4945 0.0 0
M  V30 19 C 8.6602 -1.5 0.0 0
M  V30 20 C 7.7942 0.0 0.0 0
M  V30 21 N -1.5826 -0.8364 0.0 0
M  V30 22 C -1.1214 0.8848 0.0 0
M  V30 23 C -1.0826 -1.7024 0.0 0
M  V30 24 N 8.6602 -0.5 0.0 0
M  V30 25 C 9.5262 -2.0 0.0 0
M  V30 26 C -0.3783 1.554 0.0 0
M  V30 27 C -2.0725 1.1939 0.0 0
M  V30 28 C -1.4894 -2.6159 0.0 0
M  V30 29 O 10.3923 -1.5 0.0 0
M  V30 30 N 9.5262 -3.0 0.0 0
M  V30 31 C -0.5862 2.5321 0.0 0
M  V30 32 C -2.2804 2.172 0.0 0
M  V30 33 C -0.5758 -3.0227 0.0 0
M  V30 34 C -1.8961 -3.5295 0.0 0
M  V30 35 C -2.4029 -2.2092 0.0 0
M  V30 36 C 10.3923 -3.5 0.0 0
M  V30 37 C -1.5372 2.8411 0.0 0
M  V30 38 C 0.1569 3.2012 0.0 0
M  V30 39 N -1.7451 3.8193 0.0 0
M  V30 40 C -0.0509 4.1794 0.0 0
M  V30 41 C -1.002 4.4884 0.0 0
M  V30 END ATOM
M  V30 BEGIN BOND
M  V30 1 1 1 2
M  V30 2 2 2 3
M  V30 3 1 2 4
M  V30 4 1 3 5
M  V30 5 1 3 6
M  V30 6 2 4 7
M  V30 7 1 5 8
M  V30 8 2 6 9
M  V30 9 1 7 10
M  V30 10 2 8 11
M  V30 11 1 8 12
M  V30 12 1 10 13
M  V30 13 1 12 14
M  V30 14 2 13 15
M  V30 15 1 13 16
M  V30 16 1 14 17
M  V30 17 2 14 18
M  V30 18 1 15 19
M  V30 19 2 16 20
M  V30 20 1 17 21
M  V30 21 1 17 22
M  V30 22 1 18 23
M  V30 23 2 19 24
M  V30 24 1 19 25
M  V30 25 2 22 26
M  V30 26 1 22 27
M  V30 27 1 23 28
M  V30 28 2 25 29
M  V30 29 1 25 30
M  V30 30 1 26 31
M  V30 31 2 27 32
M  V30 32 1 28 33
M  V30 33 1 28 34
M  V30 34 1 28 35
M  V30 35 1 30 36
M  V30 36 1 31 37
M  V30 37 2 31 38
M  V30 38 2 37 39
M  V30 39 1 38 40
M  V30 40 1 39 41
M  V30 41 1 7 9
M  V30 42 1 20 24
M  V30 43 2 21 23
M  V30 44 1 32 37
M  V30 45 2 40 41
M  V30 END BOND
M  V30 END CTAB
M  END
>  <Molecule Name>
Compound 714

>  <Molecule Name 2>
Compound 714

>  <Compound ID>
216

>  <Name>
Rebastinib

>  <Uniprot>
P16591

>  <Target>
FER

>  <Smiles>
CNC(=O)C1=CC(OC2=CC=C(NC(=O)NC3=CC(C(C)(C)C)=NN3C3=CC=C4N=CC=CC4=C3)C(F)=C2)=CC=N1

>  <Kd (nM)>
1223

>  <Assay (Kd)>
Kd apparent of FER

>  <Ki (nM)>


>  <Assay (Ki)>


>  <IC50 (nM)>


>  <Assay (IC50)>


>  <EC50 (nM)>


>  <Assay (EC50)>


>  <Article DOI>
10.1126/science.aan4368

>  <Molecular Weight>
553.598

>  <Exact Mass>
553.223766

>  <XLogP3>
4.93

>  <Heavy Atom Count>
41

>  <Ring Count>
5

>  <Hydrogen Bond Acceptor Count>
7

>  <Hydrogen Bond Donor Count>
3

>  <Rotatable Bond Count>
6

>  <Topological Polar Surface Area>
123.06

>  <Molecular Formula>
C30H28FN7O3

>  <InChI>
InChI=1S/C30H28FN7O3/c1-30(2,3)26-17-27(38(37-26)19-7-9-23-18(14-19)6-5-12-33-23)36-29(40)35-24-10-8-20(15-22(24)31)41-21-11-13-34-25(16-21)28(39)32-4/h5-17H,1-4H3,(H,32,39)(H2,35,36,40)

>  <InChI Key>
WVXNSAVVKYZVOE-UHFFFAOYSA-N

>  <BindingDB>
185674

>  <PubChem>
25066467

>  <ChEMBL>
CHEMBL1738757

$$$$
216
Actelion Java MolfileCreator 2.0

  0  0  0  0  0  0              0 V3000
M  V30 BEGIN CTAB
M  V30 COUNTS 41 45 0 0 0
M  V30 BEGIN ATOM
M  V30 1 F 4.3301 0.9999 0.0 0
M  V30 2 C 4.3301 0.0 0.0 0
M  V30 3 C 3.4641 -0.5 0.0 0
M  V30 4 C 5.1961 -0.5 0.0 0
M  V30 5 N 2.598 0.0 0.0 0
M  V30 6 C 3.4641 -1.5 0.0 0
M  V30 7 C 5.1961 -1.5 0.0 0
M  V30 8 C 1.732 -0.5 0.0 0
M  V30 9 C 4.3301 -2.0 0.0 0
M  V30 10 O 6.0621 -2.0 0.0 0
M  V30 11 O 1.732 -1.5 0.0 0
M  V30 12 N 0.866 0.0 0.0 0
M  V30 13 C 6.9282 -1.5 0.0 0
M  V30 14 C 0.0 -0.5 0.0 0
M  V30 15 C 7.7942 -2.0 0.0 0
M  V30 16 C 6.9282 -0.5 0.0 0
M  V30 17 N -0.9135 -0.0932 0.0 0
M  V30 18 C -0.1045 -1.4945 0.0 0
M  V30 19 C 8.6602 -1.5 0.0 0
M  V30 20 C 7.7942 0.0 0.0 0
M  V30 21 N -1.5826 -0.8364 0.0 0
M  V30 22 C -1.1214 0.8848 0.0 0
M  V30 23 C -1.0826 -1.7024 0.0 0
M  V30 24 N 8.6602 -0.5 0.0 0
M  V30 25 C 9.5262 -2.0 0.0 0
M  V30 26 C -0.3783 1.554 0.0 0
M  V30 27 C -2.0725 1.1939 0.0 0
M  V30 28 C -1.4894 -2.6159 0.0 0
M  V30 29 O 10.3923 -1.5 0.0 0
M  V30 30 N 9.5262 -3.0 0.0 0
M  V30 31 C -0.5862 2.5321 0.0 0
M  V30 32 C -2.2804 2.172 0.0 0
M  V30 33 C -0.5758 -3.0227 0.0 0
M  V30 34 C -1.8961 -3.5295 0.0 0
M  V30 35 C -2.4029 -2.2092 0.0 0
M  V30 36 C 10.3923 -3.5 0.0 0
M  V30 37 C -1.5372 2.8411 0.0 0
M  V30 38 C 0.1569 3.2012 0.0 0
M  V30 39 N -1.7451 3.8193 0.0 0
M  V30 40 C -0.0509 4.1794 0.0 0
M  V30 41 C -1.002 4.4884 0.0 0
M  V30 END ATOM
M  V30 BEGIN BOND
M  V30 1 1 1 2
M  V30 2 2 2 3
M  V30 3 1 2 4
M  V30 4 1 3 5
M  V30 5 1 3 6
M  V30 6 2 4 7
M  V30 7 1 5 8
M  V30 8 2 6 9
M  V30 9 1 7 10
M  V30 10 2 8 11
M  V30 11 1 8 12
M  V30 12 1 10 13
M  V30 13 1 12 14
M  V30 14 2 13 15
M  V30 15 1 13 16
M  V30 16 1 14 17
M  V30 17 2 14 18
M  V30 18 1 15 19
M  V30 19 2 16 20
M  V30 20 1 17 21
M  V30 21 1 17 22
M  V30 22 1 18 23
M  V30 23 2 19 24
M  V30 24 1 19 25
M  V30 25 2 22 26
M  V30 26 1 22 27
M  V30 27 1 23 28
M  V30 28 2 25 29
M  V30 29 1 25 30
M  V30 30 1 26 31
M  V30 31 2 27 32
M  V30 32 1 28 33
M  V30 33 1 28 34
M  V30 34 1 28 35
M  V30 35 1 30 36
M  V30 36 1 31 37
M  V30 37 2 31 38
M  V30 38 2 37 39
M  V30 39 1 38 40
M  V30 40 1 39 41
M  V30 41 1 7 9
M  V30 42 1 20 24
M  V30 43 2 21 23
M  V30 44 1 32 37
M  V30 45 2 40 41
M  V30 END BOND
M  V30 END CTAB
M  END
>  <Molecule Name>
Compound 715

>  <Molecule Name 2>
Compound 715

>  <Compound ID>
216

>  <Name>
Rebastinib

>  <Uniprot>
Q08881

>  <Target>
ITK

>  <Smiles>
CNC(=O)C1=CC(OC2=CC=C(NC(=O)NC3=CC(C(C)(C)C)=NN3C3=CC=C4N=CC=CC4=C3)C(F)=C2)=CC=N1

>  <Kd (nM)>


>  <Assay (Kd)>


>  <Ki (nM)>


>  <Assay (Ki)>


>  <IC50 (nM)>


>  <Assay (IC50)>


>  <EC50 (nM)>


>  <Assay (EC50)>


>  <Article DOI>
10.1016/j.cell.2020.10.038

>  <Molecular Weight>
553.598

>  <Exact Mass>
553.223766

>  <XLogP3>
4.93

>  <Heavy Atom Count>
41

>  <Ring Count>
5

>  <Hydrogen Bond Acceptor Count>
7

>  <Hydrogen Bond Donor Count>
3

>  <Rotatable Bond Count>
6

>  <Topological Polar Surface Area>
123.06

>  <Molecular Formula>
C30H28FN7O3

>  <InChI>
InChI=1S/C30H28FN7O3/c1-30(2,3)26-17-27(38(37-26)19-7-9-23-18(14-19)6-5-12-33-23)36-29(40)35-24-10-8-20(15-22(24)31)41-21-11-13-34-25(16-21)28(39)32-4/h5-17H,1-4H3,(H,32,39)(H2,35,36,40)

>  <InChI Key>
WVXNSAVVKYZVOE-UHFFFAOYSA-N

>  <BindingDB>
185674

>  <PubChem>
25066467

>  <ChEMBL>
CHEMBL1738757

$$$$
216
Actelion Java MolfileCreator 2.0

  0  0  0  0  0  0              0 V3000
M  V30 BEGIN CTAB
M  V30 COUNTS 41 45 0 0 0
M  V30 BEGIN ATOM
M  V30 1 F 4.3301 0.9999 0.0 0
M  V30 2 C 4.3301 0.0 0.0 0
M  V30 3 C 3.4641 -0.5 0.0 0
M  V30 4 C 5.1961 -0.5 0.0 0
M  V30 5 N 2.598 0.0 0.0 0
M  V30 6 C 3.4641 -1.5 0.0 0
M  V30 7 C 5.1961 -1.5 0.0 0
M  V30 8 C 1.732 -0.5 0.0 0
M  V30 9 C 4.3301 -2.0 0.0 0
M  V30 10 O 6.0621 -2.0 0.0 0
M  V30 11 O 1.732 -1.5 0.0 0
M  V30 12 N 0.866 0.0 0.0 0
M  V30 13 C 6.9282 -1.5 0.0 0
M  V30 14 C 0.0 -0.5 0.0 0
M  V30 15 C 7.7942 -2.0 0.0 0
M  V30 16 C 6.9282 -0.5 0.0 0
M  V30 17 N -0.9135 -0.0932 0.0 0
M  V30 18 C -0.1045 -1.4945 0.0 0
M  V30 19 C 8.6602 -1.5 0.0 0
M  V30 20 C 7.7942 0.0 0.0 0
M  V30 21 N -1.5826 -0.8364 0.0 0
M  V30 22 C -1.1214 0.8848 0.0 0
M  V30 23 C -1.0826 -1.7024 0.0 0
M  V30 24 N 8.6602 -0.5 0.0 0
M  V30 25 C 9.5262 -2.0 0.0 0
M  V30 26 C -0.3783 1.554 0.0 0
M  V30 27 C -2.0725 1.1939 0.0 0
M  V30 28 C -1.4894 -2.6159 0.0 0
M  V30 29 O 10.3923 -1.5 0.0 0
M  V30 30 N 9.5262 -3.0 0.0 0
M  V30 31 C -0.5862 2.5321 0.0 0
M  V30 32 C -2.2804 2.172 0.0 0
M  V30 33 C -0.5758 -3.0227 0.0 0
M  V30 34 C -1.8961 -3.5295 0.0 0
M  V30 35 C -2.4029 -2.2092 0.0 0
M  V30 36 C 10.3923 -3.5 0.0 0
M  V30 37 C -1.5372 2.8411 0.0 0
M  V30 38 C 0.1569 3.2012 0.0 0
M  V30 39 N -1.7451 3.8193 0.0 0
M  V30 40 C -0.0509 4.1794 0.0 0
M  V30 41 C -1.002 4.4884 0.0 0
M  V30 END ATOM
M  V30 BEGIN BOND
M  V30 1 1 1 2
M  V30 2 2 2 3
M  V30 3 1 2 4
M  V30 4 1 3 5
M  V30 5 1 3 6
M  V30 6 2 4 7
M  V30 7 1 5 8
M  V30 8 2 6 9
M  V30 9 1 7 10
M  V30 10 2 8 11
M  V30 11 1 8 12
M  V30 12 1 10 13
M  V30 13 1 12 14
M  V30 14 2 13 15
M  V30 15 1 13 16
M  V30 16 1 14 17
M  V30 17 2 14 18
M  V30 18 1 15 19
M  V30 19 2 16 20
M  V30 20 1 17 21
M  V30 21 1 17 22
M  V30 22 1 18 23
M  V30 23 2 19 24
M  V30 24 1 19 25
M  V30 25 2 22 26
M  V30 26 1 22 27
M  V30 27 1 23 28
M  V30 28 2 25 29
M  V30 29 1 25 30
M  V30 30 1 26 31
M  V30 31 2 27 32
M  V30 32 1 28 33
M  V30 33 1 28 34
M  V30 34 1 28 35
M  V30 35 1 30 36
M  V30 36 1 31 37
M  V30 37 2 31 38
M  V30 38 2 37 39
M  V30 39 1 38 40
M  V30 40 1 39 41
M  V30 41 1 7 9
M  V30 42 1 20 24
M  V30 43 2 21 23
M  V30 44 1 32 37
M  V30 45 2 40 41
M  V30 END BOND
M  V30 END CTAB
M  END
>  <Molecule Name>
Compound 716

>  <Molecule Name 2>
Compound 716

>  <Compound ID>
216

>  <Name>
Rebastinib

>  <Uniprot>
P06239

>  <Target>
LCK

>  <Smiles>
CNC(=O)C1=CC(OC2=CC=C(NC(=O)NC3=CC(C(C)(C)C)=NN3C3=CC=C4N=CC=CC4=C3)C(F)=C2)=CC=N1

>  <Kd (nM)>
180

>  <Assay (Kd)>
Kd apparent of LCK

>  <Ki (nM)>


>  <Assay (Ki)>


>  <IC50 (nM)>


>  <Assay (IC50)>


>  <EC50 (nM)>


>  <Assay (EC50)>


>  <Article DOI>
10.1126/science.aan4368

>  <Molecular Weight>
553.598

>  <Exact Mass>
553.223766

>  <XLogP3>
4.93

>  <Heavy Atom Count>
41

>  <Ring Count>
5

>  <Hydrogen Bond Acceptor Count>
7

>  <Hydrogen Bond Donor Count>
3

>  <Rotatable Bond Count>
6

>  <Topological Polar Surface Area>
123.06

>  <Molecular Formula>
C30H28FN7O3

>  <InChI>
InChI=1S/C30H28FN7O3/c1-30(2,3)26-17-27(38(37-26)19-7-9-23-18(14-19)6-5-12-33-23)36-29(40)35-24-10-8-20(15-22(24)31)41-21-11-13-34-25(16-21)28(39)32-4/h5-17H,1-4H3,(H,32,39)(H2,35,36,40)

>  <InChI Key>
WVXNSAVVKYZVOE-UHFFFAOYSA-N

>  <BindingDB>
185674

>  <PubChem>
25066467

>  <ChEMBL>
CHEMBL1738757

$$$$
216
Actelion Java MolfileCreator 2.0

  0  0  0  0  0  0              0 V3000
M  V30 BEGIN CTAB
M  V30 COUNTS 41 45 0 0 0
M  V30 BEGIN ATOM
M  V30 1 F 4.3301 0.9999 0.0 0
M  V30 2 C 4.3301 0.0 0.0 0
M  V30 3 C 3.4641 -0.5 0.0 0
M  V30 4 C 5.1961 -0.5 0.0 0
M  V30 5 N 2.598 0.0 0.0 0
M  V30 6 C 3.4641 -1.5 0.0 0
M  V30 7 C 5.1961 -1.5 0.0 0
M  V30 8 C 1.732 -0.5 0.0 0
M  V30 9 C 4.3301 -2.0 0.0 0
M  V30 10 O 6.0621 -2.0 0.0 0
M  V30 11 O 1.732 -1.5 0.0 0
M  V30 12 N 0.866 0.0 0.0 0
M  V30 13 C 6.9282 -1.5 0.0 0
M  V30 14 C 0.0 -0.5 0.0 0
M  V30 15 C 7.7942 -2.0 0.0 0
M  V30 16 C 6.9282 -0.5 0.0 0
M  V30 17 N -0.9135 -0.0932 0.0 0
M  V30 18 C -0.1045 -1.4945 0.0 0
M  V30 19 C 8.6602 -1.5 0.0 0
M  V30 20 C 7.7942 0.0 0.0 0
M  V30 21 N -1.5826 -0.8364 0.0 0
M  V30 22 C -1.1214 0.8848 0.0 0
M  V30 23 C -1.0826 -1.7024 0.0 0
M  V30 24 N 8.6602 -0.5 0.0 0
M  V30 25 C 9.5262 -2.0 0.0 0
M  V30 26 C -0.3783 1.554 0.0 0
M  V30 27 C -2.0725 1.1939 0.0 0
M  V30 28 C -1.4894 -2.6159 0.0 0
M  V30 29 O 10.3923 -1.5 0.0 0
M  V30 30 N 9.5262 -3.0 0.0 0
M  V30 31 C -0.5862 2.5321 0.0 0
M  V30 32 C -2.2804 2.172 0.0 0
M  V30 33 C -0.5758 -3.0227 0.0 0
M  V30 34 C -1.8961 -3.5295 0.0 0
M  V30 35 C -2.4029 -2.2092 0.0 0
M  V30 36 C 10.3923 -3.5 0.0 0
M  V30 37 C -1.5372 2.8411 0.0 0
M  V30 38 C 0.1569 3.2012 0.0 0
M  V30 39 N -1.7451 3.8193 0.0 0
M  V30 40 C -0.0509 4.1794 0.0 0
M  V30 41 C -1.002 4.4884 0.0 0
M  V30 END ATOM
M  V30 BEGIN BOND
M  V30 1 1 1 2
M  V30 2 2 2 3
M  V30 3 1 2 4
M  V30 4 1 3 5
M  V30 5 1 3 6
M  V30 6 2 4 7
M  V30 7 1 5 8
M  V30 8 2 6 9
M  V30 9 1 7 10
M  V30 10 2 8 11
M  V30 11 1 8 12
M  V30 12 1 10 13
M  V30 13 1 12 14
M  V30 14 2 13 15
M  V30 15 1 13 16
M  V30 16 1 14 17
M  V30 17 2 14 18
M  V30 18 1 15 19
M  V30 19 2 16 20
M  V30 20 1 17 21
M  V30 21 1 17 22
M  V30 22 1 18 23
M  V30 23 2 19 24
M  V30 24 1 19 25
M  V30 25 2 22 26
M  V30 26 1 22 27
M  V30 27 1 23 28
M  V30 28 2 25 29
M  V30 29 1 25 30
M  V30 30 1 26 31
M  V30 31 2 27 32
M  V30 32 1 28 33
M  V30 33 1 28 34
M  V30 34 1 28 35
M  V30 35 1 30 36
M  V30 36 1 31 37
M  V30 37 2 31 38
M  V30 38 2 37 39
M  V30 39 1 38 40
M  V30 40 1 39 41
M  V30 41 1 7 9
M  V30 42 1 20 24
M  V30 43 2 21 23
M  V30 44 1 32 37
M  V30 45 2 40 41
M  V30 END BOND
M  V30 END CTAB
M  END
>  <Molecule Name>
Compound 717

>  <Molecule Name 2>
Compound 717

>  <Compound ID>
216

>  <Name>
Rebastinib

>  <Uniprot>
P53667

>  <Target>
LIMK1

>  <Smiles>
CNC(=O)C1=CC(OC2=CC=C(NC(=O)NC3=CC(C(C)(C)C)=NN3C3=CC=C4N=CC=CC4=C3)C(F)=C2)=CC=N1

>  <Kd (nM)>


>  <Assay (Kd)>


>  <Ki (nM)>


>  <Assay (Ki)>


>  <IC50 (nM)>


>  <Assay (IC50)>


>  <EC50 (nM)>


>  <Assay (EC50)>


>  <Article DOI>
10.1016/j.cell.2020.10.038

>  <Molecular Weight>
553.598

>  <Exact Mass>
553.223766

>  <XLogP3>
4.93

>  <Heavy Atom Count>
41

>  <Ring Count>
5

>  <Hydrogen Bond Acceptor Count>
7

>  <Hydrogen Bond Donor Count>
3

>  <Rotatable Bond Count>
6

>  <Topological Polar Surface Area>
123.06

>  <Molecular Formula>
C30H28FN7O3

>  <InChI>
InChI=1S/C30H28FN7O3/c1-30(2,3)26-17-27(38(37-26)19-7-9-23-18(14-19)6-5-12-33-23)36-29(40)35-24-10-8-20(15-22(24)31)41-21-11-13-34-25(16-21)28(39)32-4/h5-17H,1-4H3,(H,32,39)(H2,35,36,40)

>  <InChI Key>
WVXNSAVVKYZVOE-UHFFFAOYSA-N

>  <BindingDB>
185674

>  <PubChem>
25066467

>  <ChEMBL>
CHEMBL1738757

$$$$
216
Actelion Java MolfileCreator 2.0

  0  0  0  0  0  0              0 V3000
M  V30 BEGIN CTAB
M  V30 COUNTS 41 45 0 0 0
M  V30 BEGIN ATOM
M  V30 1 F 4.3301 0.9999 0.0 0
M  V30 2 C 4.3301 0.0 0.0 0
M  V30 3 C 3.4641 -0.5 0.0 0
M  V30 4 C 5.1961 -0.5 0.0 0
M  V30 5 N 2.598 0.0 0.0 0
M  V30 6 C 3.4641 -1.5 0.0 0
M  V30 7 C 5.1961 -1.5 0.0 0
M  V30 8 C 1.732 -0.5 0.0 0
M  V30 9 C 4.3301 -2.0 0.0 0
M  V30 10 O 6.0621 -2.0 0.0 0
M  V30 11 O 1.732 -1.5 0.0 0
M  V30 12 N 0.866 0.0 0.0 0
M  V30 13 C 6.9282 -1.5 0.0 0
M  V30 14 C 0.0 -0.5 0.0 0
M  V30 15 C 7.7942 -2.0 0.0 0
M  V30 16 C 6.9282 -0.5 0.0 0
M  V30 17 N -0.9135 -0.0932 0.0 0
M  V30 18 C -0.1045 -1.4945 0.0 0
M  V30 19 C 8.6602 -1.5 0.0 0
M  V30 20 C 7.7942 0.0 0.0 0
M  V30 21 N -1.5826 -0.8364 0.0 0
M  V30 22 C -1.1214 0.8848 0.0 0
M  V30 23 C -1.0826 -1.7024 0.0 0
M  V30 24 N 8.6602 -0.5 0.0 0
M  V30 25 C 9.5262 -2.0 0.0 0
M  V30 26 C -0.3783 1.554 0.0 0
M  V30 27 C -2.0725 1.1939 0.0 0
M  V30 28 C -1.4894 -2.6159 0.0 0
M  V30 29 O 10.3923 -1.5 0.0 0
M  V30 30 N 9.5262 -3.0 0.0 0
M  V30 31 C -0.5862 2.5321 0.0 0
M  V30 32 C -2.2804 2.172 0.0 0
M  V30 33 C -0.5758 -3.0227 0.0 0
M  V30 34 C -1.8961 -3.5295 0.0 0
M  V30 35 C -2.4029 -2.2092 0.0 0
M  V30 36 C 10.3923 -3.5 0.0 0
M  V30 37 C -1.5372 2.8411 0.0 0
M  V30 38 C 0.1569 3.2012 0.0 0
M  V30 39 N -1.7451 3.8193 0.0 0
M  V30 40 C -0.0509 4.1794 0.0 0
M  V30 41 C -1.002 4.4884 0.0 0
M  V30 END ATOM
M  V30 BEGIN BOND
M  V30 1 1 1 2
M  V30 2 2 2 3
M  V30 3 1 2 4
M  V30 4 1 3 5
M  V30 5 1 3 6
M  V30 6 2 4 7
M  V30 7 1 5 8
M  V30 8 2 6 9
M  V30 9 1 7 10
M  V30 10 2 8 11
M  V30 11 1 8 12
M  V30 12 1 10 13
M  V30 13 1 12 14
M  V30 14 2 13 15
M  V30 15 1 13 16
M  V30 16 1 14 17
M  V30 17 2 14 18
M  V30 18 1 15 19
M  V30 19 2 16 20
M  V30 20 1 17 21
M  V30 21 1 17 22
M  V30 22 1 18 23
M  V30 23 2 19 24
M  V30 24 1 19 25
M  V30 25 2 22 26
M  V30 26 1 22 27
M  V30 27 1 23 28
M  V30 28 2 25 29
M  V30 29 1 25 30
M  V30 30 1 26 31
M  V30 31 2 27 32
M  V30 32 1 28 33
M  V30 33 1 28 34
M  V30 34 1 28 35
M  V30 35 1 30 36
M  V30 36 1 31 37
M  V30 37 2 31 38
M  V30 38 2 37 39
M  V30 39 1 38 40
M  V30 40 1 39 41
M  V30 41 1 7 9
M  V30 42 1 20 24
M  V30 43 2 21 23
M  V30 44 1 32 37
M  V30 45 2 40 41
M  V30 END BOND
M  V30 END CTAB
M  END
>  <Molecule Name>
Compound 718

>  <Molecule Name 2>
Compound 718

>  <Compound ID>
216

>  <Name>
Rebastinib

>  <Uniprot>
P53671

>  <Target>
LIMK2

>  <Smiles>
CNC(=O)C1=CC(OC2=CC=C(NC(=O)NC3=CC(C(C)(C)C)=NN3C3=CC=C4N=CC=CC4=C3)C(F)=C2)=CC=N1

>  <Kd (nM)>


>  <Assay (Kd)>


>  <Ki (nM)>


>  <Assay (Ki)>


>  <IC50 (nM)>


>  <Assay (IC50)>


>  <EC50 (nM)>


>  <Assay (EC50)>


>  <Article DOI>
10.1016/j.cell.2020.10.038

>  <Molecular Weight>
553.598

>  <Exact Mass>
553.223766

>  <XLogP3>
4.93

>  <Heavy Atom Count>
41

>  <Ring Count>
5

>  <Hydrogen Bond Acceptor Count>
7

>  <Hydrogen Bond Donor Count>
3

>  <Rotatable Bond Count>
6

>  <Topological Polar Surface Area>
123.06

>  <Molecular Formula>
C30H28FN7O3

>  <InChI>
InChI=1S/C30H28FN7O3/c1-30(2,3)26-17-27(38(37-26)19-7-9-23-18(14-19)6-5-12-33-23)36-29(40)35-24-10-8-20(15-22(24)31)41-21-11-13-34-25(16-21)28(39)32-4/h5-17H,1-4H3,(H,32,39)(H2,35,36,40)

>  <InChI Key>
WVXNSAVVKYZVOE-UHFFFAOYSA-N

>  <BindingDB>
185674

>  <PubChem>
25066467

>  <ChEMBL>
CHEMBL1738757

$$$$
216
Actelion Java MolfileCreator 2.0

  0  0  0  0  0  0              0 V3000
M  V30 BEGIN CTAB
M  V30 COUNTS 41 45 0 0 0
M  V30 BEGIN ATOM
M  V30 1 F 4.3301 0.9999 0.0 0
M  V30 2 C 4.3301 0.0 0.0 0
M  V30 3 C 3.4641 -0.5 0.0 0
M  V30 4 C 5.1961 -0.5 0.0 0
M  V30 5 N 2.598 0.0 0.0 0
M  V30 6 C 3.4641 -1.5 0.0 0
M  V30 7 C 5.1961 -1.5 0.0 0
M  V30 8 C 1.732 -0.5 0.0 0
M  V30 9 C 4.3301 -2.0 0.0 0
M  V30 10 O 6.0621 -2.0 0.0 0
M  V30 11 O 1.732 -1.5 0.0 0
M  V30 12 N 0.866 0.0 0.0 0
M  V30 13 C 6.9282 -1.5 0.0 0
M  V30 14 C 0.0 -0.5 0.0 0
M  V30 15 C 7.7942 -2.0 0.0 0
M  V30 16 C 6.9282 -0.5 0.0 0
M  V30 17 N -0.9135 -0.0932 0.0 0
M  V30 18 C -0.1045 -1.4945 0.0 0
M  V30 19 C 8.6602 -1.5 0.0 0
M  V30 20 C 7.7942 0.0 0.0 0
M  V30 21 N -1.5826 -0.8364 0.0 0
M  V30 22 C -1.1214 0.8848 0.0 0
M  V30 23 C -1.0826 -1.7024 0.0 0
M  V30 24 N 8.6602 -0.5 0.0 0
M  V30 25 C 9.5262 -2.0 0.0 0
M  V30 26 C -0.3783 1.554 0.0 0
M  V30 27 C -2.0725 1.1939 0.0 0
M  V30 28 C -1.4894 -2.6159 0.0 0
M  V30 29 O 10.3923 -1.5 0.0 0
M  V30 30 N 9.5262 -3.0 0.0 0
M  V30 31 C -0.5862 2.5321 0.0 0
M  V30 32 C -2.2804 2.172 0.0 0
M  V30 33 C -0.5758 -3.0227 0.0 0
M  V30 34 C -1.8961 -3.5295 0.0 0
M  V30 35 C -2.4029 -2.2092 0.0 0
M  V30 36 C 10.3923 -3.5 0.0 0
M  V30 37 C -1.5372 2.8411 0.0 0
M  V30 38 C 0.1569 3.2012 0.0 0
M  V30 39 N -1.7451 3.8193 0.0 0
M  V30 40 C -0.0509 4.1794 0.0 0
M  V30 41 C -1.002 4.4884 0.0 0
M  V30 END ATOM
M  V30 BEGIN BOND
M  V30 1 1 1 2
M  V30 2 2 2 3
M  V30 3 1 2 4
M  V30 4 1 3 5
M  V30 5 1 3 6
M  V30 6 2 4 7
M  V30 7 1 5 8
M  V30 8 2 6 9
M  V30 9 1 7 10
M  V30 10 2 8 11
M  V30 11 1 8 12
M  V30 12 1 10 13
M  V30 13 1 12 14
M  V30 14 2 13 15
M  V30 15 1 13 16
M  V30 16 1 14 17
M  V30 17 2 14 18
M  V30 18 1 15 19
M  V30 19 2 16 20
M  V30 20 1 17 21
M  V30 21 1 17 22
M  V30 22 1 18 23
M  V30 23 2 19 24
M  V30 24 1 19 25
M  V30 25 2 22 26
M  V30 26 1 22 27
M  V30 27 1 23 28
M  V30 28 2 25 29
M  V30 29 1 25 30
M  V30 30 1 26 31
M  V30 31 2 27 32
M  V30 32 1 28 33
M  V30 33 1 28 34
M  V30 34 1 28 35
M  V30 35 1 30 36
M  V30 36 1 31 37
M  V30 37 2 31 38
M  V30 38 2 37 39
M  V30 39 1 38 40
M  V30 40 1 39 41
M  V30 41 1 7 9
M  V30 42 1 20 24
M  V30 43 2 21 23
M  V30 44 1 32 37
M  V30 45 2 40 41
M  V30 END BOND
M  V30 END CTAB
M  END
>  <Molecule Name>
Compound 719

>  <Molecule Name 2>
Compound 719

>  <Compound ID>
216

>  <Name>
Rebastinib

>  <Uniprot>
Q16584

>  <Target>
MAP3K11

>  <Smiles>
CNC(=O)C1=CC(OC2=CC=C(NC(=O)NC3=CC(C(C)(C)C)=NN3C3=CC=C4N=CC=CC4=C3)C(F)=C2)=CC=N1

>  <Kd (nM)>


>  <Assay (Kd)>


>  <Ki (nM)>


>  <Assay (Ki)>


>  <IC50 (nM)>


>  <Assay (IC50)>


>  <EC50 (nM)>


>  <Assay (EC50)>


>  <Article DOI>
10.1016/j.cell.2020.10.038

>  <Molecular Weight>
553.598

>  <Exact Mass>
553.223766

>  <XLogP3>
4.93

>  <Heavy Atom Count>
41

>  <Ring Count>
5

>  <Hydrogen Bond Acceptor Count>
7

>  <Hydrogen Bond Donor Count>
3

>  <Rotatable Bond Count>
6

>  <Topological Polar Surface Area>
123.06

>  <Molecular Formula>
C30H28FN7O3

>  <InChI>
InChI=1S/C30H28FN7O3/c1-30(2,3)26-17-27(38(37-26)19-7-9-23-18(14-19)6-5-12-33-23)36-29(40)35-24-10-8-20(15-22(24)31)41-21-11-13-34-25(16-21)28(39)32-4/h5-17H,1-4H3,(H,32,39)(H2,35,36,40)

>  <InChI Key>
WVXNSAVVKYZVOE-UHFFFAOYSA-N

>  <BindingDB>
185674

>  <PubChem>
25066467

>  <ChEMBL>
CHEMBL1738757

$$$$
216
Actelion Java MolfileCreator 2.0

  0  0  0  0  0  0              0 V3000
M  V30 BEGIN CTAB
M  V30 COUNTS 41 45 0 0 0
M  V30 BEGIN ATOM
M  V30 1 F 4.3301 0.9999 0.0 0
M  V30 2 C 4.3301 0.0 0.0 0
M  V30 3 C 3.4641 -0.5 0.0 0
M  V30 4 C 5.1961 -0.5 0.0 0
M  V30 5 N 2.598 0.0 0.0 0
M  V30 6 C 3.4641 -1.5 0.0 0
M  V30 7 C 5.1961 -1.5 0.0 0
M  V30 8 C 1.732 -0.5 0.0 0
M  V30 9 C 4.3301 -2.0 0.0 0
M  V30 10 O 6.0621 -2.0 0.0 0
M  V30 11 O 1.732 -1.5 0.0 0
M  V30 12 N 0.866 0.0 0.0 0
M  V30 13 C 6.9282 -1.5 0.0 0
M  V30 14 C 0.0 -0.5 0.0 0
M  V30 15 C 7.7942 -2.0 0.0 0
M  V30 16 C 6.9282 -0.5 0.0 0
M  V30 17 N -0.9135 -0.0932 0.0 0
M  V30 18 C -0.1045 -1.4945 0.0 0
M  V30 19 C 8.6602 -1.5 0.0 0
M  V30 20 C 7.7942 0.0 0.0 0
M  V30 21 N -1.5826 -0.8364 0.0 0
M  V30 22 C -1.1214 0.8848 0.0 0
M  V30 23 C -1.0826 -1.7024 0.0 0
M  V30 24 N 8.6602 -0.5 0.0 0
M  V30 25 C 9.5262 -2.0 0.0 0
M  V30 26 C -0.3783 1.554 0.0 0
M  V30 27 C -2.0725 1.1939 0.0 0
M  V30 28 C -1.4894 -2.6159 0.0 0
M  V30 29 O 10.3923 -1.5 0.0 0
M  V30 30 N 9.5262 -3.0 0.0 0
M  V30 31 C -0.5862 2.5321 0.0 0
M  V30 32 C -2.2804 2.172 0.0 0
M  V30 33 C -0.5758 -3.0227 0.0 0
M  V30 34 C -1.8961 -3.5295 0.0 0
M  V30 35 C -2.4029 -2.2092 0.0 0
M  V30 36 C 10.3923 -3.5 0.0 0
M  V30 37 C -1.5372 2.8411 0.0 0
M  V30 38 C 0.1569 3.2012 0.0 0
M  V30 39 N -1.7451 3.8193 0.0 0
M  V30 40 C -0.0509 4.1794 0.0 0
M  V30 41 C -1.002 4.4884 0.0 0
M  V30 END ATOM
M  V30 BEGIN BOND
M  V30 1 1 1 2
M  V30 2 2 2 3
M  V30 3 1 2 4
M  V30 4 1 3 5
M  V30 5 1 3 6
M  V30 6 2 4 7
M  V30 7 1 5 8
M  V30 8 2 6 9
M  V30 9 1 7 10
M  V30 10 2 8 11
M  V30 11 1 8 12
M  V30 12 1 10 13
M  V30 13 1 12 14
M  V30 14 2 13 15
M  V30 15 1 13 16
M  V30 16 1 14 17
M  V30 17 2 14 18
M  V30 18 1 15 19
M  V30 19 2 16 20
M  V30 20 1 17 21
M  V30 21 1 17 22
M  V30 22 1 18 23
M  V30 23 2 19 24
M  V30 24 1 19 25
M  V30 25 2 22 26
M  V30 26 1 22 27
M  V30 27 1 23 28
M  V30 28 2 25 29
M  V30 29 1 25 30
M  V30 30 1 26 31
M  V30 31 2 27 32
M  V30 32 1 28 33
M  V30 33 1 28 34
M  V30 34 1 28 35
M  V30 35 1 30 36
M  V30 36 1 31 37
M  V30 37 2 31 38
M  V30 38 2 37 39
M  V30 39 1 38 40
M  V30 40 1 39 41
M  V30 41 1 7 9
M  V30 42 1 20 24
M  V30 43 2 21 23
M  V30 44 1 32 37
M  V30 45 2 40 41
M  V30 END BOND
M  V30 END CTAB
M  END
>  <Molecule Name>
Compound 720

>  <Molecule Name 2>
Compound 720

>  <Compound ID>
216

>  <Name>
Rebastinib

>  <Uniprot>
Q96L34

>  <Target>
MARK4

>  <Smiles>
CNC(=O)C1=CC(OC2=CC=C(NC(=O)NC3=CC(C(C)(C)C)=NN3C3=CC=C4N=CC=CC4=C3)C(F)=C2)=CC=N1

>  <Kd (nM)>


>  <Assay (Kd)>


>  <Ki (nM)>


>  <Assay (Ki)>


>  <IC50 (nM)>


>  <Assay (IC50)>


>  <EC50 (nM)>


>  <Assay (EC50)>


>  <Article DOI>
10.1016/j.cell.2020.10.038

>  <Molecular Weight>
553.598

>  <Exact Mass>
553.223766

>  <XLogP3>
4.93

>  <Heavy Atom Count>
41

>  <Ring Count>
5

>  <Hydrogen Bond Acceptor Count>
7

>  <Hydrogen Bond Donor Count>
3

>  <Rotatable Bond Count>
6

>  <Topological Polar Surface Area>
123.06

>  <Molecular Formula>
C30H28FN7O3

>  <InChI>
InChI=1S/C30H28FN7O3/c1-30(2,3)26-17-27(38(37-26)19-7-9-23-18(14-19)6-5-12-33-23)36-29(40)35-24-10-8-20(15-22(24)31)41-21-11-13-34-25(16-21)28(39)32-4/h5-17H,1-4H3,(H,32,39)(H2,35,36,40)

>  <InChI Key>
WVXNSAVVKYZVOE-UHFFFAOYSA-N

>  <BindingDB>
185674

>  <PubChem>
25066467

>  <ChEMBL>
CHEMBL1738757

$$$$
216
Actelion Java MolfileCreator 2.0

  0  0  0  0  0  0              0 V3000
M  V30 BEGIN CTAB
M  V30 COUNTS 41 45 0 0 0
M  V30 BEGIN ATOM
M  V30 1 F 4.3301 0.9999 0.0 0
M  V30 2 C 4.3301 0.0 0.0 0
M  V30 3 C 3.4641 -0.5 0.0 0
M  V30 4 C 5.1961 -0.5 0.0 0
M  V30 5 N 2.598 0.0 0.0 0
M  V30 6 C 3.4641 -1.5 0.0 0
M  V30 7 C 5.1961 -1.5 0.0 0
M  V30 8 C 1.732 -0.5 0.0 0
M  V30 9 C 4.3301 -2.0 0.0 0
M  V30 10 O 6.0621 -2.0 0.0 0
M  V30 11 O 1.732 -1.5 0.0 0
M  V30 12 N 0.866 0.0 0.0 0
M  V30 13 C 6.9282 -1.5 0.0 0
M  V30 14 C 0.0 -0.5 0.0 0
M  V30 15 C 7.7942 -2.0 0.0 0
M  V30 16 C 6.9282 -0.5 0.0 0
M  V30 17 N -0.9135 -0.0932 0.0 0
M  V30 18 C -0.1045 -1.4945 0.0 0
M  V30 19 C 8.6602 -1.5 0.0 0
M  V30 20 C 7.7942 0.0 0.0 0
M  V30 21 N -1.5826 -0.8364 0.0 0
M  V30 22 C -1.1214 0.8848 0.0 0
M  V30 23 C -1.0826 -1.7024 0.0 0
M  V30 24 N 8.6602 -0.5 0.0 0
M  V30 25 C 9.5262 -2.0 0.0 0
M  V30 26 C -0.3783 1.554 0.0 0
M  V30 27 C -2.0725 1.1939 0.0 0
M  V30 28 C -1.4894 -2.6159 0.0 0
M  V30 29 O 10.3923 -1.5 0.0 0
M  V30 30 N 9.5262 -3.0 0.0 0
M  V30 31 C -0.5862 2.5321 0.0 0
M  V30 32 C -2.2804 2.172 0.0 0
M  V30 33 C -0.5758 -3.0227 0.0 0
M  V30 34 C -1.8961 -3.5295 0.0 0
M  V30 35 C -2.4029 -2.2092 0.0 0
M  V30 36 C 10.3923 -3.5 0.0 0
M  V30 37 C -1.5372 2.8411 0.0 0
M  V30 38 C 0.1569 3.2012 0.0 0
M  V30 39 N -1.7451 3.8193 0.0 0
M  V30 40 C -0.0509 4.1794 0.0 0
M  V30 41 C -1.002 4.4884 0.0 0
M  V30 END ATOM
M  V30 BEGIN BOND
M  V30 1 1 1 2
M  V30 2 2 2 3
M  V30 3 1 2 4
M  V30 4 1 3 5
M  V30 5 1 3 6
M  V30 6 2 4 7
M  V30 7 1 5 8
M  V30 8 2 6 9
M  V30 9 1 7 10
M  V30 10 2 8 11
M  V30 11 1 8 12
M  V30 12 1 10 13
M  V30 13 1 12 14
M  V30 14 2 13 15
M  V30 15 1 13 16
M  V30 16 1 14 17
M  V30 17 2 14 18
M  V30 18 1 15 19
M  V30 19 2 16 20
M  V30 20 1 17 21
M  V30 21 1 17 22
M  V30 22 1 18 23
M  V30 23 2 19 24
M  V30 24 1 19 25
M  V30 25 2 22 26
M  V30 26 1 22 27
M  V30 27 1 23 28
M  V30 28 2 25 29
M  V30 29 1 25 30
M  V30 30 1 26 31
M  V30 31 2 27 32
M  V30 32 1 28 33
M  V30 33 1 28 34
M  V30 34 1 28 35
M  V30 35 1 30 36
M  V30 36 1 31 37
M  V30 37 2 31 38
M  V30 38 2 37 39
M  V30 39 1 38 40
M  V30 40 1 39 41
M  V30 41 1 7 9
M  V30 42 1 20 24
M  V30 43 2 21 23
M  V30 44 1 32 37
M  V30 45 2 40 41
M  V30 END BOND
M  V30 END CTAB
M  END
>  <Molecule Name>
Compound 721

>  <Molecule Name 2>
Compound 721

>  <Compound ID>
216

>  <Name>
Rebastinib

>  <Uniprot>
O00444

>  <Target>
PLK4

>  <Smiles>
CNC(=O)C1=CC(OC2=CC=C(NC(=O)NC3=CC(C(C)(C)C)=NN3C3=CC=C4N=CC=CC4=C3)C(F)=C2)=CC=N1

>  <Kd (nM)>
4088

>  <Assay (Kd)>
Kd apparent of PLK4

>  <Ki (nM)>


>  <Assay (Ki)>


>  <IC50 (nM)>


>  <Assay (IC50)>


>  <EC50 (nM)>


>  <Assay (EC50)>


>  <Article DOI>
10.1126/science.aan4368

>  <Molecular Weight>
553.598

>  <Exact Mass>
553.223766

>  <XLogP3>
4.93

>  <Heavy Atom Count>
41

>  <Ring Count>
5

>  <Hydrogen Bond Acceptor Count>
7

>  <Hydrogen Bond Donor Count>
3

>  <Rotatable Bond Count>
6

>  <Topological Polar Surface Area>
123.06

>  <Molecular Formula>
C30H28FN7O3

>  <InChI>
InChI=1S/C30H28FN7O3/c1-30(2,3)26-17-27(38(37-26)19-7-9-23-18(14-19)6-5-12-33-23)36-29(40)35-24-10-8-20(15-22(24)31)41-21-11-13-34-25(16-21)28(39)32-4/h5-17H,1-4H3,(H,32,39)(H2,35,36,40)

>  <InChI Key>
WVXNSAVVKYZVOE-UHFFFAOYSA-N

>  <BindingDB>
185674

>  <PubChem>
25066467

>  <ChEMBL>
CHEMBL1738757

$$$$
216
Actelion Java MolfileCreator 2.0

  0  0  0  0  0  0              0 V3000
M  V30 BEGIN CTAB
M  V30 COUNTS 41 45 0 0 0
M  V30 BEGIN ATOM
M  V30 1 F 4.3301 0.9999 0.0 0
M  V30 2 C 4.3301 0.0 0.0 0
M  V30 3 C 3.4641 -0.5 0.0 0
M  V30 4 C 5.1961 -0.5 0.0 0
M  V30 5 N 2.598 0.0 0.0 0
M  V30 6 C 3.4641 -1.5 0.0 0
M  V30 7 C 5.1961 -1.5 0.0 0
M  V30 8 C 1.732 -0.5 0.0 0
M  V30 9 C 4.3301 -2.0 0.0 0
M  V30 10 O 6.0621 -2.0 0.0 0
M  V30 11 O 1.732 -1.5 0.0 0
M  V30 12 N 0.866 0.0 0.0 0
M  V30 13 C 6.9282 -1.5 0.0 0
M  V30 14 C 0.0 -0.5 0.0 0
M  V30 15 C 7.7942 -2.0 0.0 0
M  V30 16 C 6.9282 -0.5 0.0 0
M  V30 17 N -0.9135 -0.0932 0.0 0
M  V30 18 C -0.1045 -1.4945 0.0 0
M  V30 19 C 8.6602 -1.5 0.0 0
M  V30 20 C 7.7942 0.0 0.0 0
M  V30 21 N -1.5826 -0.8364 0.0 0
M  V30 22 C -1.1214 0.8848 0.0 0
M  V30 23 C -1.0826 -1.7024 0.0 0
M  V30 24 N 8.6602 -0.5 0.0 0
M  V30 25 C 9.5262 -2.0 0.0 0
M  V30 26 C -0.3783 1.554 0.0 0
M  V30 27 C -2.0725 1.1939 0.0 0
M  V30 28 C -1.4894 -2.6159 0.0 0
M  V30 29 O 10.3923 -1.5 0.0 0
M  V30 30 N 9.5262 -3.0 0.0 0
M  V30 31 C -0.5862 2.5321 0.0 0
M  V30 32 C -2.2804 2.172 0.0 0
M  V30 33 C -0.5758 -3.0227 0.0 0
M  V30 34 C -1.8961 -3.5295 0.0 0
M  V30 35 C -2.4029 -2.2092 0.0 0
M  V30 36 C 10.3923 -3.5 0.0 0
M  V30 37 C -1.5372 2.8411 0.0 0
M  V30 38 C 0.1569 3.2012 0.0 0
M  V30 39 N -1.7451 3.8193 0.0 0
M  V30 40 C -0.0509 4.1794 0.0 0
M  V30 41 C -1.002 4.4884 0.0 0
M  V30 END ATOM
M  V30 BEGIN BOND
M  V30 1 1 1 2
M  V30 2 2 2 3
M  V30 3 1 2 4
M  V30 4 1 3 5
M  V30 5 1 3 6
M  V30 6 2 4 7
M  V30 7 1 5 8
M  V30 8 2 6 9
M  V30 9 1 7 10
M  V30 10 2 8 11
M  V30 11 1 8 12
M  V30 12 1 10 13
M  V30 13 1 12 14
M  V30 14 2 13 15
M  V30 15 1 13 16
M  V30 16 1 14 17
M  V30 17 2 14 18
M  V30 18 1 15 19
M  V30 19 2 16 20
M  V30 20 1 17 21
M  V30 21 1 17 22
M  V30 22 1 18 23
M  V30 23 2 19 24
M  V30 24 1 19 25
M  V30 25 2 22 26
M  V30 26 1 22 27
M  V30 27 1 23 28
M  V30 28 2 25 29
M  V30 29 1 25 30
M  V30 30 1 26 31
M  V30 31 2 27 32
M  V30 32 1 28 33
M  V30 33 1 28 34
M  V30 34 1 28 35
M  V30 35 1 30 36
M  V30 36 1 31 37
M  V30 37 2 31 38
M  V30 38 2 37 39
M  V30 39 1 38 40
M  V30 40 1 39 41
M  V30 41 1 7 9
M  V30 42 1 20 24
M  V30 43 2 21 23
M  V30 44 1 32 37
M  V30 45 2 40 41
M  V30 END BOND
M  V30 END CTAB
M  END
>  <Molecule Name>
Compound 722

>  <Molecule Name 2>
Compound 722

>  <Compound ID>
216

>  <Name>
Rebastinib

>  <Uniprot>
Q13131

>  <Target>
PRKAA1

>  <Smiles>
CNC(=O)C1=CC(OC2=CC=C(NC(=O)NC3=CC(C(C)(C)C)=NN3C3=CC=C4N=CC=CC4=C3)C(F)=C2)=CC=N1

>  <Kd (nM)>


>  <Assay (Kd)>


>  <Ki (nM)>


>  <Assay (Ki)>


>  <IC50 (nM)>


>  <Assay (IC50)>


>  <EC50 (nM)>


>  <Assay (EC50)>


>  <Article DOI>
10.1016/j.cell.2020.10.038

>  <Molecular Weight>
553.598

>  <Exact Mass>
553.223766

>  <XLogP3>
4.93

>  <Heavy Atom Count>
41

>  <Ring Count>
5

>  <Hydrogen Bond Acceptor Count>
7

>  <Hydrogen Bond Donor Count>
3

>  <Rotatable Bond Count>
6

>  <Topological Polar Surface Area>
123.06

>  <Molecular Formula>
C30H28FN7O3

>  <InChI>
InChI=1S/C30H28FN7O3/c1-30(2,3)26-17-27(38(37-26)19-7-9-23-18(14-19)6-5-12-33-23)36-29(40)35-24-10-8-20(15-22(24)31)41-21-11-13-34-25(16-21)28(39)32-4/h5-17H,1-4H3,(H,32,39)(H2,35,36,40)

>  <InChI Key>
WVXNSAVVKYZVOE-UHFFFAOYSA-N

>  <BindingDB>
185674

>  <PubChem>
25066467

>  <ChEMBL>
CHEMBL1738757

$$$$
216
Actelion Java MolfileCreator 2.0

  0  0  0  0  0  0              0 V3000
M  V30 BEGIN CTAB
M  V30 COUNTS 41 45 0 0 0
M  V30 BEGIN ATOM
M  V30 1 F 4.3301 0.9999 0.0 0
M  V30 2 C 4.3301 0.0 0.0 0
M  V30 3 C 3.4641 -0.5 0.0 0
M  V30 4 C 5.1961 -0.5 0.0 0
M  V30 5 N 2.598 0.0 0.0 0
M  V30 6 C 3.4641 -1.5 0.0 0
M  V30 7 C 5.1961 -1.5 0.0 0
M  V30 8 C 1.732 -0.5 0.0 0
M  V30 9 C 4.3301 -2.0 0.0 0
M  V30 10 O 6.0621 -2.0 0.0 0
M  V30 11 O 1.732 -1.5 0.0 0
M  V30 12 N 0.866 0.0 0.0 0
M  V30 13 C 6.9282 -1.5 0.0 0
M  V30 14 C 0.0 -0.5 0.0 0
M  V30 15 C 7.7942 -2.0 0.0 0
M  V30 16 C 6.9282 -0.5 0.0 0
M  V30 17 N -0.9135 -0.0932 0.0 0
M  V30 18 C -0.1045 -1.4945 0.0 0
M  V30 19 C 8.6602 -1.5 0.0 0
M  V30 20 C 7.7942 0.0 0.0 0
M  V30 21 N -1.5826 -0.8364 0.0 0
M  V30 22 C -1.1214 0.8848 0.0 0
M  V30 23 C -1.0826 -1.7024 0.0 0
M  V30 24 N 8.6602 -0.5 0.0 0
M  V30 25 C 9.5262 -2.0 0.0 0
M  V30 26 C -0.3783 1.554 0.0 0
M  V30 27 C -2.0725 1.1939 0.0 0
M  V30 28 C -1.4894 -2.6159 0.0 0
M  V30 29 O 10.3923 -1.5 0.0 0
M  V30 30 N 9.5262 -3.0 0.0 0
M  V30 31 C -0.5862 2.5321 0.0 0
M  V30 32 C -2.2804 2.172 0.0 0
M  V30 33 C -0.5758 -3.0227 0.0 0
M  V30 34 C -1.8961 -3.5295 0.0 0
M  V30 35 C -2.4029 -2.2092 0.0 0
M  V30 36 C 10.3923 -3.5 0.0 0
M  V30 37 C -1.5372 2.8411 0.0 0
M  V30 38 C 0.1569 3.2012 0.0 0
M  V30 39 N -1.7451 3.8193 0.0 0
M  V30 40 C -0.0509 4.1794 0.0 0
M  V30 41 C -1.002 4.4884 0.0 0
M  V30 END ATOM
M  V30 BEGIN BOND
M  V30 1 1 1 2
M  V30 2 2 2 3
M  V30 3 1 2 4
M  V30 4 1 3 5
M  V30 5 1 3 6
M  V30 6 2 4 7
M  V30 7 1 5 8
M  V30 8 2 6 9
M  V30 9 1 7 10
M  V30 10 2 8 11
M  V30 11 1 8 12
M  V30 12 1 10 13
M  V30 13 1 12 14
M  V30 14 2 13 15
M  V30 15 1 13 16
M  V30 16 1 14 17
M  V30 17 2 14 18
M  V30 18 1 15 19
M  V30 19 2 16 20
M  V30 20 1 17 21
M  V30 21 1 17 22
M  V30 22 1 18 23
M  V30 23 2 19 24
M  V30 24 1 19 25
M  V30 25 2 22 26
M  V30 26 1 22 27
M  V30 27 1 23 28
M  V30 28 2 25 29
M  V30 29 1 25 30
M  V30 30 1 26 31
M  V30 31 2 27 32
M  V30 32 1 28 33
M  V30 33 1 28 34
M  V30 34 1 28 35
M  V30 35 1 30 36
M  V30 36 1 31 37
M  V30 37 2 31 38
M  V30 38 2 37 39
M  V30 39 1 38 40
M  V30 40 1 39 41
M  V30 41 1 7 9
M  V30 42 1 20 24
M  V30 43 2 21 23
M  V30 44 1 32 37
M  V30 45 2 40 41
M  V30 END BOND
M  V30 END CTAB
M  END
>  <Molecule Name>
Compound 723

>  <Molecule Name 2>
Compound 723

>  <Compound ID>
216

>  <Name>
Rebastinib

>  <Uniprot>
Q15418

>  <Target>
RPS6KA1

>  <Smiles>
CNC(=O)C1=CC(OC2=CC=C(NC(=O)NC3=CC(C(C)(C)C)=NN3C3=CC=C4N=CC=CC4=C3)C(F)=C2)=CC=N1

>  <Kd (nM)>


>  <Assay (Kd)>


>  <Ki (nM)>


>  <Assay (Ki)>


>  <IC50 (nM)>


>  <Assay (IC50)>


>  <EC50 (nM)>


>  <Assay (EC50)>


>  <Article DOI>
10.1016/j.cell.2020.10.038

>  <Molecular Weight>
553.598

>  <Exact Mass>
553.223766

>  <XLogP3>
4.93

>  <Heavy Atom Count>
41

>  <Ring Count>
5

>  <Hydrogen Bond Acceptor Count>
7

>  <Hydrogen Bond Donor Count>
3

>  <Rotatable Bond Count>
6

>  <Topological Polar Surface Area>
123.06

>  <Molecular Formula>
C30H28FN7O3

>  <InChI>
InChI=1S/C30H28FN7O3/c1-30(2,3)26-17-27(38(37-26)19-7-9-23-18(14-19)6-5-12-33-23)36-29(40)35-24-10-8-20(15-22(24)31)41-21-11-13-34-25(16-21)28(39)32-4/h5-17H,1-4H3,(H,32,39)(H2,35,36,40)

>  <InChI Key>
WVXNSAVVKYZVOE-UHFFFAOYSA-N

>  <BindingDB>
185674

>  <PubChem>
25066467

>  <ChEMBL>
CHEMBL1738757

$$$$
216
Actelion Java MolfileCreator 2.0

  0  0  0  0  0  0              0 V3000
M  V30 BEGIN CTAB
M  V30 COUNTS 41 45 0 0 0
M  V30 BEGIN ATOM
M  V30 1 F 4.3301 0.9999 0.0 0
M  V30 2 C 4.3301 0.0 0.0 0
M  V30 3 C 3.4641 -0.5 0.0 0
M  V30 4 C 5.1961 -0.5 0.0 0
M  V30 5 N 2.598 0.0 0.0 0
M  V30 6 C 3.4641 -1.5 0.0 0
M  V30 7 C 5.1961 -1.5 0.0 0
M  V30 8 C 1.732 -0.5 0.0 0
M  V30 9 C 4.3301 -2.0 0.0 0
M  V30 10 O 6.0621 -2.0 0.0 0
M  V30 11 O 1.732 -1.5 0.0 0
M  V30 12 N 0.866 0.0 0.0 0
M  V30 13 C 6.9282 -1.5 0.0 0
M  V30 14 C 0.0 -0.5 0.0 0
M  V30 15 C 7.7942 -2.0 0.0 0
M  V30 16 C 6.9282 -0.5 0.0 0
M  V30 17 N -0.9135 -0.0932 0.0 0
M  V30 18 C -0.1045 -1.4945 0.0 0
M  V30 19 C 8.6602 -1.5 0.0 0
M  V30 20 C 7.7942 0.0 0.0 0
M  V30 21 N -1.5826 -0.8364 0.0 0
M  V30 22 C -1.1214 0.8848 0.0 0
M  V30 23 C -1.0826 -1.7024 0.0 0
M  V30 24 N 8.6602 -0.5 0.0 0
M  V30 25 C 9.5262 -2.0 0.0 0
M  V30 26 C -0.3783 1.554 0.0 0
M  V30 27 C -2.0725 1.1939 0.0 0
M  V30 28 C -1.4894 -2.6159 0.0 0
M  V30 29 O 10.3923 -1.5 0.0 0
M  V30 30 N 9.5262 -3.0 0.0 0
M  V30 31 C -0.5862 2.5321 0.0 0
M  V30 32 C -2.2804 2.172 0.0 0
M  V30 33 C -0.5758 -3.0227 0.0 0
M  V30 34 C -1.8961 -3.5295 0.0 0
M  V30 35 C -2.4029 -2.2092 0.0 0
M  V30 36 C 10.3923 -3.5 0.0 0
M  V30 37 C -1.5372 2.8411 0.0 0
M  V30 38 C 0.1569 3.2012 0.0 0
M  V30 39 N -1.7451 3.8193 0.0 0
M  V30 40 C -0.0509 4.1794 0.0 0
M  V30 41 C -1.002 4.4884 0.0 0
M  V30 END ATOM
M  V30 BEGIN BOND
M  V30 1 1 1 2
M  V30 2 2 2 3
M  V30 3 1 2 4
M  V30 4 1 3 5
M  V30 5 1 3 6
M  V30 6 2 4 7
M  V30 7 1 5 8
M  V30 8 2 6 9
M  V30 9 1 7 10
M  V30 10 2 8 11
M  V30 11 1 8 12
M  V30 12 1 10 13
M  V30 13 1 12 14
M  V30 14 2 13 15
M  V30 15 1 13 16
M  V30 16 1 14 17
M  V30 17 2 14 18
M  V30 18 1 15 19
M  V30 19 2 16 20
M  V30 20 1 17 21
M  V30 21 1 17 22
M  V30 22 1 18 23
M  V30 23 2 19 24
M  V30 24 1 19 25
M  V30 25 2 22 26
M  V30 26 1 22 27
M  V30 27 1 23 28
M  V30 28 2 25 29
M  V30 29 1 25 30
M  V30 30 1 26 31
M  V30 31 2 27 32
M  V30 32 1 28 33
M  V30 33 1 28 34
M  V30 34 1 28 35
M  V30 35 1 30 36
M  V30 36 1 31 37
M  V30 37 2 31 38
M  V30 38 2 37 39
M  V30 39 1 38 40
M  V30 40 1 39 41
M  V30 41 1 7 9
M  V30 42 1 20 24
M  V30 43 2 21 23
M  V30 44 1 32 37
M  V30 45 2 40 41
M  V30 END BOND
M  V30 END CTAB
M  END
>  <Molecule Name>
Compound 724

>  <Molecule Name 2>
Compound 724

>  <Compound ID>
216

>  <Name>
Rebastinib

>  <Uniprot>
P12931

>  <Target>
Src

>  <Smiles>
CNC(=O)C1=CC(OC2=CC=C(NC(=O)NC3=CC(C(C)(C)C)=NN3C3=CC=C4N=CC=CC4=C3)C(F)=C2)=CC=N1

>  <Kd (nM)>
5852

>  <Assay (Kd)>
Kd apparent of Src

>  <Ki (nM)>


>  <Assay (Ki)>


>  <IC50 (nM)>


>  <Assay (IC50)>


>  <EC50 (nM)>


>  <Assay (EC50)>


>  <Article DOI>
10.1126/science.aan4368

>  <Molecular Weight>
553.598

>  <Exact Mass>
553.223766

>  <XLogP3>
4.93

>  <Heavy Atom Count>
41

>  <Ring Count>
5

>  <Hydrogen Bond Acceptor Count>
7

>  <Hydrogen Bond Donor Count>
3

>  <Rotatable Bond Count>
6

>  <Topological Polar Surface Area>
123.06

>  <Molecular Formula>
C30H28FN7O3

>  <InChI>
InChI=1S/C30H28FN7O3/c1-30(2,3)26-17-27(38(37-26)19-7-9-23-18(14-19)6-5-12-33-23)36-29(40)35-24-10-8-20(15-22(24)31)41-21-11-13-34-25(16-21)28(39)32-4/h5-17H,1-4H3,(H,32,39)(H2,35,36,40)

>  <InChI Key>
WVXNSAVVKYZVOE-UHFFFAOYSA-N

>  <BindingDB>
185674

>  <PubChem>
25066467

>  <ChEMBL>
CHEMBL1738757

$$$$
216
Actelion Java MolfileCreator 2.0

  0  0  0  0  0  0              0 V3000
M  V30 BEGIN CTAB
M  V30 COUNTS 41 45 0 0 0
M  V30 BEGIN ATOM
M  V30 1 F 4.3301 0.9999 0.0 0
M  V30 2 C 4.3301 0.0 0.0 0
M  V30 3 C 3.4641 -0.5 0.0 0
M  V30 4 C 5.1961 -0.5 0.0 0
M  V30 5 N 2.598 0.0 0.0 0
M  V30 6 C 3.4641 -1.5 0.0 0
M  V30 7 C 5.1961 -1.5 0.0 0
M  V30 8 C 1.732 -0.5 0.0 0
M  V30 9 C 4.3301 -2.0 0.0 0
M  V30 10 O 6.0621 -2.0 0.0 0
M  V30 11 O 1.732 -1.5 0.0 0
M  V30 12 N 0.866 0.0 0.0 0
M  V30 13 C 6.9282 -1.5 0.0 0
M  V30 14 C 0.0 -0.5 0.0 0
M  V30 15 C 7.7942 -2.0 0.0 0
M  V30 16 C 6.9282 -0.5 0.0 0
M  V30 17 N -0.9135 -0.0932 0.0 0
M  V30 18 C -0.1045 -1.4945 0.0 0
M  V30 19 C 8.6602 -1.5 0.0 0
M  V30 20 C 7.7942 0.0 0.0 0
M  V30 21 N -1.5826 -0.8364 0.0 0
M  V30 22 C -1.1214 0.8848 0.0 0
M  V30 23 C -1.0826 -1.7024 0.0 0
M  V30 24 N 8.6602 -0.5 0.0 0
M  V30 25 C 9.5262 -2.0 0.0 0
M  V30 26 C -0.3783 1.554 0.0 0
M  V30 27 C -2.0725 1.1939 0.0 0
M  V30 28 C -1.4894 -2.6159 0.0 0
M  V30 29 O 10.3923 -1.5 0.0 0
M  V30 30 N 9.5262 -3.0 0.0 0
M  V30 31 C -0.5862 2.5321 0.0 0
M  V30 32 C -2.2804 2.172 0.0 0
M  V30 33 C -0.5758 -3.0227 0.0 0
M  V30 34 C -1.8961 -3.5295 0.0 0
M  V30 35 C -2.4029 -2.2092 0.0 0
M  V30 36 C 10.3923 -3.5 0.0 0
M  V30 37 C -1.5372 2.8411 0.0 0
M  V30 38 C 0.1569 3.2012 0.0 0
M  V30 39 N -1.7451 3.8193 0.0 0
M  V30 40 C -0.0509 4.1794 0.0 0
M  V30 41 C -1.002 4.4884 0.0 0
M  V30 END ATOM
M  V30 BEGIN BOND
M  V30 1 1 1 2
M  V30 2 2 2 3
M  V30 3 1 2 4
M  V30 4 1 3 5
M  V30 5 1 3 6
M  V30 6 2 4 7
M  V30 7 1 5 8
M  V30 8 2 6 9
M  V30 9 1 7 10
M  V30 10 2 8 11
M  V30 11 1 8 12
M  V30 12 1 10 13
M  V30 13 1 12 14
M  V30 14 2 13 15
M  V30 15 1 13 16
M  V30 16 1 14 17
M  V30 17 2 14 18
M  V30 18 1 15 19
M  V30 19 2 16 20
M  V30 20 1 17 21
M  V30 21 1 17 22
M  V30 22 1 18 23
M  V30 23 2 19 24
M  V30 24 1 19 25
M  V30 25 2 22 26
M  V30 26 1 22 27
M  V30 27 1 23 28
M  V30 28 2 25 29
M  V30 29 1 25 30
M  V30 30 1 26 31
M  V30 31 2 27 32
M  V30 32 1 28 33
M  V30 33 1 28 34
M  V30 34 1 28 35
M  V30 35 1 30 36
M  V30 36 1 31 37
M  V30 37 2 31 38
M  V30 38 2 37 39
M  V30 39 1 38 40
M  V30 40 1 39 41
M  V30 41 1 7 9
M  V30 42 1 20 24
M  V30 43 2 21 23
M  V30 44 1 32 37
M  V30 45 2 40 41
M  V30 END BOND
M  V30 END CTAB
M  END
>  <Molecule Name>
Compound 725

>  <Molecule Name 2>
Compound 725

>  <Compound ID>
216

>  <Name>
Rebastinib

>  <Uniprot>
O94804

>  <Target>
STK10

>  <Smiles>
CNC(=O)C1=CC(OC2=CC=C(NC(=O)NC3=CC(C(C)(C)C)=NN3C3=CC=C4N=CC=CC4=C3)C(F)=C2)=CC=N1

>  <Kd (nM)>


>  <Assay (Kd)>


>  <Ki (nM)>


>  <Assay (Ki)>


>  <IC50 (nM)>


>  <Assay (IC50)>


>  <EC50 (nM)>


>  <Assay (EC50)>


>  <Article DOI>
10.1016/j.cell.2020.10.038

>  <Molecular Weight>
553.598

>  <Exact Mass>
553.223766

>  <XLogP3>
4.93

>  <Heavy Atom Count>
41

>  <Ring Count>
5

>  <Hydrogen Bond Acceptor Count>
7

>  <Hydrogen Bond Donor Count>
3

>  <Rotatable Bond Count>
6

>  <Topological Polar Surface Area>
123.06

>  <Molecular Formula>
C30H28FN7O3

>  <InChI>
InChI=1S/C30H28FN7O3/c1-30(2,3)26-17-27(38(37-26)19-7-9-23-18(14-19)6-5-12-33-23)36-29(40)35-24-10-8-20(15-22(24)31)41-21-11-13-34-25(16-21)28(39)32-4/h5-17H,1-4H3,(H,32,39)(H2,35,36,40)

>  <InChI Key>
WVXNSAVVKYZVOE-UHFFFAOYSA-N

>  <BindingDB>
185674

>  <PubChem>
25066467

>  <ChEMBL>
CHEMBL1738757

$$$$
216
Actelion Java MolfileCreator 2.0

  0  0  0  0  0  0              0 V3000
M  V30 BEGIN CTAB
M  V30 COUNTS 41 45 0 0 0
M  V30 BEGIN ATOM
M  V30 1 F 4.3301 0.9999 0.0 0
M  V30 2 C 4.3301 0.0 0.0 0
M  V30 3 C 3.4641 -0.5 0.0 0
M  V30 4 C 5.1961 -0.5 0.0 0
M  V30 5 N 2.598 0.0 0.0 0
M  V30 6 C 3.4641 -1.5 0.0 0
M  V30 7 C 5.1961 -1.5 0.0 0
M  V30 8 C 1.732 -0.5 0.0 0
M  V30 9 C 4.3301 -2.0 0.0 0
M  V30 10 O 6.0621 -2.0 0.0 0
M  V30 11 O 1.732 -1.5 0.0 0
M  V30 12 N 0.866 0.0 0.0 0
M  V30 13 C 6.9282 -1.5 0.0 0
M  V30 14 C 0.0 -0.5 0.0 0
M  V30 15 C 7.7942 -2.0 0.0 0
M  V30 16 C 6.9282 -0.5 0.0 0
M  V30 17 N -0.9135 -0.0932 0.0 0
M  V30 18 C -0.1045 -1.4945 0.0 0
M  V30 19 C 8.6602 -1.5 0.0 0
M  V30 20 C 7.7942 0.0 0.0 0
M  V30 21 N -1.5826 -0.8364 0.0 0
M  V30 22 C -1.1214 0.8848 0.0 0
M  V30 23 C -1.0826 -1.7024 0.0 0
M  V30 24 N 8.6602 -0.5 0.0 0
M  V30 25 C 9.5262 -2.0 0.0 0
M  V30 26 C -0.3783 1.554 0.0 0
M  V30 27 C -2.0725 1.1939 0.0 0
M  V30 28 C -1.4894 -2.6159 0.0 0
M  V30 29 O 10.3923 -1.5 0.0 0
M  V30 30 N 9.5262 -3.0 0.0 0
M  V30 31 C -0.5862 2.5321 0.0 0
M  V30 32 C -2.2804 2.172 0.0 0
M  V30 33 C -0.5758 -3.0227 0.0 0
M  V30 34 C -1.8961 -3.5295 0.0 0
M  V30 35 C -2.4029 -2.2092 0.0 0
M  V30 36 C 10.3923 -3.5 0.0 0
M  V30 37 C -1.5372 2.8411 0.0 0
M  V30 38 C 0.1569 3.2012 0.0 0
M  V30 39 N -1.7451 3.8193 0.0 0
M  V30 40 C -0.0509 4.1794 0.0 0
M  V30 41 C -1.002 4.4884 0.0 0
M  V30 END ATOM
M  V30 BEGIN BOND
M  V30 1 1 1 2
M  V30 2 2 2 3
M  V30 3 1 2 4
M  V30 4 1 3 5
M  V30 5 1 3 6
M  V30 6 2 4 7
M  V30 7 1 5 8
M  V30 8 2 6 9
M  V30 9 1 7 10
M  V30 10 2 8 11
M  V30 11 1 8 12
M  V30 12 1 10 13
M  V30 13 1 12 14
M  V30 14 2 13 15
M  V30 15 1 13 16
M  V30 16 1 14 17
M  V30 17 2 14 18
M  V30 18 1 15 19
M  V30 19 2 16 20
M  V30 20 1 17 21
M  V30 21 1 17 22
M  V30 22 1 18 23
M  V30 23 2 19 24
M  V30 24 1 19 25
M  V30 25 2 22 26
M  V30 26 1 22 27
M  V30 27 1 23 28
M  V30 28 2 25 29
M  V30 29 1 25 30
M  V30 30 1 26 31
M  V30 31 2 27 32
M  V30 32 1 28 33
M  V30 33 1 28 34
M  V30 34 1 28 35
M  V30 35 1 30 36
M  V30 36 1 31 37
M  V30 37 2 31 38
M  V30 38 2 37 39
M  V30 39 1 38 40
M  V30 40 1 39 41
M  V30 41 1 7 9
M  V30 42 1 20 24
M  V30 43 2 21 23
M  V30 44 1 32 37
M  V30 45 2 40 41
M  V30 END BOND
M  V30 END CTAB
M  END
>  <Molecule Name>
Compound 726

>  <Molecule Name 2>
Compound 726

>  <Compound ID>
216

>  <Name>
Rebastinib

>  <Uniprot>
Q15208

>  <Target>
STK38

>  <Smiles>
CNC(=O)C1=CC(OC2=CC=C(NC(=O)NC3=CC(C(C)(C)C)=NN3C3=CC=C4N=CC=CC4=C3)C(F)=C2)=CC=N1

>  <Kd (nM)>


>  <Assay (Kd)>


>  <Ki (nM)>


>  <Assay (Ki)>


>  <IC50 (nM)>


>  <Assay (IC50)>


>  <EC50 (nM)>


>  <Assay (EC50)>


>  <Article DOI>
10.1016/j.cell.2020.10.038

>  <Molecular Weight>
553.598

>  <Exact Mass>
553.223766

>  <XLogP3>
4.93

>  <Heavy Atom Count>
41

>  <Ring Count>
5

>  <Hydrogen Bond Acceptor Count>
7

>  <Hydrogen Bond Donor Count>
3

>  <Rotatable Bond Count>
6

>  <Topological Polar Surface Area>
123.06

>  <Molecular Formula>
C30H28FN7O3

>  <InChI>
InChI=1S/C30H28FN7O3/c1-30(2,3)26-17-27(38(37-26)19-7-9-23-18(14-19)6-5-12-33-23)36-29(40)35-24-10-8-20(15-22(24)31)41-21-11-13-34-25(16-21)28(39)32-4/h5-17H,1-4H3,(H,32,39)(H2,35,36,40)

>  <InChI Key>
WVXNSAVVKYZVOE-UHFFFAOYSA-N

>  <BindingDB>
185674

>  <PubChem>
25066467

>  <ChEMBL>
CHEMBL1738757

$$$$
216
Actelion Java MolfileCreator 2.0

  0  0  0  0  0  0              0 V3000
M  V30 BEGIN CTAB
M  V30 COUNTS 41 45 0 0 0
M  V30 BEGIN ATOM
M  V30 1 F 4.3301 0.9999 0.0 0
M  V30 2 C 4.3301 0.0 0.0 0
M  V30 3 C 3.4641 -0.5 0.0 0
M  V30 4 C 5.1961 -0.5 0.0 0
M  V30 5 N 2.598 0.0 0.0 0
M  V30 6 C 3.4641 -1.5 0.0 0
M  V30 7 C 5.1961 -1.5 0.0 0
M  V30 8 C 1.732 -0.5 0.0 0
M  V30 9 C 4.3301 -2.0 0.0 0
M  V30 10 O 6.0621 -2.0 0.0 0
M  V30 11 O 1.732 -1.5 0.0 0
M  V30 12 N 0.866 0.0 0.0 0
M  V30 13 C 6.9282 -1.5 0.0 0
M  V30 14 C 0.0 -0.5 0.0 0
M  V30 15 C 7.7942 -2.0 0.0 0
M  V30 16 C 6.9282 -0.5 0.0 0
M  V30 17 N -0.9135 -0.0932 0.0 0
M  V30 18 C -0.1045 -1.4945 0.0 0
M  V30 19 C 8.6602 -1.5 0.0 0
M  V30 20 C 7.7942 0.0 0.0 0
M  V30 21 N -1.5826 -0.8364 0.0 0
M  V30 22 C -1.1214 0.8848 0.0 0
M  V30 23 C -1.0826 -1.7024 0.0 0
M  V30 24 N 8.6602 -0.5 0.0 0
M  V30 25 C 9.5262 -2.0 0.0 0
M  V30 26 C -0.3783 1.554 0.0 0
M  V30 27 C -2.0725 1.1939 0.0 0
M  V30 28 C -1.4894 -2.6159 0.0 0
M  V30 29 O 10.3923 -1.5 0.0 0
M  V30 30 N 9.5262 -3.0 0.0 0
M  V30 31 C -0.5862 2.5321 0.0 0
M  V30 32 C -2.2804 2.172 0.0 0
M  V30 33 C -0.5758 -3.0227 0.0 0
M  V30 34 C -1.8961 -3.5295 0.0 0
M  V30 35 C -2.4029 -2.2092 0.0 0
M  V30 36 C 10.3923 -3.5 0.0 0
M  V30 37 C -1.5372 2.8411 0.0 0
M  V30 38 C 0.1569 3.2012 0.0 0
M  V30 39 N -1.7451 3.8193 0.0 0
M  V30 40 C -0.0509 4.1794 0.0 0
M  V30 41 C -1.002 4.4884 0.0 0
M  V30 END ATOM
M  V30 BEGIN BOND
M  V30 1 1 1 2
M  V30 2 2 2 3
M  V30 3 1 2 4
M  V30 4 1 3 5
M  V30 5 1 3 6
M  V30 6 2 4 7
M  V30 7 1 5 8
M  V30 8 2 6 9
M  V30 9 1 7 10
M  V30 10 2 8 11
M  V30 11 1 8 12
M  V30 12 1 10 13
M  V30 13 1 12 14
M  V30 14 2 13 15
M  V30 15 1 13 16
M  V30 16 1 14 17
M  V30 17 2 14 18
M  V30 18 1 15 19
M  V30 19 2 16 20
M  V30 20 1 17 21
M  V30 21 1 17 22
M  V30 22 1 18 23
M  V30 23 2 19 24
M  V30 24 1 19 25
M  V30 25 2 22 26
M  V30 26 1 22 27
M  V30 27 1 23 28
M  V30 28 2 25 29
M  V30 29 1 25 30
M  V30 30 1 26 31
M  V30 31 2 27 32
M  V30 32 1 28 33
M  V30 33 1 28 34
M  V30 34 1 28 35
M  V30 35 1 30 36
M  V30 36 1 31 37
M  V30 37 2 31 38
M  V30 38 2 37 39
M  V30 39 1 38 40
M  V30 40 1 39 41
M  V30 41 1 7 9
M  V30 42 1 20 24
M  V30 43 2 21 23
M  V30 44 1 32 37
M  V30 45 2 40 41
M  V30 END BOND
M  V30 END CTAB
M  END
>  <Molecule Name>
Compound 727

>  <Molecule Name 2>
Compound 727

>  <Compound ID>
216

>  <Name>
Rebastinib

>  <Uniprot>
P42680

>  <Target>
TEC

>  <Smiles>
CNC(=O)C1=CC(OC2=CC=C(NC(=O)NC3=CC(C(C)(C)C)=NN3C3=CC=C4N=CC=CC4=C3)C(F)=C2)=CC=N1

>  <Kd (nM)>
>30000

>  <Assay (Kd)>
Kd apparent of TEC

>  <Ki (nM)>


>  <Assay (Ki)>


>  <IC50 (nM)>


>  <Assay (IC50)>


>  <EC50 (nM)>


>  <Assay (EC50)>


>  <Article DOI>
10.1126/science.aan4368

>  <Molecular Weight>
553.598

>  <Exact Mass>
553.223766

>  <XLogP3>
4.93

>  <Heavy Atom Count>
41

>  <Ring Count>
5

>  <Hydrogen Bond Acceptor Count>
7

>  <Hydrogen Bond Donor Count>
3

>  <Rotatable Bond Count>
6

>  <Topological Polar Surface Area>
123.06

>  <Molecular Formula>
C30H28FN7O3

>  <InChI>
InChI=1S/C30H28FN7O3/c1-30(2,3)26-17-27(38(37-26)19-7-9-23-18(14-19)6-5-12-33-23)36-29(40)35-24-10-8-20(15-22(24)31)41-21-11-13-34-25(16-21)28(39)32-4/h5-17H,1-4H3,(H,32,39)(H2,35,36,40)

>  <InChI Key>
WVXNSAVVKYZVOE-UHFFFAOYSA-N

>  <BindingDB>
185674

>  <PubChem>
25066467

>  <ChEMBL>
CHEMBL1738757

$$$$
216
Actelion Java MolfileCreator 2.0

  0  0  0  0  0  0              0 V3000
M  V30 BEGIN CTAB
M  V30 COUNTS 41 45 0 0 0
M  V30 BEGIN ATOM
M  V30 1 F 4.3301 0.9999 0.0 0
M  V30 2 C 4.3301 0.0 0.0 0
M  V30 3 C 3.4641 -0.5 0.0 0
M  V30 4 C 5.1961 -0.5 0.0 0
M  V30 5 N 2.598 0.0 0.0 0
M  V30 6 C 3.4641 -1.5 0.0 0
M  V30 7 C 5.1961 -1.5 0.0 0
M  V30 8 C 1.732 -0.5 0.0 0
M  V30 9 C 4.3301 -2.0 0.0 0
M  V30 10 O 6.0621 -2.0 0.0 0
M  V30 11 O 1.732 -1.5 0.0 0
M  V30 12 N 0.866 0.0 0.0 0
M  V30 13 C 6.9282 -1.5 0.0 0
M  V30 14 C 0.0 -0.5 0.0 0
M  V30 15 C 7.7942 -2.0 0.0 0
M  V30 16 C 6.9282 -0.5 0.0 0
M  V30 17 N -0.9135 -0.0932 0.0 0
M  V30 18 C -0.1045 -1.4945 0.0 0
M  V30 19 C 8.6602 -1.5 0.0 0
M  V30 20 C 7.7942 0.0 0.0 0
M  V30 21 N -1.5826 -0.8364 0.0 0
M  V30 22 C -1.1214 0.8848 0.0 0
M  V30 23 C -1.0826 -1.7024 0.0 0
M  V30 24 N 8.6602 -0.5 0.0 0
M  V30 25 C 9.5262 -2.0 0.0 0
M  V30 26 C -0.3783 1.554 0.0 0
M  V30 27 C -2.0725 1.1939 0.0 0
M  V30 28 C -1.4894 -2.6159 0.0 0
M  V30 29 O 10.3923 -1.5 0.0 0
M  V30 30 N 9.5262 -3.0 0.0 0
M  V30 31 C -0.5862 2.5321 0.0 0
M  V30 32 C -2.2804 2.172 0.0 0
M  V30 33 C -0.5758 -3.0227 0.0 0
M  V30 34 C -1.8961 -3.5295 0.0 0
M  V30 35 C -2.4029 -2.2092 0.0 0
M  V30 36 C 10.3923 -3.5 0.0 0
M  V30 37 C -1.5372 2.8411 0.0 0
M  V30 38 C 0.1569 3.2012 0.0 0
M  V30 39 N -1.7451 3.8193 0.0 0
M  V30 40 C -0.0509 4.1794 0.0 0
M  V30 41 C -1.002 4.4884 0.0 0
M  V30 END ATOM
M  V30 BEGIN BOND
M  V30 1 1 1 2
M  V30 2 2 2 3
M  V30 3 1 2 4
M  V30 4 1 3 5
M  V30 5 1 3 6
M  V30 6 2 4 7
M  V30 7 1 5 8
M  V30 8 2 6 9
M  V30 9 1 7 10
M  V30 10 2 8 11
M  V30 11 1 8 12
M  V30 12 1 10 13
M  V30 13 1 12 14
M  V30 14 2 13 15
M  V30 15 1 13 16
M  V30 16 1 14 17
M  V30 17 2 14 18
M  V30 18 1 15 19
M  V30 19 2 16 20
M  V30 20 1 17 21
M  V30 21 1 17 22
M  V30 22 1 18 23
M  V30 23 2 19 24
M  V30 24 1 19 25
M  V30 25 2 22 26
M  V30 26 1 22 27
M  V30 27 1 23 28
M  V30 28 2 25 29
M  V30 29 1 25 30
M  V30 30 1 26 31
M  V30 31 2 27 32
M  V30 32 1 28 33
M  V30 33 1 28 34
M  V30 34 1 28 35
M  V30 35 1 30 36
M  V30 36 1 31 37
M  V30 37 2 31 38
M  V30 38 2 37 39
M  V30 39 1 38 40
M  V30 40 1 39 41
M  V30 41 1 7 9
M  V30 42 1 20 24
M  V30 43 2 21 23
M  V30 44 1 32 37
M  V30 45 2 40 41
M  V30 END BOND
M  V30 END CTAB
M  END
>  <Molecule Name>
Compound 728

>  <Molecule Name 2>
Compound 728

>  <Compound ID>
216

>  <Name>
Rebastinib

>  <Uniprot>
Q07912

>  <Target>
TNK2

>  <Smiles>
CNC(=O)C1=CC(OC2=CC=C(NC(=O)NC3=CC(C(C)(C)C)=NN3C3=CC=C4N=CC=CC4=C3)C(F)=C2)=CC=N1

>  <Kd (nM)>


>  <Assay (Kd)>


>  <Ki (nM)>


>  <Assay (Ki)>


>  <IC50 (nM)>


>  <Assay (IC50)>


>  <EC50 (nM)>


>  <Assay (EC50)>


>  <Article DOI>
10.1016/j.cell.2020.10.038

>  <Molecular Weight>
553.598

>  <Exact Mass>
553.223766

>  <XLogP3>
4.93

>  <Heavy Atom Count>
41

>  <Ring Count>
5

>  <Hydrogen Bond Acceptor Count>
7

>  <Hydrogen Bond Donor Count>
3

>  <Rotatable Bond Count>
6

>  <Topological Polar Surface Area>
123.06

>  <Molecular Formula>
C30H28FN7O3

>  <InChI>
InChI=1S/C30H28FN7O3/c1-30(2,3)26-17-27(38(37-26)19-7-9-23-18(14-19)6-5-12-33-23)36-29(40)35-24-10-8-20(15-22(24)31)41-21-11-13-34-25(16-21)28(39)32-4/h5-17H,1-4H3,(H,32,39)(H2,35,36,40)

>  <InChI Key>
WVXNSAVVKYZVOE-UHFFFAOYSA-N

>  <BindingDB>
185674

>  <PubChem>
25066467

>  <ChEMBL>
CHEMBL1738757

$$$$
216
Actelion Java MolfileCreator 2.0

  0  0  0  0  0  0              0 V3000
M  V30 BEGIN CTAB
M  V30 COUNTS 41 45 0 0 0
M  V30 BEGIN ATOM
M  V30 1 F 4.3301 0.9999 0.0 0
M  V30 2 C 4.3301 0.0 0.0 0
M  V30 3 C 3.4641 -0.5 0.0 0
M  V30 4 C 5.1961 -0.5 0.0 0
M  V30 5 N 2.598 0.0 0.0 0
M  V30 6 C 3.4641 -1.5 0.0 0
M  V30 7 C 5.1961 -1.5 0.0 0
M  V30 8 C 1.732 -0.5 0.0 0
M  V30 9 C 4.3301 -2.0 0.0 0
M  V30 10 O 6.0621 -2.0 0.0 0
M  V30 11 O 1.732 -1.5 0.0 0
M  V30 12 N 0.866 0.0 0.0 0
M  V30 13 C 6.9282 -1.5 0.0 0
M  V30 14 C 0.0 -0.5 0.0 0
M  V30 15 C 7.7942 -2.0 0.0 0
M  V30 16 C 6.9282 -0.5 0.0 0
M  V30 17 N -0.9135 -0.0932 0.0 0
M  V30 18 C -0.1045 -1.4945 0.0 0
M  V30 19 C 8.6602 -1.5 0.0 0
M  V30 20 C 7.7942 0.0 0.0 0
M  V30 21 N -1.5826 -0.8364 0.0 0
M  V30 22 C -1.1214 0.8848 0.0 0
M  V30 23 C -1.0826 -1.7024 0.0 0
M  V30 24 N 8.6602 -0.5 0.0 0
M  V30 25 C 9.5262 -2.0 0.0 0
M  V30 26 C -0.3783 1.554 0.0 0
M  V30 27 C -2.0725 1.1939 0.0 0
M  V30 28 C -1.4894 -2.6159 0.0 0
M  V30 29 O 10.3923 -1.5 0.0 0
M  V30 30 N 9.5262 -3.0 0.0 0
M  V30 31 C -0.5862 2.5321 0.0 0
M  V30 32 C -2.2804 2.172 0.0 0
M  V30 33 C -0.5758 -3.0227 0.0 0
M  V30 34 C -1.8961 -3.5295 0.0 0
M  V30 35 C -2.4029 -2.2092 0.0 0
M  V30 36 C 10.3923 -3.5 0.0 0
M  V30 37 C -1.5372 2.8411 0.0 0
M  V30 38 C 0.1569 3.2012 0.0 0
M  V30 39 N -1.7451 3.8193 0.0 0
M  V30 40 C -0.0509 4.1794 0.0 0
M  V30 41 C -1.002 4.4884 0.0 0
M  V30 END ATOM
M  V30 BEGIN BOND
M  V30 1 1 1 2
M  V30 2 2 2 3
M  V30 3 1 2 4
M  V30 4 1 3 5
M  V30 5 1 3 6
M  V30 6 2 4 7
M  V30 7 1 5 8
M  V30 8 2 6 9
M  V30 9 1 7 10
M  V30 10 2 8 11
M  V30 11 1 8 12
M  V30 12 1 10 13
M  V30 13 1 12 14
M  V30 14 2 13 15
M  V30 15 1 13 16
M  V30 16 1 14 17
M  V30 17 2 14 18
M  V30 18 1 15 19
M  V30 19 2 16 20
M  V30 20 1 17 21
M  V30 21 1 17 22
M  V30 22 1 18 23
M  V30 23 2 19 24
M  V30 24 1 19 25
M  V30 25 2 22 26
M  V30 26 1 22 27
M  V30 27 1 23 28
M  V30 28 2 25 29
M  V30 29 1 25 30
M  V30 30 1 26 31
M  V30 31 2 27 32
M  V30 32 1 28 33
M  V30 33 1 28 34
M  V30 34 1 28 35
M  V30 35 1 30 36
M  V30 36 1 31 37
M  V30 37 2 31 38
M  V30 38 2 37 39
M  V30 39 1 38 40
M  V30 40 1 39 41
M  V30 41 1 7 9
M  V30 42 1 20 24
M  V30 43 2 21 23
M  V30 44 1 32 37
M  V30 45 2 40 41
M  V30 END BOND
M  V30 END CTAB
M  END
>  <Molecule Name>
Compound 729

>  <Molecule Name 2>
Compound 729

>  <Compound ID>
216

>  <Name>
Rebastinib

>  <Uniprot>
O75385

>  <Target>
ULK1

>  <Smiles>
CNC(=O)C1=CC(OC2=CC=C(NC(=O)NC3=CC(C(C)(C)C)=NN3C3=CC=C4N=CC=CC4=C3)C(F)=C2)=CC=N1

>  <Kd (nM)>
>30000

>  <Assay (Kd)>
Kd apparent of ULK1

>  <Ki (nM)>


>  <Assay (Ki)>


>  <IC50 (nM)>


>  <Assay (IC50)>


>  <EC50 (nM)>


>  <Assay (EC50)>


>  <Article DOI>
10.1126/science.aan4368

>  <Molecular Weight>
553.598

>  <Exact Mass>
553.223766

>  <XLogP3>
4.93

>  <Heavy Atom Count>
41

>  <Ring Count>
5

>  <Hydrogen Bond Acceptor Count>
7

>  <Hydrogen Bond Donor Count>
3

>  <Rotatable Bond Count>
6

>  <Topological Polar Surface Area>
123.06

>  <Molecular Formula>
C30H28FN7O3

>  <InChI>
InChI=1S/C30H28FN7O3/c1-30(2,3)26-17-27(38(37-26)19-7-9-23-18(14-19)6-5-12-33-23)36-29(40)35-24-10-8-20(15-22(24)31)41-21-11-13-34-25(16-21)28(39)32-4/h5-17H,1-4H3,(H,32,39)(H2,35,36,40)

>  <InChI Key>
WVXNSAVVKYZVOE-UHFFFAOYSA-N

>  <BindingDB>
185674

>  <PubChem>
25066467

>  <ChEMBL>
CHEMBL1738757

$$$$
216
Actelion Java MolfileCreator 2.0

  0  0  0  0  0  0              0 V3000
M  V30 BEGIN CTAB
M  V30 COUNTS 41 45 0 0 0
M  V30 BEGIN ATOM
M  V30 1 F 4.3301 0.9999 0.0 0
M  V30 2 C 4.3301 0.0 0.0 0
M  V30 3 C 3.4641 -0.5 0.0 0
M  V30 4 C 5.1961 -0.5 0.0 0
M  V30 5 N 2.598 0.0 0.0 0
M  V30 6 C 3.4641 -1.5 0.0 0
M  V30 7 C 5.1961 -1.5 0.0 0
M  V30 8 C 1.732 -0.5 0.0 0
M  V30 9 C 4.3301 -2.0 0.0 0
M  V30 10 O 6.0621 -2.0 0.0 0
M  V30 11 O 1.732 -1.5 0.0 0
M  V30 12 N 0.866 0.0 0.0 0
M  V30 13 C 6.9282 -1.5 0.0 0
M  V30 14 C 0.0 -0.5 0.0 0
M  V30 15 C 7.7942 -2.0 0.0 0
M  V30 16 C 6.9282 -0.5 0.0 0
M  V30 17 N -0.9135 -0.0932 0.0 0
M  V30 18 C -0.1045 -1.4945 0.0 0
M  V30 19 C 8.6602 -1.5 0.0 0
M  V30 20 C 7.7942 0.0 0.0 0
M  V30 21 N -1.5826 -0.8364 0.0 0
M  V30 22 C -1.1214 0.8848 0.0 0
M  V30 23 C -1.0826 -1.7024 0.0 0
M  V30 24 N 8.6602 -0.5 0.0 0
M  V30 25 C 9.5262 -2.0 0.0 0
M  V30 26 C -0.3783 1.554 0.0 0
M  V30 27 C -2.0725 1.1939 0.0 0
M  V30 28 C -1.4894 -2.6159 0.0 0
M  V30 29 O 10.3923 -1.5 0.0 0
M  V30 30 N 9.5262 -3.0 0.0 0
M  V30 31 C -0.5862 2.5321 0.0 0
M  V30 32 C -2.2804 2.172 0.0 0
M  V30 33 C -0.5758 -3.0227 0.0 0
M  V30 34 C -1.8961 -3.5295 0.0 0
M  V30 35 C -2.4029 -2.2092 0.0 0
M  V30 36 C 10.3923 -3.5 0.0 0
M  V30 37 C -1.5372 2.8411 0.0 0
M  V30 38 C 0.1569 3.2012 0.0 0
M  V30 39 N -1.7451 3.8193 0.0 0
M  V30 40 C -0.0509 4.1794 0.0 0
M  V30 41 C -1.002 4.4884 0.0 0
M  V30 END ATOM
M  V30 BEGIN BOND
M  V30 1 1 1 2
M  V30 2 2 2 3
M  V30 3 1 2 4
M  V30 4 1 3 5
M  V30 5 1 3 6
M  V30 6 2 4 7
M  V30 7 1 5 8
M  V30 8 2 6 9
M  V30 9 1 7 10
M  V30 10 2 8 11
M  V30 11 1 8 12
M  V30 12 1 10 13
M  V30 13 1 12 14
M  V30 14 2 13 15
M  V30 15 1 13 16
M  V30 16 1 14 17
M  V30 17 2 14 18
M  V30 18 1 15 19
M  V30 19 2 16 20
M  V30 20 1 17 21
M  V30 21 1 17 22
M  V30 22 1 18 23
M  V30 23 2 19 24
M  V30 24 1 19 25
M  V30 25 2 22 26
M  V30 26 1 22 27
M  V30 27 1 23 28
M  V30 28 2 25 29
M  V30 29 1 25 30
M  V30 30 1 26 31
M  V30 31 2 27 32
M  V30 32 1 28 33
M  V30 33 1 28 34
M  V30 34 1 28 35
M  V30 35 1 30 36
M  V30 36 1 31 37
M  V30 37 2 31 38
M  V30 38 2 37 39
M  V30 39 1 38 40
M  V30 40 1 39 41
M  V30 41 1 7 9
M  V30 42 1 20 24
M  V30 43 2 21 23
M  V30 44 1 32 37
M  V30 45 2 40 41
M  V30 END BOND
M  V30 END CTAB
M  END
>  <Molecule Name>
Compound 730

>  <Molecule Name 2>
Compound 730

>  <Compound ID>
216

>  <Name>
Rebastinib

>  <Uniprot>
Q6PHR2

>  <Target>
ULK3

>  <Smiles>
CNC(=O)C1=CC(OC2=CC=C(NC(=O)NC3=CC(C(C)(C)C)=NN3C3=CC=C4N=CC=CC4=C3)C(F)=C2)=CC=N1

>  <Kd (nM)>
>30000

>  <Assay (Kd)>
Kd apparent of ULK3

>  <Ki (nM)>


>  <Assay (Ki)>


>  <IC50 (nM)>


>  <Assay (IC50)>


>  <EC50 (nM)>


>  <Assay (EC50)>


>  <Article DOI>
10.1126/science.aan4368

>  <Molecular Weight>
553.598

>  <Exact Mass>
553.223766

>  <XLogP3>
4.93

>  <Heavy Atom Count>
41

>  <Ring Count>
5

>  <Hydrogen Bond Acceptor Count>
7

>  <Hydrogen Bond Donor Count>
3

>  <Rotatable Bond Count>
6

>  <Topological Polar Surface Area>
123.06

>  <Molecular Formula>
C30H28FN7O3

>  <InChI>
InChI=1S/C30H28FN7O3/c1-30(2,3)26-17-27(38(37-26)19-7-9-23-18(14-19)6-5-12-33-23)36-29(40)35-24-10-8-20(15-22(24)31)41-21-11-13-34-25(16-21)28(39)32-4/h5-17H,1-4H3,(H,32,39)(H2,35,36,40)

>  <InChI Key>
WVXNSAVVKYZVOE-UHFFFAOYSA-N

>  <BindingDB>
185674

>  <PubChem>
25066467

>  <ChEMBL>
CHEMBL1738757

$$$$
216
Actelion Java MolfileCreator 2.0

  0  0  0  0  0  0              0 V3000
M  V30 BEGIN CTAB
M  V30 COUNTS 41 45 0 0 0
M  V30 BEGIN ATOM
M  V30 1 F 4.3301 0.9999 0.0 0
M  V30 2 C 4.3301 0.0 0.0 0
M  V30 3 C 3.4641 -0.5 0.0 0
M  V30 4 C 5.1961 -0.5 0.0 0
M  V30 5 N 2.598 0.0 0.0 0
M  V30 6 C 3.4641 -1.5 0.0 0
M  V30 7 C 5.1961 -1.5 0.0 0
M  V30 8 C 1.732 -0.5 0.0 0
M  V30 9 C 4.3301 -2.0 0.0 0
M  V30 10 O 6.0621 -2.0 0.0 0
M  V30 11 O 1.732 -1.5 0.0 0
M  V30 12 N 0.866 0.0 0.0 0
M  V30 13 C 6.9282 -1.5 0.0 0
M  V30 14 C 0.0 -0.5 0.0 0
M  V30 15 C 7.7942 -2.0 0.0 0
M  V30 16 C 6.9282 -0.5 0.0 0
M  V30 17 N -0.9135 -0.0932 0.0 0
M  V30 18 C -0.1045 -1.4945 0.0 0
M  V30 19 C 8.6602 -1.5 0.0 0
M  V30 20 C 7.7942 0.0 0.0 0
M  V30 21 N -1.5826 -0.8364 0.0 0
M  V30 22 C -1.1214 0.8848 0.0 0
M  V30 23 C -1.0826 -1.7024 0.0 0
M  V30 24 N 8.6602 -0.5 0.0 0
M  V30 25 C 9.5262 -2.0 0.0 0
M  V30 26 C -0.3783 1.554 0.0 0
M  V30 27 C -2.0725 1.1939 0.0 0
M  V30 28 C -1.4894 -2.6159 0.0 0
M  V30 29 O 10.3923 -1.5 0.0 0
M  V30 30 N 9.5262 -3.0 0.0 0
M  V30 31 C -0.5862 2.5321 0.0 0
M  V30 32 C -2.2804 2.172 0.0 0
M  V30 33 C -0.5758 -3.0227 0.0 0
M  V30 34 C -1.8961 -3.5295 0.0 0
M  V30 35 C -2.4029 -2.2092 0.0 0
M  V30 36 C 10.3923 -3.5 0.0 0
M  V30 37 C -1.5372 2.8411 0.0 0
M  V30 38 C 0.1569 3.2012 0.0 0
M  V30 39 N -1.7451 3.8193 0.0 0
M  V30 40 C -0.0509 4.1794 0.0 0
M  V30 41 C -1.002 4.4884 0.0 0
M  V30 END ATOM
M  V30 BEGIN BOND
M  V30 1 1 1 2
M  V30 2 2 2 3
M  V30 3 1 2 4
M  V30 4 1 3 5
M  V30 5 1 3 6
M  V30 6 2 4 7
M  V30 7 1 5 8
M  V30 8 2 6 9
M  V30 9 1 7 10
M  V30 10 2 8 11
M  V30 11 1 8 12
M  V30 12 1 10 13
M  V30 13 1 12 14
M  V30 14 2 13 15
M  V30 15 1 13 16
M  V30 16 1 14 17
M  V30 17 2 14 18
M  V30 18 1 15 19
M  V30 19 2 16 20
M  V30 20 1 17 21
M  V30 21 1 17 22
M  V30 22 1 18 23
M  V30 23 2 19 24
M  V30 24 1 19 25
M  V30 25 2 22 26
M  V30 26 1 22 27
M  V30 27 1 23 28
M  V30 28 2 25 29
M  V30 29 1 25 30
M  V30 30 1 26 31
M  V30 31 2 27 32
M  V30 32 1 28 33
M  V30 33 1 28 34
M  V30 34 1 28 35
M  V30 35 1 30 36
M  V30 36 1 31 37
M  V30 37 2 31 38
M  V30 38 2 37 39
M  V30 39 1 38 40
M  V30 40 1 39 41
M  V30 41 1 7 9
M  V30 42 1 20 24
M  V30 43 2 21 23
M  V30 44 1 32 37
M  V30 45 2 40 41
M  V30 END BOND
M  V30 END CTAB
M  END
>  <Molecule Name>
Compound 731

>  <Molecule Name 2>
Compound 731

>  <Compound ID>
216

>  <Name>
Rebastinib

>  <Uniprot>
P30291

>  <Target>
Wee1

>  <Smiles>
CNC(=O)C1=CC(OC2=CC=C(NC(=O)NC3=CC(C(C)(C)C)=NN3C3=CC=C4N=CC=CC4=C3)C(F)=C2)=CC=N1

>  <Kd (nM)>
>30000

>  <Assay (Kd)>
Kd apparent of Wee1

>  <Ki (nM)>


>  <Assay (Ki)>


>  <IC50 (nM)>


>  <Assay (IC50)>


>  <EC50 (nM)>


>  <Assay (EC50)>


>  <Article DOI>
10.1126/science.aan4368

>  <Molecular Weight>
553.598

>  <Exact Mass>
553.223766

>  <XLogP3>
4.93

>  <Heavy Atom Count>
41

>  <Ring Count>
5

>  <Hydrogen Bond Acceptor Count>
7

>  <Hydrogen Bond Donor Count>
3

>  <Rotatable Bond Count>
6

>  <Topological Polar Surface Area>
123.06

>  <Molecular Formula>
C30H28FN7O3

>  <InChI>
InChI=1S/C30H28FN7O3/c1-30(2,3)26-17-27(38(37-26)19-7-9-23-18(14-19)6-5-12-33-23)36-29(40)35-24-10-8-20(15-22(24)31)41-21-11-13-34-25(16-21)28(39)32-4/h5-17H,1-4H3,(H,32,39)(H2,35,36,40)

>  <InChI Key>
WVXNSAVVKYZVOE-UHFFFAOYSA-N

>  <BindingDB>
185674

>  <PubChem>
25066467

>  <ChEMBL>
CHEMBL1738757

$$$$
217
Actelion Java MolfileCreator 2.0

  0  0  0  0  0  0              0 V3000
M  V30 BEGIN CTAB
M  V30 COUNTS 28 31 0 0 0
M  V30 BEGIN ATOM
M  V30 1 O 2.598 -0.75 0.0 0
M  V30 2 C 1.299 0.0 0.0 0
M  V30 3 N 1.299 1.5 0.0 0
M  V30 4 C 0.0 -0.75 0.0 0
M  V30 5 C 2.598 2.25 0.0 0
M  V30 6 C 0.0 2.2499 0.0 0
M  V30 7 C 2.598 3.75 0.0 0
M  V30 8 C 0.0 3.75 0.0 0
M  V30 9 N 1.299 4.5 0.0 0
M  V30 10 C 1.299 6.0 0.0 0 CFG=1
M  V30 11 C 2.598 6.75 0.0 0
M  V30 12 C 0.0 6.75 0.0 0
M  V30 13 C 2.598 8.25 0.0 0
M  V30 14 C 0.0 8.25 0.0 0
M  V30 15 C 1.299 9.0 0.0 0 CFG=2
M  V30 16 N 1.299 10.5 0.0 0
M  V30 17 C 0.0 11.25 0.0 0
M  V30 18 N -1.299 10.4999 0.0 0
M  V30 19 C 0.0 12.7499 0.0 0
M  V30 20 C -2.598 11.2499 0.0 0
M  V30 21 N -1.299 13.4999 0.0 0
M  V30 22 C 1.1147 13.7536 0.0 0
M  V30 23 N -2.598 12.7499 0.0 0
M  V30 24 C -0.9871 14.9672 0.0 0
M  V30 25 C 0.5046 15.124 0.0 0
M  V30 26 C 2.5819 13.4418 0.0 0
M  V30 27 C 3.5856 14.5565 0.0 0
M  V30 28 C 3.0454 12.0152 0.0 0
M  V30 END ATOM
M  V30 BEGIN BOND
M  V30 1 2 1 2
M  V30 2 1 2 3
M  V30 3 1 2 4
M  V30 4 1 3 5
M  V30 5 1 3 6
M  V30 6 1 5 7
M  V30 7 1 6 8
M  V30 8 1 7 9
M  V30 9 1 10 9 CFG=3
M  V30 10 1 10 11
M  V30 11 1 10 12
M  V30 12 1 11 13
M  V30 13 1 12 14
M  V30 14 1 15 13
M  V30 15 1 15 16 CFG=3
M  V30 16 1 16 17
M  V30 17 2 17 18
M  V30 18 1 17 19
M  V30 19 1 18 20
M  V30 20 1 19 21
M  V30 21 2 19 22
M  V30 22 2 20 23
M  V30 23 1 21 24
M  V30 24 1 22 25
M  V30 25 1 22 26
M  V30 26 1 26 27
M  V30 27 1 26 28
M  V30 28 1 8 9
M  V30 29 1 14 15
M  V30 30 1 21 23
M  V30 31 2 24 25
M  V30 END BOND
M  V30 BEGIN COLLECTION
M  V30 MDLV30/STEABS ATOMS=(2 10 15)
M  V30 END COLLECTION
M  V30 END CTAB
M  END
>  <Molecule Name>
Compound 732

>  <Molecule Name 2>
Compound 732

>  <Compound ID>
217

>  <Name>


>  <Uniprot>
Q9Y616

>  <Target>
IRAK3

>  <Smiles>
CC(=O)N1CCN([C@H]2CC[C@@H](NC3=NC=NN4C=CC(C(C)C)=C34)CC2)CC1

>  <Kd (nM)>


>  <Assay (Kd)>


>  <Ki (nM)>


>  <Assay (Ki)>


>  <IC50 (nM)>
6

>  <Assay (IC50)>
LanthaScreen Eu IRAK3 binding displacement assay using an Alexa Fluor conjugate

>  <EC50 (nM)>


>  <Assay (EC50)>


>  <Article DOI>
10.1021/acs.jmedchem.0c01125

>  <Molecular Weight>
384.528

>  <Exact Mass>
384.2637596

>  <XLogP3>
2.5

>  <Heavy Atom Count>
28

>  <Ring Count>
4

>  <Hydrogen Bond Acceptor Count>
6

>  <Hydrogen Bond Donor Count>
1

>  <Rotatable Bond Count>
4

>  <Topological Polar Surface Area>
65.77

>  <Molecular Formula>
C21H32N6O

>  <InChI>
InChI=1S/C21H32N6O/c1-15(2)19-8-9-27-20(19)21(22-14-23-27)24-17-4-6-18(7-5-17)26-12-10-25(11-13-26)16(3)28/h8-9,14-15,17-18H,4-7,10-13H2,1-3H3,(H,22,23,24)/t17-,18+

>  <InChI Key>
FQBRQRVXPUQKLG-HDICACEKSA-N

>  <BindingDB>
50466824

>  <PubChem>
145979845

>  <ChEMBL>
CHEMBL4278882

$$$$
218
Actelion Java MolfileCreator 2.0

  0  0  0  0  0  0              0 V3000
M  V30 BEGIN CTAB
M  V30 COUNTS 29 32 0 0 0
M  V30 BEGIN ATOM
M  V30 1 O 2.598 -2.25 0.0 0
M  V30 2 C 2.598 -0.75 0.0 0
M  V30 3 N 3.8971 0.0 0.0 0
M  V30 4 N 1.299 0.0 0.0 0
M  V30 5 C 5.1961 -0.75 0.0 0
M  V30 6 C 0.0 -0.75 0.0 0
M  V30 7 C 5.1961 -2.25 0.0 0
M  V30 8 C 6.4951 0.0 0.0 0
M  V30 9 C -1.299 0.0 0.0 0
M  V30 10 C 0.0 -2.2499 0.0 0
M  V30 11 C 6.4951 -3.0 0.0 0
M  V30 12 C 7.7942 -0.75 0.0 0
M  V30 13 C -2.598 -0.7499 0.0 0
M  V30 14 C -1.299 -2.9999 0.0 0
M  V30 15 C 6.4951 -4.5 0.0 0
M  V30 16 C 7.7942 -2.25 0.0 0
M  V30 17 C -2.598 -2.2499 0.0 0
M  V30 18 C -3.8971 0.0 0.0 0
M  V30 19 C 5.1961 -5.25 0.0 0
M  V30 20 C 7.7942 -5.25 0.0 0
M  V30 21 C -3.8971 1.5 0.0 0
M  V30 22 C -5.1961 -0.7499 0.0 0
M  V30 23 C 3.7695 -4.7864 0.0 0
M  V30 24 C 5.1961 -6.75 0.0 0
M  V30 25 C 7.7942 -6.75 0.0 0
M  V30 26 N 2.8878 -5.9999 0.0 0
M  V30 27 N 3.306 -3.3598 0.0 0
M  V30 28 N 3.7695 -7.2135 0.0 0
M  V30 29 C 6.4951 -7.5 0.0 0
M  V30 END ATOM
M  V30 BEGIN BOND
M  V30 1 2 1 2
M  V30 2 1 2 3
M  V30 3 1 2 4
M  V30 4 1 3 5
M  V30 5 1 4 6
M  V30 6 2 5 7
M  V30 7 1 5 8
M  V30 8 2 6 9
M  V30 9 1 6 10
M  V30 10 1 7 11
M  V30 11 2 8 12
M  V30 12 1 9 13
M  V30 13 2 10 14
M  V30 14 1 11 15
M  V30 15 2 11 16
M  V30 16 2 13 17
M  V30 17 1 13 18
M  V30 18 2 15 19
M  V30 19 1 15 20
M  V30 20 1 18 21
M  V30 21 1 18 22
M  V30 22 1 19 23
M  V30 23 1 19 24
M  V30 24 2 20 25
M  V30 25 2 23 26
M  V30 26 1 23 27
M  V30 27 1 24 28
M  V30 28 2 24 29
M  V30 29 1 12 16
M  V30 30 1 14 17
M  V30 31 1 25 29
M  V30 32 1 26 28
M  V30 END BOND
M  V30 END CTAB
M  END
>  <Molecule Name>
Compound 733

>  <Molecule Name 2>
Compound 733

>  <Compound ID>
218

>  <Name>


>  <Uniprot>
P35968

>  <Target>
VEGFR-2

>  <Smiles>
CC(C)C1=CC=CC(NC(=O)NC2=CC=CC(C3=CC=CC4=C3C(N)=N[NH]4)=C2)=C1

>  <Kd (nM)>


>  <Assay (Kd)>


>  <Ki (nM)>


>  <Assay (Ki)>


>  <IC50 (nM)>
6.86

>  <Assay (IC50)>
IC50 was assessed by ADP-Glo Kinase Assay Kit

>  <EC50 (nM)>


>  <Assay (EC50)>


>  <Article DOI>
10.1016/j.ejmech.2020.112654

>  <Molecular Weight>
385.471

>  <Exact Mass>
385.1902604

>  <XLogP3>
4.52

>  <Heavy Atom Count>
29

>  <Ring Count>
4

>  <Hydrogen Bond Acceptor Count>
3

>  <Hydrogen Bond Donor Count>
4

>  <Rotatable Bond Count>
4

>  <Topological Polar Surface Area>
95.83

>  <Molecular Formula>
C23H23N5O

>  <InChI>
InChI=1S/C23H23N5O/c1-14(2)15-6-3-8-17(12-15)25-23(29)26-18-9-4-7-16(13-18)19-10-5-11-20-21(19)22(24)28-27-20/h3-14H,1-2H3,(H3,24,27,28)(H2,25,26,29)

>  <InChI Key>
PNJKZZZAABVQNH-UHFFFAOYSA-N

>  <BindingDB>
50130336

>  <PubChem>
122195165

>  <ChEMBL>
CHEMBL3633296

$$$$
219
Actelion Java MolfileCreator 2.0

  0  0  0  0  0  0              0 V3000
M  V30 BEGIN CTAB
M  V30 COUNTS 39 43 0 0 0
M  V30 BEGIN ATOM
M  V30 1 O 2.598 -1.9999 0.0 0
M  V30 2 C 3.4641 -1.4999 0.0 0
M  V30 3 N 4.3301 -1.9999 0.0 0
M  V30 4 C 3.4641 -0.5 0.0 0
M  V30 5 C 5.1961 -1.4999 0.0 0
M  V30 6 C 4.3301 0.0 0.0 0
M  V30 7 C 2.598 0.0 0.0 0
M  V30 8 C 5.1961 -0.4999 0.0 0
M  V30 9 C 6.0621 -1.9999 0.0 0
M  V30 10 C 4.3301 1.0 0.0 0
M  V30 11 N 1.732 -0.5 0.0 0
M  V30 12 C 0.866 0.0 0.0 0
M  V30 13 O 0.866 1.0 0.0 0
M  V30 14 C 0.0 -0.5 0.0 0
M  V30 15 C 0.0 -1.5 0.0 0
M  V30 16 C -0.866 0.0 0.0 0
M  V30 17 C -0.866 -1.9999 0.0 0
M  V30 18 C 0.7431 -2.1691 0.0 0
M  V30 19 C -1.732 -0.4999 0.0 0
M  V30 20 N -0.6581 -2.9781 0.0 0
M  V30 21 C -1.732 -1.4999 0.0 0
M  V30 22 C 0.3364 -3.0826 0.0 0
M  V30 23 C 1.7212 -1.9612 0.0 0
M  V30 24 C -2.598 0.0 0.0 0
M  V30 25 C -1.3272 -3.7212 0.0 0 CFG=2
M  V30 26 C -2.598 1.0 0.0 0
M  V30 27 C -3.4641 -0.4999 0.0 0
M  V30 28 C -2.3053 -3.5133 0.0 0
M  V30 29 C -1.0182 -4.6723 0.0 0
M  V30 30 N -3.4641 1.5 0.0 0
M  V30 31 C -4.3301 0.0 0.0 0
M  V30 32 C -2.9745 -4.2565 0.0 0
M  V30 33 C -4.3301 1.0 0.0 0
M  V30 34 N -5.1961 1.5 0.0 0
M  V30 35 C -5.1961 2.5 0.0 0
M  V30 36 C -6.0621 1.0 0.0 0
M  V30 37 C -6.0621 3.0 0.0 0
M  V30 38 C -6.9282 1.5 0.0 0
M  V30 39 N -6.9282 2.5 0.0 0
M  V30 END ATOM
M  V30 BEGIN BOND
M  V30 1 2 1 2
M  V30 2 1 2 3
M  V30 3 1 2 4
M  V30 4 1 3 5
M  V30 5 2 4 6
M  V30 6 1 4 7
M  V30 7 2 5 8
M  V30 8 1 5 9
M  V30 9 1 6 10
M  V30 10 1 7 11
M  V30 11 1 11 12
M  V30 12 2 12 13
M  V30 13 1 12 14
M  V30 14 2 14 15
M  V30 15 1 14 16
M  V30 16 1 15 17
M  V30 17 1 15 18
M  V30 18 2 16 19
M  V30 19 1 17 20
M  V30 20 2 17 21
M  V30 21 2 18 22
M  V30 22 1 18 23
M  V30 23 1 19 24
M  V30 24 1 25 20 CFG=1
M  V30 25 2 24 26
M  V30 26 1 24 27
M  V30 27 1 25 28
M  V30 28 1 25 29
M  V30 29 1 26 30
M  V30 30 2 27 31
M  V30 31 1 28 32
M  V30 32 2 30 33
M  V30 33 1 33 34
M  V30 34 1 34 35
M  V30 35 1 34 36
M  V30 36 1 35 37
M  V30 37 1 36 38
M  V30 38 1 37 39
M  V30 39 1 6 8
M  V30 40 1 19 21
M  V30 41 1 20 22
M  V30 42 1 31 33
M  V30 43 1 38 39
M  V30 END BOND
M  V30 BEGIN COLLECTION
M  V30 MDLV30/STEABS ATOMS=(1 25)
M  V30 END COLLECTION
M  V30 END CTAB
M  END
>  <Molecule Name>
Compound 734

>  <Molecule Name 2>
Compound 734

>  <Compound ID>
219

>  <Name>
GSK126

>  <Uniprot>
Q15910

>  <Target>
EZH2

>  <Smiles>
CC[C@H](C)N1C=C(C)C2=C(C(=O)NCC3=C(C)C=C(C)[NH]C3=O)C=C(C3=CC=C(N4CCNCC4)N=C3)C=C21

>  <Kd (nM)>


>  <Assay (Kd)>


>  <Ki (nM)>


>  <Assay (Ki)>


>  <IC50 (nM)>
2.7

>  <Assay (IC50)>
IC50 was assessed by an Alpha-Screen assay

>  <EC50 (nM)>


>  <Assay (EC50)>


>  <Article DOI>
10.1021/acs.jmedchem.0c02234

>  <Molecular Weight>
526.685

>  <Exact Mass>
526.3056245

>  <XLogP3>
3.86

>  <Heavy Atom Count>
39

>  <Ring Count>
5

>  <Hydrogen Bond Acceptor Count>
6

>  <Hydrogen Bond Donor Count>
3

>  <Rotatable Bond Count>
7

>  <Topological Polar Surface Area>
95.05

>  <Molecular Formula>
C31H38N6O2

>  <InChI>
InChI=1S/C31H38N6O2/c1-6-22(5)37-18-20(3)29-25(30(38)34-17-26-19(2)13-21(4)35-31(26)39)14-24(15-27(29)37)23-7-8-28(33-16-23)36-11-9-32-10-12-36/h7-8,13-16,18,22,32H,6,9-12,17H2,1-5H3,(H,34,38)(H,35,39)/t22-/m0/s1

>  <InChI Key>
FKSFKBQGSFSOSM-QFIPXVFZSA-N

>  <BindingDB>
50017293

>  <PubChem>
68210102

>  <ChEMBL>
CHEMBL3287735

$$$$
220
Actelion Java MolfileCreator 2.0

  0  0  0  0  0  0              0 V3000
M  V30 BEGIN CTAB
M  V30 COUNTS 23 25 0 0 0
M  V30 BEGIN ATOM
M  V30 1 Cl 1.299 0.0 0.0 0
M  V30 2 C 0.0 -0.75 0.0 0
M  V30 3 C -1.299 0.0 0.0 0
M  V30 4 C 0.0 -2.25 0.0 0
M  V30 5 Cl -1.299 1.5 0.0 0
M  V30 6 C -2.598 -0.75 0.0 0
M  V30 7 C 1.299 -3.0 0.0 0
M  V30 8 C -1.299 -3.0 0.0 0
M  V30 9 C -2.598 -2.25 0.0 0
M  V30 10 N 1.299 -4.5 0.0 0
M  V30 11 C 2.598 -2.25 0.0 0
M  V30 12 C 2.598 -5.25 0.0 0
M  V30 13 N 3.8971 -3.0 0.0 0
M  V30 14 N 2.598 -0.75 0.0 0
M  V30 15 C 3.8971 -4.5 0.0 0
M  V30 16 N 5.1961 -5.25 0.0 0
M  V30 17 C 5.1961 -6.75 0.0 0
M  V30 18 C 6.4952 -4.5 0.0 0
M  V30 19 C 6.4952 -7.5 0.0 0
M  V30 20 C 7.7942 -5.25 0.0 0
M  V30 21 C 7.7942 -6.75 0.0 0
M  V30 22 N 8.5442 -8.049 0.0 0
M  V30 23 C 9.2942 -6.7499 0.0 0
M  V30 END ATOM
M  V30 BEGIN BOND
M  V30 1 1 1 2
M  V30 2 2 2 3
M  V30 3 1 2 4
M  V30 4 1 3 5
M  V30 5 1 3 6
M  V30 6 1 4 7
M  V30 7 2 4 8
M  V30 8 2 6 9
M  V30 9 2 7 10
M  V30 10 1 7 11
M  V30 11 1 10 12
M  V30 12 2 11 13
M  V30 13 1 11 14
M  V30 14 2 12 15
M  V30 15 1 15 16
M  V30 16 1 16 17
M  V30 17 1 16 18
M  V30 18 1 17 19
M  V30 19 1 18 20
M  V30 20 1 19 21
M  V30 21 1 21 22
M  V30 22 1 21 23
M  V30 23 1 8 9
M  V30 24 1 13 15
M  V30 25 1 20 21
M  V30 END BOND
M  V30 END CTAB
M  END
>  <Molecule Name>
Compound 735

>  <Molecule Name 2>
Compound 735

>  <Compound ID>
220

>  <Name>
SHP099

>  <Uniprot>
Q06124

>  <Target>
SHP2

>  <Smiles>
CC1(N)CCN(C2=CN=C(C3=CC=CC(Cl)=C3Cl)C(N)=N2)CC1

>  <Kd (nM)>


>  <Assay (Kd)>


>  <Ki (nM)>


>  <Assay (Ki)>


>  <IC50 (nM)>
82

>  <Assay (IC50)>
Inhibition of SHP2

>  <EC50 (nM)>


>  <Assay (EC50)>


>  <Article DOI>
10.1016/j.bioorg.2021.104788

>  <Molecular Weight>
352.269

>  <Exact Mass>
351.101751

>  <XLogP3>
2.61

>  <Heavy Atom Count>
23

>  <Ring Count>
3

>  <Hydrogen Bond Acceptor Count>
5

>  <Hydrogen Bond Donor Count>
2

>  <Rotatable Bond Count>
2

>  <Topological Polar Surface Area>
81.06

>  <Molecular Formula>
C16H19Cl2N5

>  <InChI>
InChI=1S/C16H19Cl2N5/c1-16(20)5-7-23(8-6-16)12-9-21-14(15(19)22-12)10-3-2-4-11(17)13(10)18/h2-4,9H,5-8,20H2,1H3,(H2,19,22)

>  <InChI Key>
YGUFCDOEKKVKJK-UHFFFAOYSA-N

>  <BindingDB>
38019

>  <PubChem>
118238298

>  <ChEMBL>
CHEMBL4060033

$$$$
221
Actelion Java MolfileCreator 2.0

  0  0  0  0  0  0              0 V3000
M  V30 BEGIN CTAB
M  V30 COUNTS 24 26 0 0 0
M  V30 BEGIN ATOM
M  V30 1 N 6.0621 -1.0 0.0 0
M  V30 2 C 5.1961 -1.5 0.0 0
M  V30 3 C 4.3301 -1.9999 0.0 0
M  V30 4 C 3.4641 -1.4999 0.0 0
M  V30 5 C 3.4641 -0.5 0.0 0
M  V30 6 C 2.598 -1.9999 0.0 0
M  V30 7 C 2.598 0.0 0.0 0
M  V30 8 C 1.732 -1.5 0.0 0
M  V30 9 C 1.732 -0.5 0.0 0
M  V30 10 N 0.866 0.0 0.0 0
M  V30 11 C 0.0 -0.5 0.0 0
M  V30 12 N -0.866 0.0 0.0 0
M  V30 13 N 0.0 -1.4999 0.0 0
M  V30 14 C -1.732 -0.4999 0.0 0
M  V30 15 C -0.866 -2.0 0.0 0
M  V30 16 N -2.598 0.0 0.0 0
M  V30 17 C -1.732 -1.5 0.0 0
M  V30 18 C -3.4641 -0.4999 0.0 0
M  V30 19 N -4.3776 -0.0932 0.0 0
M  V30 20 C -3.5686 -1.4945 0.0 0
M  V30 21 N -5.0467 -0.8364 0.0 0
M  V30 22 C -4.5467 -1.7024 0.0 0
M  V30 23 C -2.8254 -2.1636 0.0 0
M  V30 24 C -4.9535 -2.6159 0.0 0
M  V30 END ATOM
M  V30 BEGIN BOND
M  V30 1 3 1 2
M  V30 2 1 2 3
M  V30 3 1 3 4
M  V30 4 2 4 5
M  V30 5 1 4 6
M  V30 6 1 5 7
M  V30 7 2 6 8
M  V30 8 2 7 9
M  V30 9 1 9 10
M  V30 10 1 10 11
M  V30 11 2 11 12
M  V30 12 1 11 13
M  V30 13 1 12 14
M  V30 14 2 13 15
M  V30 15 1 14 16
M  V30 16 2 14 17
M  V30 17 1 16 18
M  V30 18 2 18 19
M  V30 19 1 18 20
M  V30 20 1 19 21
M  V30 21 2 20 22
M  V30 22 1 20 23
M  V30 23 1 22 24
M  V30 24 1 8 9
M  V30 25 1 15 17
M  V30 26 1 21 22
M  V30 END BOND
M  V30 END CTAB
M  END
>  <Molecule Name>
Compound 736

>  <Molecule Name 2>
Compound 736

>  <Compound ID>
221

>  <Name>


>  <Uniprot>
P49840

>  <Target>
GSK3A

>  <Smiles>
CC1=C(C)C(NC2=CC=NC(NC3=CC=C(CC#N)C=C3)=N2)=N[NH]1

>  <Kd (nM)>


>  <Assay (Kd)>


>  <Ki (nM)>


>  <Assay (Ki)>


>  <IC50 (nM)>


>  <Assay (IC50)>


>  <EC50 (nM)>


>  <Assay (EC50)>


>  <Article DOI>
10.1016/j.cell.2020.10.038

>  <Molecular Weight>
319.372

>  <Exact Mass>
319.1545435

>  <XLogP3>
3

>  <Heavy Atom Count>
24

>  <Ring Count>
3

>  <Hydrogen Bond Acceptor Count>
6

>  <Hydrogen Bond Donor Count>
3

>  <Rotatable Bond Count>
5

>  <Topological Polar Surface Area>
102.31

>  <Molecular Formula>
C17H17N7

>  <InChI>
InChI=1S/C17H17N7/c1-11-12(2)23-24-16(11)21-15-8-10-19-17(22-15)20-14-5-3-13(4-6-14)7-9-18/h3-6,8,10H,7H2,1-2H3,(H3,19,20,21,22,23,24)

>  <InChI Key>
QZALFSCNUOYHAP-UHFFFAOYSA-N

>  <BindingDB>


>  <PubChem>


>  <ChEMBL>


$$$$
221
Actelion Java MolfileCreator 2.0

  0  0  0  0  0  0              0 V3000
M  V30 BEGIN CTAB
M  V30 COUNTS 24 26 0 0 0
M  V30 BEGIN ATOM
M  V30 1 N 6.0621 -1.0 0.0 0
M  V30 2 C 5.1961 -1.5 0.0 0
M  V30 3 C 4.3301 -1.9999 0.0 0
M  V30 4 C 3.4641 -1.4999 0.0 0
M  V30 5 C 3.4641 -0.5 0.0 0
M  V30 6 C 2.598 -1.9999 0.0 0
M  V30 7 C 2.598 0.0 0.0 0
M  V30 8 C 1.732 -1.5 0.0 0
M  V30 9 C 1.732 -0.5 0.0 0
M  V30 10 N 0.866 0.0 0.0 0
M  V30 11 C 0.0 -0.5 0.0 0
M  V30 12 N -0.866 0.0 0.0 0
M  V30 13 N 0.0 -1.4999 0.0 0
M  V30 14 C -1.732 -0.4999 0.0 0
M  V30 15 C -0.866 -2.0 0.0 0
M  V30 16 N -2.598 0.0 0.0 0
M  V30 17 C -1.732 -1.5 0.0 0
M  V30 18 C -3.4641 -0.4999 0.0 0
M  V30 19 N -4.3776 -0.0932 0.0 0
M  V30 20 C -3.5686 -1.4945 0.0 0
M  V30 21 N -5.0467 -0.8364 0.0 0
M  V30 22 C -4.5467 -1.7024 0.0 0
M  V30 23 C -2.8254 -2.1636 0.0 0
M  V30 24 C -4.9535 -2.6159 0.0 0
M  V30 END ATOM
M  V30 BEGIN BOND
M  V30 1 3 1 2
M  V30 2 1 2 3
M  V30 3 1 3 4
M  V30 4 2 4 5
M  V30 5 1 4 6
M  V30 6 1 5 7
M  V30 7 2 6 8
M  V30 8 2 7 9
M  V30 9 1 9 10
M  V30 10 1 10 11
M  V30 11 2 11 12
M  V30 12 1 11 13
M  V30 13 1 12 14
M  V30 14 2 13 15
M  V30 15 1 14 16
M  V30 16 2 14 17
M  V30 17 1 16 18
M  V30 18 2 18 19
M  V30 19 1 18 20
M  V30 20 1 19 21
M  V30 21 2 20 22
M  V30 22 1 20 23
M  V30 23 1 22 24
M  V30 24 1 8 9
M  V30 25 1 15 17
M  V30 26 1 21 22
M  V30 END BOND
M  V30 END CTAB
M  END
>  <Molecule Name>
Compound 737

>  <Molecule Name 2>
Compound 737

>  <Compound ID>
221

>  <Name>


>  <Uniprot>
P49841

>  <Target>
GSK-3beta

>  <Smiles>
CC1=C(C)C(NC2=CC=NC(NC3=CC=C(CC#N)C=C3)=N2)=N[NH]1

>  <Kd (nM)>


>  <Assay (Kd)>


>  <Ki (nM)>


>  <Assay (Ki)>


>  <IC50 (nM)>


>  <Assay (IC50)>


>  <EC50 (nM)>


>  <Assay (EC50)>


>  <Article DOI>
10.1016/j.cell.2020.10.038

>  <Molecular Weight>
319.372

>  <Exact Mass>
319.1545435

>  <XLogP3>
3

>  <Heavy Atom Count>
24

>  <Ring Count>
3

>  <Hydrogen Bond Acceptor Count>
6

>  <Hydrogen Bond Donor Count>
3

>  <Rotatable Bond Count>
5

>  <Topological Polar Surface Area>
102.31

>  <Molecular Formula>
C17H17N7

>  <InChI>
InChI=1S/C17H17N7/c1-11-12(2)23-24-16(11)21-15-8-10-19-17(22-15)20-14-5-3-13(4-6-14)7-9-18/h3-6,8,10H,7H2,1-2H3,(H3,19,20,21,22,23,24)

>  <InChI Key>
QZALFSCNUOYHAP-UHFFFAOYSA-N

>  <BindingDB>


>  <PubChem>


>  <ChEMBL>


$$$$
222
Actelion Java MolfileCreator 2.0

  0  0  0  0  0  0              0 V3000
M  V30 BEGIN CTAB
M  V30 COUNTS 40 44 0 0 0
M  V30 BEGIN ATOM
M  V30 1 F 2.4641 2.5 0.0 0
M  V30 2 C 3.4641 2.5 0.0 0
M  V30 3 F 3.4641 3.5 0.0 0
M  V30 4 F 4.4641 2.5 0.0 0
M  V30 5 C 3.4641 1.5 0.0 0
M  V30 6 C 2.598 1.0 0.0 0
M  V30 7 C 4.3301 1.0 0.0 0
M  V30 8 C 2.598 0.0 0.0 0
M  V30 9 C 4.3301 0.0 0.0 0
M  V30 10 C 1.732 -0.5 0.0 0
M  V30 11 C 3.4641 -0.4999 0.0 0
M  V30 12 O 1.732 -1.5 0.0 0
M  V30 13 N 0.866 0.0 0.0 0
M  V30 14 C 0.0 -0.5 0.0 0
M  V30 15 C -0.866 0.0 0.0 0
M  V30 16 C 0.0 -1.4999 0.0 0
M  V30 17 C -1.732 -0.4999 0.0 0
M  V30 18 C -0.866 -1.9999 0.0 0
M  V30 19 N -2.598 0.0 0.0 0
M  V30 20 C -1.732 -1.4999 0.0 0
M  V30 21 C -2.598 1.0 0.0 0
M  V30 22 C -3.4641 -0.4999 0.0 0
M  V30 23 C -2.598 -1.9999 0.0 0
M  V30 24 O -1.732 1.5 0.0 0
M  V30 25 N -3.4641 1.5 0.0 0
M  V30 26 C -4.3301 0.0 0.0 0
M  V30 27 C -4.3301 1.0 0.0 0
M  V30 28 C -3.4641 2.5 0.0 0
M  V30 29 C -5.1961 -0.4999 0.0 0
M  V30 30 N -5.1961 1.5 0.0 0
M  V30 31 N -6.0621 0.0 0.0 0
M  V30 32 C -6.0621 1.0 0.0 0
M  V30 33 N -6.9282 1.5 0.0 0
M  V30 34 C -7.7942 1.0 0.0 0
M  V30 35 C -8.6602 1.5 0.0 0
M  V30 36 C -7.7942 0.0 0.0 0
M  V30 37 N -9.5262 1.0 0.0 0
M  V30 38 C -8.6602 -0.4999 0.0 0
M  V30 39 C -9.5262 0.0 0.0 0
M  V30 40 C -10.3923 -0.4999 0.0 0
M  V30 END ATOM
M  V30 BEGIN BOND
M  V30 1 1 1 2
M  V30 2 1 2 3
M  V30 3 1 2 4
M  V30 4 1 2 5
M  V30 5 2 5 6
M  V30 6 1 5 7
M  V30 7 1 6 8
M  V30 8 2 7 9
M  V30 9 1 8 10
M  V30 10 2 8 11
M  V30 11 2 10 12
M  V30 12 1 10 13
M  V30 13 1 13 14
M  V30 14 2 14 15
M  V30 15 1 14 16
M  V30 16 1 15 17
M  V30 17 2 16 18
M  V30 18 1 17 19
M  V30 19 2 17 20
M  V30 20 1 19 21
M  V30 21 1 19 22
M  V30 22 1 20 23
M  V30 23 2 21 24
M  V30 24 1 21 25
M  V30 25 1 22 26
M  V30 26 1 25 27
M  V30 27 1 25 28
M  V30 28 1 26 29
M  V30 29 1 27 30
M  V30 30 2 29 31
M  V30 31 2 30 32
M  V30 32 1 32 33
M  V30 33 1 33 34
M  V30 34 2 34 35
M  V30 35 1 34 36
M  V30 36 1 35 37
M  V30 37 2 36 38
M  V30 38 2 37 39
M  V30 39 1 39 40
M  V30 40 1 9 11
M  V30 41 1 18 20
M  V30 42 2 26 27
M  V30 43 1 31 32
M  V30 44 1 38 39
M  V30 END BOND
M  V30 END CTAB
M  END
>  <Molecule Name>
Compound 738

>  <Molecule Name 2>
Compound 738

>  <Compound ID>
222

>  <Name>
GNF-7

>  <Uniprot>
P00519

>  <Target>
ABL1

>  <Smiles>
CC1=CC=C(NC2=NC=C3CN(C4=CC(NC(=O)C5=CC=CC(C(F)(F)F)=C5)=CC=C4C)C(=O)N(C)C3=N2)C=N1

>  <Kd (nM)>


>  <Assay (Kd)>


>  <Ki (nM)>


>  <Assay (Ki)>


>  <IC50 (nM)>
133

>  <Assay (IC50)>
Inhibition of ABL1

>  <EC50 (nM)>


>  <Assay (EC50)>


>  <Article DOI>
10.1021/jm901808w

>  <Molecular Weight>
547.541

>  <Exact Mass>
547.1943577

>  <XLogP3>
4.33

>  <Heavy Atom Count>
40

>  <Ring Count>
5

>  <Hydrogen Bond Acceptor Count>
6

>  <Hydrogen Bond Donor Count>
2

>  <Rotatable Bond Count>
5

>  <Topological Polar Surface Area>
103.35

>  <Molecular Formula>
C28H24F3N7O2

>  <InChI>
InChI=1S/C28H24F3N7O2/c1-16-7-9-21(34-25(39)18-5-4-6-20(11-18)28(29,30)31)12-23(16)38-15-19-13-33-26(36-24(19)37(3)27(38)40)35-22-10-8-17(2)32-14-22/h4-14H,15H2,1-3H3,(H,34,39)(H,33,35,36)

>  <InChI Key>
SZNYUUZOQHNEKB-UHFFFAOYSA-N

>  <BindingDB>
50323777

>  <PubChem>
11478363

>  <ChEMBL>
CHEMBL1214141

$$$$
222
Actelion Java MolfileCreator 2.0

  0  0  0  0  0  0              0 V3000
M  V30 BEGIN CTAB
M  V30 COUNTS 40 44 0 0 0
M  V30 BEGIN ATOM
M  V30 1 F 2.4641 2.5 0.0 0
M  V30 2 C 3.4641 2.5 0.0 0
M  V30 3 F 3.4641 3.5 0.0 0
M  V30 4 F 4.4641 2.5 0.0 0
M  V30 5 C 3.4641 1.5 0.0 0
M  V30 6 C 2.598 1.0 0.0 0
M  V30 7 C 4.3301 1.0 0.0 0
M  V30 8 C 2.598 0.0 0.0 0
M  V30 9 C 4.3301 0.0 0.0 0
M  V30 10 C 1.732 -0.5 0.0 0
M  V30 11 C 3.4641 -0.4999 0.0 0
M  V30 12 O 1.732 -1.5 0.0 0
M  V30 13 N 0.866 0.0 0.0 0
M  V30 14 C 0.0 -0.5 0.0 0
M  V30 15 C -0.866 0.0 0.0 0
M  V30 16 C 0.0 -1.4999 0.0 0
M  V30 17 C -1.732 -0.4999 0.0 0
M  V30 18 C -0.866 -1.9999 0.0 0
M  V30 19 N -2.598 0.0 0.0 0
M  V30 20 C -1.732 -1.4999 0.0 0
M  V30 21 C -2.598 1.0 0.0 0
M  V30 22 C -3.4641 -0.4999 0.0 0
M  V30 23 C -2.598 -1.9999 0.0 0
M  V30 24 O -1.732 1.5 0.0 0
M  V30 25 N -3.4641 1.5 0.0 0
M  V30 26 C -4.3301 0.0 0.0 0
M  V30 27 C -4.3301 1.0 0.0 0
M  V30 28 C -3.4641 2.5 0.0 0
M  V30 29 C -5.1961 -0.4999 0.0 0
M  V30 30 N -5.1961 1.5 0.0 0
M  V30 31 N -6.0621 0.0 0.0 0
M  V30 32 C -6.0621 1.0 0.0 0
M  V30 33 N -6.9282 1.5 0.0 0
M  V30 34 C -7.7942 1.0 0.0 0
M  V30 35 C -8.6602 1.5 0.0 0
M  V30 36 C -7.7942 0.0 0.0 0
M  V30 37 N -9.5262 1.0 0.0 0
M  V30 38 C -8.6602 -0.4999 0.0 0
M  V30 39 C -9.5262 0.0 0.0 0
M  V30 40 C -10.3923 -0.4999 0.0 0
M  V30 END ATOM
M  V30 BEGIN BOND
M  V30 1 1 1 2
M  V30 2 1 2 3
M  V30 3 1 2 4
M  V30 4 1 2 5
M  V30 5 2 5 6
M  V30 6 1 5 7
M  V30 7 1 6 8
M  V30 8 2 7 9
M  V30 9 1 8 10
M  V30 10 2 8 11
M  V30 11 2 10 12
M  V30 12 1 10 13
M  V30 13 1 13 14
M  V30 14 2 14 15
M  V30 15 1 14 16
M  V30 16 1 15 17
M  V30 17 2 16 18
M  V30 18 1 17 19
M  V30 19 2 17 20
M  V30 20 1 19 21
M  V30 21 1 19 22
M  V30 22 1 20 23
M  V30 23 2 21 24
M  V30 24 1 21 25
M  V30 25 1 22 26
M  V30 26 1 25 27
M  V30 27 1 25 28
M  V30 28 1 26 29
M  V30 29 1 27 30
M  V30 30 2 29 31
M  V30 31 2 30 32
M  V30 32 1 32 33
M  V30 33 1 33 34
M  V30 34 2 34 35
M  V30 35 1 34 36
M  V30 36 1 35 37
M  V30 37 2 36 38
M  V30 38 2 37 39
M  V30 39 1 39 40
M  V30 40 1 9 11
M  V30 41 1 18 20
M  V30 42 2 26 27
M  V30 43 1 31 32
M  V30 44 1 38 39
M  V30 END BOND
M  V30 END CTAB
M  END
>  <Molecule Name>
Compound 739

>  <Molecule Name 2>
Compound 739

>  <Compound ID>
222

>  <Name>
GNF-7

>  <Uniprot>
P42684

>  <Target>
ABL2

>  <Smiles>
CC1=CC=C(NC2=NC=C3CN(C4=CC(NC(=O)C5=CC=CC(C(F)(F)F)=C5)=CC=C4C)C(=O)N(C)C3=N2)C=N1

>  <Kd (nM)>


>  <Assay (Kd)>


>  <Ki (nM)>


>  <Assay (Ki)>


>  <IC50 (nM)>


>  <Assay (IC50)>


>  <EC50 (nM)>


>  <Assay (EC50)>


>  <Article DOI>


>  <Molecular Weight>
547.541

>  <Exact Mass>
547.1943577

>  <XLogP3>
4.33

>  <Heavy Atom Count>
40

>  <Ring Count>
5

>  <Hydrogen Bond Acceptor Count>
6

>  <Hydrogen Bond Donor Count>
2

>  <Rotatable Bond Count>
5

>  <Topological Polar Surface Area>
103.35

>  <Molecular Formula>
C28H24F3N7O2

>  <InChI>
InChI=1S/C28H24F3N7O2/c1-16-7-9-21(34-25(39)18-5-4-6-20(11-18)28(29,30)31)12-23(16)38-15-19-13-33-26(36-24(19)37(3)27(38)40)35-22-10-8-17(2)32-14-22/h4-14H,15H2,1-3H3,(H,34,39)(H,33,35,36)

>  <InChI Key>
SZNYUUZOQHNEKB-UHFFFAOYSA-N

>  <BindingDB>
50323777

>  <PubChem>
11478363

>  <ChEMBL>
CHEMBL1214141

$$$$
222
Actelion Java MolfileCreator 2.0

  0  0  0  0  0  0              0 V3000
M  V30 BEGIN CTAB
M  V30 COUNTS 40 44 0 0 0
M  V30 BEGIN ATOM
M  V30 1 F 2.4641 2.5 0.0 0
M  V30 2 C 3.4641 2.5 0.0 0
M  V30 3 F 3.4641 3.5 0.0 0
M  V30 4 F 4.4641 2.5 0.0 0
M  V30 5 C 3.4641 1.5 0.0 0
M  V30 6 C 2.598 1.0 0.0 0
M  V30 7 C 4.3301 1.0 0.0 0
M  V30 8 C 2.598 0.0 0.0 0
M  V30 9 C 4.3301 0.0 0.0 0
M  V30 10 C 1.732 -0.5 0.0 0
M  V30 11 C 3.4641 -0.4999 0.0 0
M  V30 12 O 1.732 -1.5 0.0 0
M  V30 13 N 0.866 0.0 0.0 0
M  V30 14 C 0.0 -0.5 0.0 0
M  V30 15 C -0.866 0.0 0.0 0
M  V30 16 C 0.0 -1.4999 0.0 0
M  V30 17 C -1.732 -0.4999 0.0 0
M  V30 18 C -0.866 -1.9999 0.0 0
M  V30 19 N -2.598 0.0 0.0 0
M  V30 20 C -1.732 -1.4999 0.0 0
M  V30 21 C -2.598 1.0 0.0 0
M  V30 22 C -3.4641 -0.4999 0.0 0
M  V30 23 C -2.598 -1.9999 0.0 0
M  V30 24 O -1.732 1.5 0.0 0
M  V30 25 N -3.4641 1.5 0.0 0
M  V30 26 C -4.3301 0.0 0.0 0
M  V30 27 C -4.3301 1.0 0.0 0
M  V30 28 C -3.4641 2.5 0.0 0
M  V30 29 C -5.1961 -0.4999 0.0 0
M  V30 30 N -5.1961 1.5 0.0 0
M  V30 31 N -6.0621 0.0 0.0 0
M  V30 32 C -6.0621 1.0 0.0 0
M  V30 33 N -6.9282 1.5 0.0 0
M  V30 34 C -7.7942 1.0 0.0 0
M  V30 35 C -8.6602 1.5 0.0 0
M  V30 36 C -7.7942 0.0 0.0 0
M  V30 37 N -9.5262 1.0 0.0 0
M  V30 38 C -8.6602 -0.4999 0.0 0
M  V30 39 C -9.5262 0.0 0.0 0
M  V30 40 C -10.3923 -0.4999 0.0 0
M  V30 END ATOM
M  V30 BEGIN BOND
M  V30 1 1 1 2
M  V30 2 1 2 3
M  V30 3 1 2 4
M  V30 4 1 2 5
M  V30 5 2 5 6
M  V30 6 1 5 7
M  V30 7 1 6 8
M  V30 8 2 7 9
M  V30 9 1 8 10
M  V30 10 2 8 11
M  V30 11 2 10 12
M  V30 12 1 10 13
M  V30 13 1 13 14
M  V30 14 2 14 15
M  V30 15 1 14 16
M  V30 16 1 15 17
M  V30 17 2 16 18
M  V30 18 1 17 19
M  V30 19 2 17 20
M  V30 20 1 19 21
M  V30 21 1 19 22
M  V30 22 1 20 23
M  V30 23 2 21 24
M  V30 24 1 21 25
M  V30 25 1 22 26
M  V30 26 1 25 27
M  V30 27 1 25 28
M  V30 28 1 26 29
M  V30 29 1 27 30
M  V30 30 2 29 31
M  V30 31 2 30 32
M  V30 32 1 32 33
M  V30 33 1 33 34
M  V30 34 2 34 35
M  V30 35 1 34 36
M  V30 36 1 35 37
M  V30 37 2 36 38
M  V30 38 2 37 39
M  V30 39 1 39 40
M  V30 40 1 9 11
M  V30 41 1 18 20
M  V30 42 2 26 27
M  V30 43 1 31 32
M  V30 44 1 38 39
M  V30 END BOND
M  V30 END CTAB
M  END
>  <Molecule Name>
Compound 740

>  <Molecule Name 2>
Compound 740

>  <Compound ID>
222

>  <Name>
GNF-7

>  <Uniprot>
O14965

>  <Target>
AURKA

>  <Smiles>
CC1=CC=C(NC2=NC=C3CN(C4=CC(NC(=O)C5=CC=CC(C(F)(F)F)=C5)=CC=C4C)C(=O)N(C)C3=N2)C=N1

>  <Kd (nM)>


>  <Assay (Kd)>


>  <Ki (nM)>


>  <Assay (Ki)>


>  <IC50 (nM)>


>  <Assay (IC50)>


>  <EC50 (nM)>


>  <Assay (EC50)>


>  <Article DOI>


>  <Molecular Weight>
547.541

>  <Exact Mass>
547.1943577

>  <XLogP3>
4.33

>  <Heavy Atom Count>
40

>  <Ring Count>
5

>  <Hydrogen Bond Acceptor Count>
6

>  <Hydrogen Bond Donor Count>
2

>  <Rotatable Bond Count>
5

>  <Topological Polar Surface Area>
103.35

>  <Molecular Formula>
C28H24F3N7O2

>  <InChI>
InChI=1S/C28H24F3N7O2/c1-16-7-9-21(34-25(39)18-5-4-6-20(11-18)28(29,30)31)12-23(16)38-15-19-13-33-26(36-24(19)37(3)27(38)40)35-22-10-8-17(2)32-14-22/h4-14H,15H2,1-3H3,(H,34,39)(H,33,35,36)

>  <InChI Key>
SZNYUUZOQHNEKB-UHFFFAOYSA-N

>  <BindingDB>
50323777

>  <PubChem>
11478363

>  <ChEMBL>
CHEMBL1214141

$$$$
222
Actelion Java MolfileCreator 2.0

  0  0  0  0  0  0              0 V3000
M  V30 BEGIN CTAB
M  V30 COUNTS 40 44 0 0 0
M  V30 BEGIN ATOM
M  V30 1 F 2.4641 2.5 0.0 0
M  V30 2 C 3.4641 2.5 0.0 0
M  V30 3 F 3.4641 3.5 0.0 0
M  V30 4 F 4.4641 2.5 0.0 0
M  V30 5 C 3.4641 1.5 0.0 0
M  V30 6 C 2.598 1.0 0.0 0
M  V30 7 C 4.3301 1.0 0.0 0
M  V30 8 C 2.598 0.0 0.0 0
M  V30 9 C 4.3301 0.0 0.0 0
M  V30 10 C 1.732 -0.5 0.0 0
M  V30 11 C 3.4641 -0.4999 0.0 0
M  V30 12 O 1.732 -1.5 0.0 0
M  V30 13 N 0.866 0.0 0.0 0
M  V30 14 C 0.0 -0.5 0.0 0
M  V30 15 C -0.866 0.0 0.0 0
M  V30 16 C 0.0 -1.4999 0.0 0
M  V30 17 C -1.732 -0.4999 0.0 0
M  V30 18 C -0.866 -1.9999 0.0 0
M  V30 19 N -2.598 0.0 0.0 0
M  V30 20 C -1.732 -1.4999 0.0 0
M  V30 21 C -2.598 1.0 0.0 0
M  V30 22 C -3.4641 -0.4999 0.0 0
M  V30 23 C -2.598 -1.9999 0.0 0
M  V30 24 O -1.732 1.5 0.0 0
M  V30 25 N -3.4641 1.5 0.0 0
M  V30 26 C -4.3301 0.0 0.0 0
M  V30 27 C -4.3301 1.0 0.0 0
M  V30 28 C -3.4641 2.5 0.0 0
M  V30 29 C -5.1961 -0.4999 0.0 0
M  V30 30 N -5.1961 1.5 0.0 0
M  V30 31 N -6.0621 0.0 0.0 0
M  V30 32 C -6.0621 1.0 0.0 0
M  V30 33 N -6.9282 1.5 0.0 0
M  V30 34 C -7.7942 1.0 0.0 0
M  V30 35 C -8.6602 1.5 0.0 0
M  V30 36 C -7.7942 0.0 0.0 0
M  V30 37 N -9.5262 1.0 0.0 0
M  V30 38 C -8.6602 -0.4999 0.0 0
M  V30 39 C -9.5262 0.0 0.0 0
M  V30 40 C -10.3923 -0.4999 0.0 0
M  V30 END ATOM
M  V30 BEGIN BOND
M  V30 1 1 1 2
M  V30 2 1 2 3
M  V30 3 1 2 4
M  V30 4 1 2 5
M  V30 5 2 5 6
M  V30 6 1 5 7
M  V30 7 1 6 8
M  V30 8 2 7 9
M  V30 9 1 8 10
M  V30 10 2 8 11
M  V30 11 2 10 12
M  V30 12 1 10 13
M  V30 13 1 13 14
M  V30 14 2 14 15
M  V30 15 1 14 16
M  V30 16 1 15 17
M  V30 17 2 16 18
M  V30 18 1 17 19
M  V30 19 2 17 20
M  V30 20 1 19 21
M  V30 21 1 19 22
M  V30 22 1 20 23
M  V30 23 2 21 24
M  V30 24 1 21 25
M  V30 25 1 22 26
M  V30 26 1 25 27
M  V30 27 1 25 28
M  V30 28 1 26 29
M  V30 29 1 27 30
M  V30 30 2 29 31
M  V30 31 2 30 32
M  V30 32 1 32 33
M  V30 33 1 33 34
M  V30 34 2 34 35
M  V30 35 1 34 36
M  V30 36 1 35 37
M  V30 37 2 36 38
M  V30 38 2 37 39
M  V30 39 1 39 40
M  V30 40 1 9 11
M  V30 41 1 18 20
M  V30 42 2 26 27
M  V30 43 1 31 32
M  V30 44 1 38 39
M  V30 END BOND
M  V30 END CTAB
M  END
>  <Molecule Name>
Compound 741

>  <Molecule Name 2>
Compound 741

>  <Compound ID>
222

>  <Name>
GNF-7

>  <Uniprot>
P51451

>  <Target>
BLK

>  <Smiles>
CC1=CC=C(NC2=NC=C3CN(C4=CC(NC(=O)C5=CC=CC(C(F)(F)F)=C5)=CC=C4C)C(=O)N(C)C3=N2)C=N1

>  <Kd (nM)>


>  <Assay (Kd)>


>  <Ki (nM)>


>  <Assay (Ki)>


>  <IC50 (nM)>


>  <Assay (IC50)>


>  <EC50 (nM)>


>  <Assay (EC50)>


>  <Article DOI>


>  <Molecular Weight>
547.541

>  <Exact Mass>
547.1943577

>  <XLogP3>
4.33

>  <Heavy Atom Count>
40

>  <Ring Count>
5

>  <Hydrogen Bond Acceptor Count>
6

>  <Hydrogen Bond Donor Count>
2

>  <Rotatable Bond Count>
5

>  <Topological Polar Surface Area>
103.35

>  <Molecular Formula>
C28H24F3N7O2

>  <InChI>
InChI=1S/C28H24F3N7O2/c1-16-7-9-21(34-25(39)18-5-4-6-20(11-18)28(29,30)31)12-23(16)38-15-19-13-33-26(36-24(19)37(3)27(38)40)35-22-10-8-17(2)32-14-22/h4-14H,15H2,1-3H3,(H,34,39)(H,33,35,36)

>  <InChI Key>
SZNYUUZOQHNEKB-UHFFFAOYSA-N

>  <BindingDB>
50323777

>  <PubChem>
11478363

>  <ChEMBL>
CHEMBL1214141

$$$$
222
Actelion Java MolfileCreator 2.0

  0  0  0  0  0  0              0 V3000
M  V30 BEGIN CTAB
M  V30 COUNTS 40 44 0 0 0
M  V30 BEGIN ATOM
M  V30 1 F 2.4641 2.5 0.0 0
M  V30 2 C 3.4641 2.5 0.0 0
M  V30 3 F 3.4641 3.5 0.0 0
M  V30 4 F 4.4641 2.5 0.0 0
M  V30 5 C 3.4641 1.5 0.0 0
M  V30 6 C 2.598 1.0 0.0 0
M  V30 7 C 4.3301 1.0 0.0 0
M  V30 8 C 2.598 0.0 0.0 0
M  V30 9 C 4.3301 0.0 0.0 0
M  V30 10 C 1.732 -0.5 0.0 0
M  V30 11 C 3.4641 -0.4999 0.0 0
M  V30 12 O 1.732 -1.5 0.0 0
M  V30 13 N 0.866 0.0 0.0 0
M  V30 14 C 0.0 -0.5 0.0 0
M  V30 15 C -0.866 0.0 0.0 0
M  V30 16 C 0.0 -1.4999 0.0 0
M  V30 17 C -1.732 -0.4999 0.0 0
M  V30 18 C -0.866 -1.9999 0.0 0
M  V30 19 N -2.598 0.0 0.0 0
M  V30 20 C -1.732 -1.4999 0.0 0
M  V30 21 C -2.598 1.0 0.0 0
M  V30 22 C -3.4641 -0.4999 0.0 0
M  V30 23 C -2.598 -1.9999 0.0 0
M  V30 24 O -1.732 1.5 0.0 0
M  V30 25 N -3.4641 1.5 0.0 0
M  V30 26 C -4.3301 0.0 0.0 0
M  V30 27 C -4.3301 1.0 0.0 0
M  V30 28 C -3.4641 2.5 0.0 0
M  V30 29 C -5.1961 -0.4999 0.0 0
M  V30 30 N -5.1961 1.5 0.0 0
M  V30 31 N -6.0621 0.0 0.0 0
M  V30 32 C -6.0621 1.0 0.0 0
M  V30 33 N -6.9282 1.5 0.0 0
M  V30 34 C -7.7942 1.0 0.0 0
M  V30 35 C -8.6602 1.5 0.0 0
M  V30 36 C -7.7942 0.0 0.0 0
M  V30 37 N -9.5262 1.0 0.0 0
M  V30 38 C -8.6602 -0.4999 0.0 0
M  V30 39 C -9.5262 0.0 0.0 0
M  V30 40 C -10.3923 -0.4999 0.0 0
M  V30 END ATOM
M  V30 BEGIN BOND
M  V30 1 1 1 2
M  V30 2 1 2 3
M  V30 3 1 2 4
M  V30 4 1 2 5
M  V30 5 2 5 6
M  V30 6 1 5 7
M  V30 7 1 6 8
M  V30 8 2 7 9
M  V30 9 1 8 10
M  V30 10 2 8 11
M  V30 11 2 10 12
M  V30 12 1 10 13
M  V30 13 1 13 14
M  V30 14 2 14 15
M  V30 15 1 14 16
M  V30 16 1 15 17
M  V30 17 2 16 18
M  V30 18 1 17 19
M  V30 19 2 17 20
M  V30 20 1 19 21
M  V30 21 1 19 22
M  V30 22 1 20 23
M  V30 23 2 21 24
M  V30 24 1 21 25
M  V30 25 1 22 26
M  V30 26 1 25 27
M  V30 27 1 25 28
M  V30 28 1 26 29
M  V30 29 1 27 30
M  V30 30 2 29 31
M  V30 31 2 30 32
M  V30 32 1 32 33
M  V30 33 1 33 34
M  V30 34 2 34 35
M  V30 35 1 34 36
M  V30 36 1 35 37
M  V30 37 2 36 38
M  V30 38 2 37 39
M  V30 39 1 39 40
M  V30 40 1 9 11
M  V30 41 1 18 20
M  V30 42 2 26 27
M  V30 43 1 31 32
M  V30 44 1 38 39
M  V30 END BOND
M  V30 END CTAB
M  END
>  <Molecule Name>
Compound 742

>  <Molecule Name 2>
Compound 742

>  <Compound ID>
222

>  <Name>
GNF-7

>  <Uniprot>
O43683

>  <Target>
BUB1

>  <Smiles>
CC1=CC=C(NC2=NC=C3CN(C4=CC(NC(=O)C5=CC=CC(C(F)(F)F)=C5)=CC=C4C)C(=O)N(C)C3=N2)C=N1

>  <Kd (nM)>


>  <Assay (Kd)>


>  <Ki (nM)>


>  <Assay (Ki)>


>  <IC50 (nM)>


>  <Assay (IC50)>


>  <EC50 (nM)>


>  <Assay (EC50)>


>  <Article DOI>


>  <Molecular Weight>
547.541

>  <Exact Mass>
547.1943577

>  <XLogP3>
4.33

>  <Heavy Atom Count>
40

>  <Ring Count>
5

>  <Hydrogen Bond Acceptor Count>
6

>  <Hydrogen Bond Donor Count>
2

>  <Rotatable Bond Count>
5

>  <Topological Polar Surface Area>
103.35

>  <Molecular Formula>
C28H24F3N7O2

>  <InChI>
InChI=1S/C28H24F3N7O2/c1-16-7-9-21(34-25(39)18-5-4-6-20(11-18)28(29,30)31)12-23(16)38-15-19-13-33-26(36-24(19)37(3)27(38)40)35-22-10-8-17(2)32-14-22/h4-14H,15H2,1-3H3,(H,34,39)(H,33,35,36)

>  <InChI Key>
SZNYUUZOQHNEKB-UHFFFAOYSA-N

>  <BindingDB>
50323777

>  <PubChem>
11478363

>  <ChEMBL>
CHEMBL1214141

$$$$
222
Actelion Java MolfileCreator 2.0

  0  0  0  0  0  0              0 V3000
M  V30 BEGIN CTAB
M  V30 COUNTS 40 44 0 0 0
M  V30 BEGIN ATOM
M  V30 1 F 2.4641 2.5 0.0 0
M  V30 2 C 3.4641 2.5 0.0 0
M  V30 3 F 3.4641 3.5 0.0 0
M  V30 4 F 4.4641 2.5 0.0 0
M  V30 5 C 3.4641 1.5 0.0 0
M  V30 6 C 2.598 1.0 0.0 0
M  V30 7 C 4.3301 1.0 0.0 0
M  V30 8 C 2.598 0.0 0.0 0
M  V30 9 C 4.3301 0.0 0.0 0
M  V30 10 C 1.732 -0.5 0.0 0
M  V30 11 C 3.4641 -0.4999 0.0 0
M  V30 12 O 1.732 -1.5 0.0 0
M  V30 13 N 0.866 0.0 0.0 0
M  V30 14 C 0.0 -0.5 0.0 0
M  V30 15 C -0.866 0.0 0.0 0
M  V30 16 C 0.0 -1.4999 0.0 0
M  V30 17 C -1.732 -0.4999 0.0 0
M  V30 18 C -0.866 -1.9999 0.0 0
M  V30 19 N -2.598 0.0 0.0 0
M  V30 20 C -1.732 -1.4999 0.0 0
M  V30 21 C -2.598 1.0 0.0 0
M  V30 22 C -3.4641 -0.4999 0.0 0
M  V30 23 C -2.598 -1.9999 0.0 0
M  V30 24 O -1.732 1.5 0.0 0
M  V30 25 N -3.4641 1.5 0.0 0
M  V30 26 C -4.3301 0.0 0.0 0
M  V30 27 C -4.3301 1.0 0.0 0
M  V30 28 C -3.4641 2.5 0.0 0
M  V30 29 C -5.1961 -0.4999 0.0 0
M  V30 30 N -5.1961 1.5 0.0 0
M  V30 31 N -6.0621 0.0 0.0 0
M  V30 32 C -6.0621 1.0 0.0 0
M  V30 33 N -6.9282 1.5 0.0 0
M  V30 34 C -7.7942 1.0 0.0 0
M  V30 35 C -8.6602 1.5 0.0 0
M  V30 36 C -7.7942 0.0 0.0 0
M  V30 37 N -9.5262 1.0 0.0 0
M  V30 38 C -8.6602 -0.4999 0.0 0
M  V30 39 C -9.5262 0.0 0.0 0
M  V30 40 C -10.3923 -0.4999 0.0 0
M  V30 END ATOM
M  V30 BEGIN BOND
M  V30 1 1 1 2
M  V30 2 1 2 3
M  V30 3 1 2 4
M  V30 4 1 2 5
M  V30 5 2 5 6
M  V30 6 1 5 7
M  V30 7 1 6 8
M  V30 8 2 7 9
M  V30 9 1 8 10
M  V30 10 2 8 11
M  V30 11 2 10 12
M  V30 12 1 10 13
M  V30 13 1 13 14
M  V30 14 2 14 15
M  V30 15 1 14 16
M  V30 16 1 15 17
M  V30 17 2 16 18
M  V30 18 1 17 19
M  V30 19 2 17 20
M  V30 20 1 19 21
M  V30 21 1 19 22
M  V30 22 1 20 23
M  V30 23 2 21 24
M  V30 24 1 21 25
M  V30 25 1 22 26
M  V30 26 1 25 27
M  V30 27 1 25 28
M  V30 28 1 26 29
M  V30 29 1 27 30
M  V30 30 2 29 31
M  V30 31 2 30 32
M  V30 32 1 32 33
M  V30 33 1 33 34
M  V30 34 2 34 35
M  V30 35 1 34 36
M  V30 36 1 35 37
M  V30 37 2 36 38
M  V30 38 2 37 39
M  V30 39 1 39 40
M  V30 40 1 9 11
M  V30 41 1 18 20
M  V30 42 2 26 27
M  V30 43 1 31 32
M  V30 44 1 38 39
M  V30 END BOND
M  V30 END CTAB
M  END
>  <Molecule Name>
Compound 743

>  <Molecule Name 2>
Compound 743

>  <Compound ID>
222

>  <Name>
GNF-7

>  <Uniprot>
Q9UQ88

>  <Target>
CDK11A

>  <Smiles>
CC1=CC=C(NC2=NC=C3CN(C4=CC(NC(=O)C5=CC=CC(C(F)(F)F)=C5)=CC=C4C)C(=O)N(C)C3=N2)C=N1

>  <Kd (nM)>


>  <Assay (Kd)>


>  <Ki (nM)>


>  <Assay (Ki)>


>  <IC50 (nM)>


>  <Assay (IC50)>


>  <EC50 (nM)>


>  <Assay (EC50)>


>  <Article DOI>


>  <Molecular Weight>
547.541

>  <Exact Mass>
547.1943577

>  <XLogP3>
4.33

>  <Heavy Atom Count>
40

>  <Ring Count>
5

>  <Hydrogen Bond Acceptor Count>
6

>  <Hydrogen Bond Donor Count>
2

>  <Rotatable Bond Count>
5

>  <Topological Polar Surface Area>
103.35

>  <Molecular Formula>
C28H24F3N7O2

>  <InChI>
InChI=1S/C28H24F3N7O2/c1-16-7-9-21(34-25(39)18-5-4-6-20(11-18)28(29,30)31)12-23(16)38-15-19-13-33-26(36-24(19)37(3)27(38)40)35-22-10-8-17(2)32-14-22/h4-14H,15H2,1-3H3,(H,34,39)(H,33,35,36)

>  <InChI Key>
SZNYUUZOQHNEKB-UHFFFAOYSA-N

>  <BindingDB>
50323777

>  <PubChem>
11478363

>  <ChEMBL>
CHEMBL1214141

$$$$
222
Actelion Java MolfileCreator 2.0

  0  0  0  0  0  0              0 V3000
M  V30 BEGIN CTAB
M  V30 COUNTS 40 44 0 0 0
M  V30 BEGIN ATOM
M  V30 1 F 2.4641 2.5 0.0 0
M  V30 2 C 3.4641 2.5 0.0 0
M  V30 3 F 3.4641 3.5 0.0 0
M  V30 4 F 4.4641 2.5 0.0 0
M  V30 5 C 3.4641 1.5 0.0 0
M  V30 6 C 2.598 1.0 0.0 0
M  V30 7 C 4.3301 1.0 0.0 0
M  V30 8 C 2.598 0.0 0.0 0
M  V30 9 C 4.3301 0.0 0.0 0
M  V30 10 C 1.732 -0.5 0.0 0
M  V30 11 C 3.4641 -0.4999 0.0 0
M  V30 12 O 1.732 -1.5 0.0 0
M  V30 13 N 0.866 0.0 0.0 0
M  V30 14 C 0.0 -0.5 0.0 0
M  V30 15 C -0.866 0.0 0.0 0
M  V30 16 C 0.0 -1.4999 0.0 0
M  V30 17 C -1.732 -0.4999 0.0 0
M  V30 18 C -0.866 -1.9999 0.0 0
M  V30 19 N -2.598 0.0 0.0 0
M  V30 20 C -1.732 -1.4999 0.0 0
M  V30 21 C -2.598 1.0 0.0 0
M  V30 22 C -3.4641 -0.4999 0.0 0
M  V30 23 C -2.598 -1.9999 0.0 0
M  V30 24 O -1.732 1.5 0.0 0
M  V30 25 N -3.4641 1.5 0.0 0
M  V30 26 C -4.3301 0.0 0.0 0
M  V30 27 C -4.3301 1.0 0.0 0
M  V30 28 C -3.4641 2.5 0.0 0
M  V30 29 C -5.1961 -0.4999 0.0 0
M  V30 30 N -5.1961 1.5 0.0 0
M  V30 31 N -6.0621 0.0 0.0 0
M  V30 32 C -6.0621 1.0 0.0 0
M  V30 33 N -6.9282 1.5 0.0 0
M  V30 34 C -7.7942 1.0 0.0 0
M  V30 35 C -8.6602 1.5 0.0 0
M  V30 36 C -7.7942 0.0 0.0 0
M  V30 37 N -9.5262 1.0 0.0 0
M  V30 38 C -8.6602 -0.4999 0.0 0
M  V30 39 C -9.5262 0.0 0.0 0
M  V30 40 C -10.3923 -0.4999 0.0 0
M  V30 END ATOM
M  V30 BEGIN BOND
M  V30 1 1 1 2
M  V30 2 1 2 3
M  V30 3 1 2 4
M  V30 4 1 2 5
M  V30 5 2 5 6
M  V30 6 1 5 7
M  V30 7 1 6 8
M  V30 8 2 7 9
M  V30 9 1 8 10
M  V30 10 2 8 11
M  V30 11 2 10 12
M  V30 12 1 10 13
M  V30 13 1 13 14
M  V30 14 2 14 15
M  V30 15 1 14 16
M  V30 16 1 15 17
M  V30 17 2 16 18
M  V30 18 1 17 19
M  V30 19 2 17 20
M  V30 20 1 19 21
M  V30 21 1 19 22
M  V30 22 1 20 23
M  V30 23 2 21 24
M  V30 24 1 21 25
M  V30 25 1 22 26
M  V30 26 1 25 27
M  V30 27 1 25 28
M  V30 28 1 26 29
M  V30 29 1 27 30
M  V30 30 2 29 31
M  V30 31 2 30 32
M  V30 32 1 32 33
M  V30 33 1 33 34
M  V30 34 2 34 35
M  V30 35 1 34 36
M  V30 36 1 35 37
M  V30 37 2 36 38
M  V30 38 2 37 39
M  V30 39 1 39 40
M  V30 40 1 9 11
M  V30 41 1 18 20
M  V30 42 2 26 27
M  V30 43 1 31 32
M  V30 44 1 38 39
M  V30 END BOND
M  V30 END CTAB
M  END
>  <Molecule Name>
Compound 744

>  <Molecule Name 2>
Compound 744

>  <Compound ID>
222

>  <Name>
GNF-7

>  <Uniprot>
P21127

>  <Target>
CDK11B

>  <Smiles>
CC1=CC=C(NC2=NC=C3CN(C4=CC(NC(=O)C5=CC=CC(C(F)(F)F)=C5)=CC=C4C)C(=O)N(C)C3=N2)C=N1

>  <Kd (nM)>


>  <Assay (Kd)>


>  <Ki (nM)>


>  <Assay (Ki)>


>  <IC50 (nM)>


>  <Assay (IC50)>


>  <EC50 (nM)>


>  <Assay (EC50)>


>  <Article DOI>


>  <Molecular Weight>
547.541

>  <Exact Mass>
547.1943577

>  <XLogP3>
4.33

>  <Heavy Atom Count>
40

>  <Ring Count>
5

>  <Hydrogen Bond Acceptor Count>
6

>  <Hydrogen Bond Donor Count>
2

>  <Rotatable Bond Count>
5

>  <Topological Polar Surface Area>
103.35

>  <Molecular Formula>
C28H24F3N7O2

>  <InChI>
InChI=1S/C28H24F3N7O2/c1-16-7-9-21(34-25(39)18-5-4-6-20(11-18)28(29,30)31)12-23(16)38-15-19-13-33-26(36-24(19)37(3)27(38)40)35-22-10-8-17(2)32-14-22/h4-14H,15H2,1-3H3,(H,34,39)(H,33,35,36)

>  <InChI Key>
SZNYUUZOQHNEKB-UHFFFAOYSA-N

>  <BindingDB>
50323777

>  <PubChem>
11478363

>  <ChEMBL>
CHEMBL1214141

$$$$
222
Actelion Java MolfileCreator 2.0

  0  0  0  0  0  0              0 V3000
M  V30 BEGIN CTAB
M  V30 COUNTS 40 44 0 0 0
M  V30 BEGIN ATOM
M  V30 1 F 2.4641 2.5 0.0 0
M  V30 2 C 3.4641 2.5 0.0 0
M  V30 3 F 3.4641 3.5 0.0 0
M  V30 4 F 4.4641 2.5 0.0 0
M  V30 5 C 3.4641 1.5 0.0 0
M  V30 6 C 2.598 1.0 0.0 0
M  V30 7 C 4.3301 1.0 0.0 0
M  V30 8 C 2.598 0.0 0.0 0
M  V30 9 C 4.3301 0.0 0.0 0
M  V30 10 C 1.732 -0.5 0.0 0
M  V30 11 C 3.4641 -0.4999 0.0 0
M  V30 12 O 1.732 -1.5 0.0 0
M  V30 13 N 0.866 0.0 0.0 0
M  V30 14 C 0.0 -0.5 0.0 0
M  V30 15 C -0.866 0.0 0.0 0
M  V30 16 C 0.0 -1.4999 0.0 0
M  V30 17 C -1.732 -0.4999 0.0 0
M  V30 18 C -0.866 -1.9999 0.0 0
M  V30 19 N -2.598 0.0 0.0 0
M  V30 20 C -1.732 -1.4999 0.0 0
M  V30 21 C -2.598 1.0 0.0 0
M  V30 22 C -3.4641 -0.4999 0.0 0
M  V30 23 C -2.598 -1.9999 0.0 0
M  V30 24 O -1.732 1.5 0.0 0
M  V30 25 N -3.4641 1.5 0.0 0
M  V30 26 C -4.3301 0.0 0.0 0
M  V30 27 C -4.3301 1.0 0.0 0
M  V30 28 C -3.4641 2.5 0.0 0
M  V30 29 C -5.1961 -0.4999 0.0 0
M  V30 30 N -5.1961 1.5 0.0 0
M  V30 31 N -6.0621 0.0 0.0 0
M  V30 32 C -6.0621 1.0 0.0 0
M  V30 33 N -6.9282 1.5 0.0 0
M  V30 34 C -7.7942 1.0 0.0 0
M  V30 35 C -8.6602 1.5 0.0 0
M  V30 36 C -7.7942 0.0 0.0 0
M  V30 37 N -9.5262 1.0 0.0 0
M  V30 38 C -8.6602 -0.4999 0.0 0
M  V30 39 C -9.5262 0.0 0.0 0
M  V30 40 C -10.3923 -0.4999 0.0 0
M  V30 END ATOM
M  V30 BEGIN BOND
M  V30 1 1 1 2
M  V30 2 1 2 3
M  V30 3 1 2 4
M  V30 4 1 2 5
M  V30 5 2 5 6
M  V30 6 1 5 7
M  V30 7 1 6 8
M  V30 8 2 7 9
M  V30 9 1 8 10
M  V30 10 2 8 11
M  V30 11 2 10 12
M  V30 12 1 10 13
M  V30 13 1 13 14
M  V30 14 2 14 15
M  V30 15 1 14 16
M  V30 16 1 15 17
M  V30 17 2 16 18
M  V30 18 1 17 19
M  V30 19 2 17 20
M  V30 20 1 19 21
M  V30 21 1 19 22
M  V30 22 1 20 23
M  V30 23 2 21 24
M  V30 24 1 21 25
M  V30 25 1 22 26
M  V30 26 1 25 27
M  V30 27 1 25 28
M  V30 28 1 26 29
M  V30 29 1 27 30
M  V30 30 2 29 31
M  V30 31 2 30 32
M  V30 32 1 32 33
M  V30 33 1 33 34
M  V30 34 2 34 35
M  V30 35 1 34 36
M  V30 36 1 35 37
M  V30 37 2 36 38
M  V30 38 2 37 39
M  V30 39 1 39 40
M  V30 40 1 9 11
M  V30 41 1 18 20
M  V30 42 2 26 27
M  V30 43 1 31 32
M  V30 44 1 38 39
M  V30 END BOND
M  V30 END CTAB
M  END
>  <Molecule Name>
Compound 745

>  <Molecule Name 2>
Compound 745

>  <Compound ID>
222

>  <Name>
GNF-7

>  <Uniprot>
P11802

>  <Target>
CDK4

>  <Smiles>
CC1=CC=C(NC2=NC=C3CN(C4=CC(NC(=O)C5=CC=CC(C(F)(F)F)=C5)=CC=C4C)C(=O)N(C)C3=N2)C=N1

>  <Kd (nM)>


>  <Assay (Kd)>


>  <Ki (nM)>


>  <Assay (Ki)>


>  <IC50 (nM)>


>  <Assay (IC50)>


>  <EC50 (nM)>


>  <Assay (EC50)>


>  <Article DOI>


>  <Molecular Weight>
547.541

>  <Exact Mass>
547.1943577

>  <XLogP3>
4.33

>  <Heavy Atom Count>
40

>  <Ring Count>
5

>  <Hydrogen Bond Acceptor Count>
6

>  <Hydrogen Bond Donor Count>
2

>  <Rotatable Bond Count>
5

>  <Topological Polar Surface Area>
103.35

>  <Molecular Formula>
C28H24F3N7O2

>  <InChI>
InChI=1S/C28H24F3N7O2/c1-16-7-9-21(34-25(39)18-5-4-6-20(11-18)28(29,30)31)12-23(16)38-15-19-13-33-26(36-24(19)37(3)27(38)40)35-22-10-8-17(2)32-14-22/h4-14H,15H2,1-3H3,(H,34,39)(H,33,35,36)

>  <InChI Key>
SZNYUUZOQHNEKB-UHFFFAOYSA-N

>  <BindingDB>
50323777

>  <PubChem>
11478363

>  <ChEMBL>
CHEMBL1214141

$$$$
222
Actelion Java MolfileCreator 2.0

  0  0  0  0  0  0              0 V3000
M  V30 BEGIN CTAB
M  V30 COUNTS 40 44 0 0 0
M  V30 BEGIN ATOM
M  V30 1 F 2.4641 2.5 0.0 0
M  V30 2 C 3.4641 2.5 0.0 0
M  V30 3 F 3.4641 3.5 0.0 0
M  V30 4 F 4.4641 2.5 0.0 0
M  V30 5 C 3.4641 1.5 0.0 0
M  V30 6 C 2.598 1.0 0.0 0
M  V30 7 C 4.3301 1.0 0.0 0
M  V30 8 C 2.598 0.0 0.0 0
M  V30 9 C 4.3301 0.0 0.0 0
M  V30 10 C 1.732 -0.5 0.0 0
M  V30 11 C 3.4641 -0.4999 0.0 0
M  V30 12 O 1.732 -1.5 0.0 0
M  V30 13 N 0.866 0.0 0.0 0
M  V30 14 C 0.0 -0.5 0.0 0
M  V30 15 C -0.866 0.0 0.0 0
M  V30 16 C 0.0 -1.4999 0.0 0
M  V30 17 C -1.732 -0.4999 0.0 0
M  V30 18 C -0.866 -1.9999 0.0 0
M  V30 19 N -2.598 0.0 0.0 0
M  V30 20 C -1.732 -1.4999 0.0 0
M  V30 21 C -2.598 1.0 0.0 0
M  V30 22 C -3.4641 -0.4999 0.0 0
M  V30 23 C -2.598 -1.9999 0.0 0
M  V30 24 O -1.732 1.5 0.0 0
M  V30 25 N -3.4641 1.5 0.0 0
M  V30 26 C -4.3301 0.0 0.0 0
M  V30 27 C -4.3301 1.0 0.0 0
M  V30 28 C -3.4641 2.5 0.0 0
M  V30 29 C -5.1961 -0.4999 0.0 0
M  V30 30 N -5.1961 1.5 0.0 0
M  V30 31 N -6.0621 0.0 0.0 0
M  V30 32 C -6.0621 1.0 0.0 0
M  V30 33 N -6.9282 1.5 0.0 0
M  V30 34 C -7.7942 1.0 0.0 0
M  V30 35 C -8.6602 1.5 0.0 0
M  V30 36 C -7.7942 0.0 0.0 0
M  V30 37 N -9.5262 1.0 0.0 0
M  V30 38 C -8.6602 -0.4999 0.0 0
M  V30 39 C -9.5262 0.0 0.0 0
M  V30 40 C -10.3923 -0.4999 0.0 0
M  V30 END ATOM
M  V30 BEGIN BOND
M  V30 1 1 1 2
M  V30 2 1 2 3
M  V30 3 1 2 4
M  V30 4 1 2 5
M  V30 5 2 5 6
M  V30 6 1 5 7
M  V30 7 1 6 8
M  V30 8 2 7 9
M  V30 9 1 8 10
M  V30 10 2 8 11
M  V30 11 2 10 12
M  V30 12 1 10 13
M  V30 13 1 13 14
M  V30 14 2 14 15
M  V30 15 1 14 16
M  V30 16 1 15 17
M  V30 17 2 16 18
M  V30 18 1 17 19
M  V30 19 2 17 20
M  V30 20 1 19 21
M  V30 21 1 19 22
M  V30 22 1 20 23
M  V30 23 2 21 24
M  V30 24 1 21 25
M  V30 25 1 22 26
M  V30 26 1 25 27
M  V30 27 1 25 28
M  V30 28 1 26 29
M  V30 29 1 27 30
M  V30 30 2 29 31
M  V30 31 2 30 32
M  V30 32 1 32 33
M  V30 33 1 33 34
M  V30 34 2 34 35
M  V30 35 1 34 36
M  V30 36 1 35 37
M  V30 37 2 36 38
M  V30 38 2 37 39
M  V30 39 1 39 40
M  V30 40 1 9 11
M  V30 41 1 18 20
M  V30 42 2 26 27
M  V30 43 1 31 32
M  V30 44 1 38 39
M  V30 END BOND
M  V30 END CTAB
M  END
>  <Molecule Name>
Compound 746

>  <Molecule Name 2>
Compound 746

>  <Compound ID>
222

>  <Name>
GNF-7

>  <Uniprot>
O14578

>  <Target>
CIT

>  <Smiles>
CC1=CC=C(NC2=NC=C3CN(C4=CC(NC(=O)C5=CC=CC(C(F)(F)F)=C5)=CC=C4C)C(=O)N(C)C3=N2)C=N1

>  <Kd (nM)>


>  <Assay (Kd)>


>  <Ki (nM)>


>  <Assay (Ki)>


>  <IC50 (nM)>


>  <Assay (IC50)>


>  <EC50 (nM)>


>  <Assay (EC50)>


>  <Article DOI>


>  <Molecular Weight>
547.541

>  <Exact Mass>
547.1943577

>  <XLogP3>
4.33

>  <Heavy Atom Count>
40

>  <Ring Count>
5

>  <Hydrogen Bond Acceptor Count>
6

>  <Hydrogen Bond Donor Count>
2

>  <Rotatable Bond Count>
5

>  <Topological Polar Surface Area>
103.35

>  <Molecular Formula>
C28H24F3N7O2

>  <InChI>
InChI=1S/C28H24F3N7O2/c1-16-7-9-21(34-25(39)18-5-4-6-20(11-18)28(29,30)31)12-23(16)38-15-19-13-33-26(36-24(19)37(3)27(38)40)35-22-10-8-17(2)32-14-22/h4-14H,15H2,1-3H3,(H,34,39)(H,33,35,36)

>  <InChI Key>
SZNYUUZOQHNEKB-UHFFFAOYSA-N

>  <BindingDB>
50323777

>  <PubChem>
11478363

>  <ChEMBL>
CHEMBL1214141

$$$$
222
Actelion Java MolfileCreator 2.0

  0  0  0  0  0  0              0 V3000
M  V30 BEGIN CTAB
M  V30 COUNTS 40 44 0 0 0
M  V30 BEGIN ATOM
M  V30 1 F 2.4641 2.5 0.0 0
M  V30 2 C 3.4641 2.5 0.0 0
M  V30 3 F 3.4641 3.5 0.0 0
M  V30 4 F 4.4641 2.5 0.0 0
M  V30 5 C 3.4641 1.5 0.0 0
M  V30 6 C 2.598 1.0 0.0 0
M  V30 7 C 4.3301 1.0 0.0 0
M  V30 8 C 2.598 0.0 0.0 0
M  V30 9 C 4.3301 0.0 0.0 0
M  V30 10 C 1.732 -0.5 0.0 0
M  V30 11 C 3.4641 -0.4999 0.0 0
M  V30 12 O 1.732 -1.5 0.0 0
M  V30 13 N 0.866 0.0 0.0 0
M  V30 14 C 0.0 -0.5 0.0 0
M  V30 15 C -0.866 0.0 0.0 0
M  V30 16 C 0.0 -1.4999 0.0 0
M  V30 17 C -1.732 -0.4999 0.0 0
M  V30 18 C -0.866 -1.9999 0.0 0
M  V30 19 N -2.598 0.0 0.0 0
M  V30 20 C -1.732 -1.4999 0.0 0
M  V30 21 C -2.598 1.0 0.0 0
M  V30 22 C -3.4641 -0.4999 0.0 0
M  V30 23 C -2.598 -1.9999 0.0 0
M  V30 24 O -1.732 1.5 0.0 0
M  V30 25 N -3.4641 1.5 0.0 0
M  V30 26 C -4.3301 0.0 0.0 0
M  V30 27 C -4.3301 1.0 0.0 0
M  V30 28 C -3.4641 2.5 0.0 0
M  V30 29 C -5.1961 -0.4999 0.0 0
M  V30 30 N -5.1961 1.5 0.0 0
M  V30 31 N -6.0621 0.0 0.0 0
M  V30 32 C -6.0621 1.0 0.0 0
M  V30 33 N -6.9282 1.5 0.0 0
M  V30 34 C -7.7942 1.0 0.0 0
M  V30 35 C -8.6602 1.5 0.0 0
M  V30 36 C -7.7942 0.0 0.0 0
M  V30 37 N -9.5262 1.0 0.0 0
M  V30 38 C -8.6602 -0.4999 0.0 0
M  V30 39 C -9.5262 0.0 0.0 0
M  V30 40 C -10.3923 -0.4999 0.0 0
M  V30 END ATOM
M  V30 BEGIN BOND
M  V30 1 1 1 2
M  V30 2 1 2 3
M  V30 3 1 2 4
M  V30 4 1 2 5
M  V30 5 2 5 6
M  V30 6 1 5 7
M  V30 7 1 6 8
M  V30 8 2 7 9
M  V30 9 1 8 10
M  V30 10 2 8 11
M  V30 11 2 10 12
M  V30 12 1 10 13
M  V30 13 1 13 14
M  V30 14 2 14 15
M  V30 15 1 14 16
M  V30 16 1 15 17
M  V30 17 2 16 18
M  V30 18 1 17 19
M  V30 19 2 17 20
M  V30 20 1 19 21
M  V30 21 1 19 22
M  V30 22 1 20 23
M  V30 23 2 21 24
M  V30 24 1 21 25
M  V30 25 1 22 26
M  V30 26 1 25 27
M  V30 27 1 25 28
M  V30 28 1 26 29
M  V30 29 1 27 30
M  V30 30 2 29 31
M  V30 31 2 30 32
M  V30 32 1 32 33
M  V30 33 1 33 34
M  V30 34 2 34 35
M  V30 35 1 34 36
M  V30 36 1 35 37
M  V30 37 2 36 38
M  V30 38 2 37 39
M  V30 39 1 39 40
M  V30 40 1 9 11
M  V30 41 1 18 20
M  V30 42 2 26 27
M  V30 43 1 31 32
M  V30 44 1 38 39
M  V30 END BOND
M  V30 END CTAB
M  END
>  <Molecule Name>
Compound 747

>  <Molecule Name 2>
Compound 747

>  <Compound ID>
222

>  <Name>
GNF-7

>  <Uniprot>
P49759

>  <Target>
CLK1

>  <Smiles>
CC1=CC=C(NC2=NC=C3CN(C4=CC(NC(=O)C5=CC=CC(C(F)(F)F)=C5)=CC=C4C)C(=O)N(C)C3=N2)C=N1

>  <Kd (nM)>


>  <Assay (Kd)>


>  <Ki (nM)>


>  <Assay (Ki)>


>  <IC50 (nM)>


>  <Assay (IC50)>


>  <EC50 (nM)>


>  <Assay (EC50)>


>  <Article DOI>


>  <Molecular Weight>
547.541

>  <Exact Mass>
547.1943577

>  <XLogP3>
4.33

>  <Heavy Atom Count>
40

>  <Ring Count>
5

>  <Hydrogen Bond Acceptor Count>
6

>  <Hydrogen Bond Donor Count>
2

>  <Rotatable Bond Count>
5

>  <Topological Polar Surface Area>
103.35

>  <Molecular Formula>
C28H24F3N7O2

>  <InChI>
InChI=1S/C28H24F3N7O2/c1-16-7-9-21(34-25(39)18-5-4-6-20(11-18)28(29,30)31)12-23(16)38-15-19-13-33-26(36-24(19)37(3)27(38)40)35-22-10-8-17(2)32-14-22/h4-14H,15H2,1-3H3,(H,34,39)(H,33,35,36)

>  <InChI Key>
SZNYUUZOQHNEKB-UHFFFAOYSA-N

>  <BindingDB>
50323777

>  <PubChem>
11478363

>  <ChEMBL>
CHEMBL1214141

$$$$
222
Actelion Java MolfileCreator 2.0

  0  0  0  0  0  0              0 V3000
M  V30 BEGIN CTAB
M  V30 COUNTS 40 44 0 0 0
M  V30 BEGIN ATOM
M  V30 1 F 2.4641 2.5 0.0 0
M  V30 2 C 3.4641 2.5 0.0 0
M  V30 3 F 3.4641 3.5 0.0 0
M  V30 4 F 4.4641 2.5 0.0 0
M  V30 5 C 3.4641 1.5 0.0 0
M  V30 6 C 2.598 1.0 0.0 0
M  V30 7 C 4.3301 1.0 0.0 0
M  V30 8 C 2.598 0.0 0.0 0
M  V30 9 C 4.3301 0.0 0.0 0
M  V30 10 C 1.732 -0.5 0.0 0
M  V30 11 C 3.4641 -0.4999 0.0 0
M  V30 12 O 1.732 -1.5 0.0 0
M  V30 13 N 0.866 0.0 0.0 0
M  V30 14 C 0.0 -0.5 0.0 0
M  V30 15 C -0.866 0.0 0.0 0
M  V30 16 C 0.0 -1.4999 0.0 0
M  V30 17 C -1.732 -0.4999 0.0 0
M  V30 18 C -0.866 -1.9999 0.0 0
M  V30 19 N -2.598 0.0 0.0 0
M  V30 20 C -1.732 -1.4999 0.0 0
M  V30 21 C -2.598 1.0 0.0 0
M  V30 22 C -3.4641 -0.4999 0.0 0
M  V30 23 C -2.598 -1.9999 0.0 0
M  V30 24 O -1.732 1.5 0.0 0
M  V30 25 N -3.4641 1.5 0.0 0
M  V30 26 C -4.3301 0.0 0.0 0
M  V30 27 C -4.3301 1.0 0.0 0
M  V30 28 C -3.4641 2.5 0.0 0
M  V30 29 C -5.1961 -0.4999 0.0 0
M  V30 30 N -5.1961 1.5 0.0 0
M  V30 31 N -6.0621 0.0 0.0 0
M  V30 32 C -6.0621 1.0 0.0 0
M  V30 33 N -6.9282 1.5 0.0 0
M  V30 34 C -7.7942 1.0 0.0 0
M  V30 35 C -8.6602 1.5 0.0 0
M  V30 36 C -7.7942 0.0 0.0 0
M  V30 37 N -9.5262 1.0 0.0 0
M  V30 38 C -8.6602 -0.4999 0.0 0
M  V30 39 C -9.5262 0.0 0.0 0
M  V30 40 C -10.3923 -0.4999 0.0 0
M  V30 END ATOM
M  V30 BEGIN BOND
M  V30 1 1 1 2
M  V30 2 1 2 3
M  V30 3 1 2 4
M  V30 4 1 2 5
M  V30 5 2 5 6
M  V30 6 1 5 7
M  V30 7 1 6 8
M  V30 8 2 7 9
M  V30 9 1 8 10
M  V30 10 2 8 11
M  V30 11 2 10 12
M  V30 12 1 10 13
M  V30 13 1 13 14
M  V30 14 2 14 15
M  V30 15 1 14 16
M  V30 16 1 15 17
M  V30 17 2 16 18
M  V30 18 1 17 19
M  V30 19 2 17 20
M  V30 20 1 19 21
M  V30 21 1 19 22
M  V30 22 1 20 23
M  V30 23 2 21 24
M  V30 24 1 21 25
M  V30 25 1 22 26
M  V30 26 1 25 27
M  V30 27 1 25 28
M  V30 28 1 26 29
M  V30 29 1 27 30
M  V30 30 2 29 31
M  V30 31 2 30 32
M  V30 32 1 32 33
M  V30 33 1 33 34
M  V30 34 2 34 35
M  V30 35 1 34 36
M  V30 36 1 35 37
M  V30 37 2 36 38
M  V30 38 2 37 39
M  V30 39 1 39 40
M  V30 40 1 9 11
M  V30 41 1 18 20
M  V30 42 2 26 27
M  V30 43 1 31 32
M  V30 44 1 38 39
M  V30 END BOND
M  V30 END CTAB
M  END
>  <Molecule Name>
Compound 748

>  <Molecule Name 2>
Compound 748

>  <Compound ID>
222

>  <Name>
GNF-7

>  <Uniprot>
P41240

>  <Target>
CSK

>  <Smiles>
CC1=CC=C(NC2=NC=C3CN(C4=CC(NC(=O)C5=CC=CC(C(F)(F)F)=C5)=CC=C4C)C(=O)N(C)C3=N2)C=N1

>  <Kd (nM)>


>  <Assay (Kd)>


>  <Ki (nM)>


>  <Assay (Ki)>


>  <IC50 (nM)>


>  <Assay (IC50)>


>  <EC50 (nM)>


>  <Assay (EC50)>


>  <Article DOI>


>  <Molecular Weight>
547.541

>  <Exact Mass>
547.1943577

>  <XLogP3>
4.33

>  <Heavy Atom Count>
40

>  <Ring Count>
5

>  <Hydrogen Bond Acceptor Count>
6

>  <Hydrogen Bond Donor Count>
2

>  <Rotatable Bond Count>
5

>  <Topological Polar Surface Area>
103.35

>  <Molecular Formula>
C28H24F3N7O2

>  <InChI>
InChI=1S/C28H24F3N7O2/c1-16-7-9-21(34-25(39)18-5-4-6-20(11-18)28(29,30)31)12-23(16)38-15-19-13-33-26(36-24(19)37(3)27(38)40)35-22-10-8-17(2)32-14-22/h4-14H,15H2,1-3H3,(H,34,39)(H,33,35,36)

>  <InChI Key>
SZNYUUZOQHNEKB-UHFFFAOYSA-N

>  <BindingDB>
50323777

>  <PubChem>
11478363

>  <ChEMBL>
CHEMBL1214141

$$$$
222
Actelion Java MolfileCreator 2.0

  0  0  0  0  0  0              0 V3000
M  V30 BEGIN CTAB
M  V30 COUNTS 40 44 0 0 0
M  V30 BEGIN ATOM
M  V30 1 F 2.4641 2.5 0.0 0
M  V30 2 C 3.4641 2.5 0.0 0
M  V30 3 F 3.4641 3.5 0.0 0
M  V30 4 F 4.4641 2.5 0.0 0
M  V30 5 C 3.4641 1.5 0.0 0
M  V30 6 C 2.598 1.0 0.0 0
M  V30 7 C 4.3301 1.0 0.0 0
M  V30 8 C 2.598 0.0 0.0 0
M  V30 9 C 4.3301 0.0 0.0 0
M  V30 10 C 1.732 -0.5 0.0 0
M  V30 11 C 3.4641 -0.4999 0.0 0
M  V30 12 O 1.732 -1.5 0.0 0
M  V30 13 N 0.866 0.0 0.0 0
M  V30 14 C 0.0 -0.5 0.0 0
M  V30 15 C -0.866 0.0 0.0 0
M  V30 16 C 0.0 -1.4999 0.0 0
M  V30 17 C -1.732 -0.4999 0.0 0
M  V30 18 C -0.866 -1.9999 0.0 0
M  V30 19 N -2.598 0.0 0.0 0
M  V30 20 C -1.732 -1.4999 0.0 0
M  V30 21 C -2.598 1.0 0.0 0
M  V30 22 C -3.4641 -0.4999 0.0 0
M  V30 23 C -2.598 -1.9999 0.0 0
M  V30 24 O -1.732 1.5 0.0 0
M  V30 25 N -3.4641 1.5 0.0 0
M  V30 26 C -4.3301 0.0 0.0 0
M  V30 27 C -4.3301 1.0 0.0 0
M  V30 28 C -3.4641 2.5 0.0 0
M  V30 29 C -5.1961 -0.4999 0.0 0
M  V30 30 N -5.1961 1.5 0.0 0
M  V30 31 N -6.0621 0.0 0.0 0
M  V30 32 C -6.0621 1.0 0.0 0
M  V30 33 N -6.9282 1.5 0.0 0
M  V30 34 C -7.7942 1.0 0.0 0
M  V30 35 C -8.6602 1.5 0.0 0
M  V30 36 C -7.7942 0.0 0.0 0
M  V30 37 N -9.5262 1.0 0.0 0
M  V30 38 C -8.6602 -0.4999 0.0 0
M  V30 39 C -9.5262 0.0 0.0 0
M  V30 40 C -10.3923 -0.4999 0.0 0
M  V30 END ATOM
M  V30 BEGIN BOND
M  V30 1 1 1 2
M  V30 2 1 2 3
M  V30 3 1 2 4
M  V30 4 1 2 5
M  V30 5 2 5 6
M  V30 6 1 5 7
M  V30 7 1 6 8
M  V30 8 2 7 9
M  V30 9 1 8 10
M  V30 10 2 8 11
M  V30 11 2 10 12
M  V30 12 1 10 13
M  V30 13 1 13 14
M  V30 14 2 14 15
M  V30 15 1 14 16
M  V30 16 1 15 17
M  V30 17 2 16 18
M  V30 18 1 17 19
M  V30 19 2 17 20
M  V30 20 1 19 21
M  V30 21 1 19 22
M  V30 22 1 20 23
M  V30 23 2 21 24
M  V30 24 1 21 25
M  V30 25 1 22 26
M  V30 26 1 25 27
M  V30 27 1 25 28
M  V30 28 1 26 29
M  V30 29 1 27 30
M  V30 30 2 29 31
M  V30 31 2 30 32
M  V30 32 1 32 33
M  V30 33 1 33 34
M  V30 34 2 34 35
M  V30 35 1 34 36
M  V30 36 1 35 37
M  V30 37 2 36 38
M  V30 38 2 37 39
M  V30 39 1 39 40
M  V30 40 1 9 11
M  V30 41 1 18 20
M  V30 42 2 26 27
M  V30 43 1 31 32
M  V30 44 1 38 39
M  V30 END BOND
M  V30 END CTAB
M  END
>  <Molecule Name>
Compound 749

>  <Molecule Name 2>
Compound 749

>  <Compound ID>
222

>  <Name>
GNF-7

>  <Uniprot>
Q16832

>  <Target>
DDR2

>  <Smiles>
CC1=CC=C(NC2=NC=C3CN(C4=CC(NC(=O)C5=CC=CC(C(F)(F)F)=C5)=CC=C4C)C(=O)N(C)C3=N2)C=N1

>  <Kd (nM)>


>  <Assay (Kd)>


>  <Ki (nM)>


>  <Assay (Ki)>


>  <IC50 (nM)>


>  <Assay (IC50)>


>  <EC50 (nM)>


>  <Assay (EC50)>


>  <Article DOI>


>  <Molecular Weight>
547.541

>  <Exact Mass>
547.1943577

>  <XLogP3>
4.33

>  <Heavy Atom Count>
40

>  <Ring Count>
5

>  <Hydrogen Bond Acceptor Count>
6

>  <Hydrogen Bond Donor Count>
2

>  <Rotatable Bond Count>
5

>  <Topological Polar Surface Area>
103.35

>  <Molecular Formula>
C28H24F3N7O2

>  <InChI>
InChI=1S/C28H24F3N7O2/c1-16-7-9-21(34-25(39)18-5-4-6-20(11-18)28(29,30)31)12-23(16)38-15-19-13-33-26(36-24(19)37(3)27(38)40)35-22-10-8-17(2)32-14-22/h4-14H,15H2,1-3H3,(H,34,39)(H,33,35,36)

>  <InChI Key>
SZNYUUZOQHNEKB-UHFFFAOYSA-N

>  <BindingDB>
50323777

>  <PubChem>
11478363

>  <ChEMBL>
CHEMBL1214141

$$$$
222
Actelion Java MolfileCreator 2.0

  0  0  0  0  0  0              0 V3000
M  V30 BEGIN CTAB
M  V30 COUNTS 40 44 0 0 0
M  V30 BEGIN ATOM
M  V30 1 F 2.4641 2.5 0.0 0
M  V30 2 C 3.4641 2.5 0.0 0
M  V30 3 F 3.4641 3.5 0.0 0
M  V30 4 F 4.4641 2.5 0.0 0
M  V30 5 C 3.4641 1.5 0.0 0
M  V30 6 C 2.598 1.0 0.0 0
M  V30 7 C 4.3301 1.0 0.0 0
M  V30 8 C 2.598 0.0 0.0 0
M  V30 9 C 4.3301 0.0 0.0 0
M  V30 10 C 1.732 -0.5 0.0 0
M  V30 11 C 3.4641 -0.4999 0.0 0
M  V30 12 O 1.732 -1.5 0.0 0
M  V30 13 N 0.866 0.0 0.0 0
M  V30 14 C 0.0 -0.5 0.0 0
M  V30 15 C -0.866 0.0 0.0 0
M  V30 16 C 0.0 -1.4999 0.0 0
M  V30 17 C -1.732 -0.4999 0.0 0
M  V30 18 C -0.866 -1.9999 0.0 0
M  V30 19 N -2.598 0.0 0.0 0
M  V30 20 C -1.732 -1.4999 0.0 0
M  V30 21 C -2.598 1.0 0.0 0
M  V30 22 C -3.4641 -0.4999 0.0 0
M  V30 23 C -2.598 -1.9999 0.0 0
M  V30 24 O -1.732 1.5 0.0 0
M  V30 25 N -3.4641 1.5 0.0 0
M  V30 26 C -4.3301 0.0 0.0 0
M  V30 27 C -4.3301 1.0 0.0 0
M  V30 28 C -3.4641 2.5 0.0 0
M  V30 29 C -5.1961 -0.4999 0.0 0
M  V30 30 N -5.1961 1.5 0.0 0
M  V30 31 N -6.0621 0.0 0.0 0
M  V30 32 C -6.0621 1.0 0.0 0
M  V30 33 N -6.9282 1.5 0.0 0
M  V30 34 C -7.7942 1.0 0.0 0
M  V30 35 C -8.6602 1.5 0.0 0
M  V30 36 C -7.7942 0.0 0.0 0
M  V30 37 N -9.5262 1.0 0.0 0
M  V30 38 C -8.6602 -0.4999 0.0 0
M  V30 39 C -9.5262 0.0 0.0 0
M  V30 40 C -10.3923 -0.4999 0.0 0
M  V30 END ATOM
M  V30 BEGIN BOND
M  V30 1 1 1 2
M  V30 2 1 2 3
M  V30 3 1 2 4
M  V30 4 1 2 5
M  V30 5 2 5 6
M  V30 6 1 5 7
M  V30 7 1 6 8
M  V30 8 2 7 9
M  V30 9 1 8 10
M  V30 10 2 8 11
M  V30 11 2 10 12
M  V30 12 1 10 13
M  V30 13 1 13 14
M  V30 14 2 14 15
M  V30 15 1 14 16
M  V30 16 1 15 17
M  V30 17 2 16 18
M  V30 18 1 17 19
M  V30 19 2 17 20
M  V30 20 1 19 21
M  V30 21 1 19 22
M  V30 22 1 20 23
M  V30 23 2 21 24
M  V30 24 1 21 25
M  V30 25 1 22 26
M  V30 26 1 25 27
M  V30 27 1 25 28
M  V30 28 1 26 29
M  V30 29 1 27 30
M  V30 30 2 29 31
M  V30 31 2 30 32
M  V30 32 1 32 33
M  V30 33 1 33 34
M  V30 34 2 34 35
M  V30 35 1 34 36
M  V30 36 1 35 37
M  V30 37 2 36 38
M  V30 38 2 37 39
M  V30 39 1 39 40
M  V30 40 1 9 11
M  V30 41 1 18 20
M  V30 42 2 26 27
M  V30 43 1 31 32
M  V30 44 1 38 39
M  V30 END BOND
M  V30 END CTAB
M  END
>  <Molecule Name>
Compound 750

>  <Molecule Name 2>
Compound 750

>  <Compound ID>
222

>  <Name>
GNF-7

>  <Uniprot>
P29320

>  <Target>
EPHA3

>  <Smiles>
CC1=CC=C(NC2=NC=C3CN(C4=CC(NC(=O)C5=CC=CC(C(F)(F)F)=C5)=CC=C4C)C(=O)N(C)C3=N2)C=N1

>  <Kd (nM)>


>  <Assay (Kd)>


>  <Ki (nM)>


>  <Assay (Ki)>


>  <IC50 (nM)>


>  <Assay (IC50)>


>  <EC50 (nM)>


>  <Assay (EC50)>


>  <Article DOI>


>  <Molecular Weight>
547.541

>  <Exact Mass>
547.1943577

>  <XLogP3>
4.33

>  <Heavy Atom Count>
40

>  <Ring Count>
5

>  <Hydrogen Bond Acceptor Count>
6

>  <Hydrogen Bond Donor Count>
2

>  <Rotatable Bond Count>
5

>  <Topological Polar Surface Area>
103.35

>  <Molecular Formula>
C28H24F3N7O2

>  <InChI>
InChI=1S/C28H24F3N7O2/c1-16-7-9-21(34-25(39)18-5-4-6-20(11-18)28(29,30)31)12-23(16)38-15-19-13-33-26(36-24(19)37(3)27(38)40)35-22-10-8-17(2)32-14-22/h4-14H,15H2,1-3H3,(H,34,39)(H,33,35,36)

>  <InChI Key>
SZNYUUZOQHNEKB-UHFFFAOYSA-N

>  <BindingDB>
50323777

>  <PubChem>
11478363

>  <ChEMBL>
CHEMBL1214141

$$$$
222
Actelion Java MolfileCreator 2.0

  0  0  0  0  0  0              0 V3000
M  V30 BEGIN CTAB
M  V30 COUNTS 40 44 0 0 0
M  V30 BEGIN ATOM
M  V30 1 F 2.4641 2.5 0.0 0
M  V30 2 C 3.4641 2.5 0.0 0
M  V30 3 F 3.4641 3.5 0.0 0
M  V30 4 F 4.4641 2.5 0.0 0
M  V30 5 C 3.4641 1.5 0.0 0
M  V30 6 C 2.598 1.0 0.0 0
M  V30 7 C 4.3301 1.0 0.0 0
M  V30 8 C 2.598 0.0 0.0 0
M  V30 9 C 4.3301 0.0 0.0 0
M  V30 10 C 1.732 -0.5 0.0 0
M  V30 11 C 3.4641 -0.4999 0.0 0
M  V30 12 O 1.732 -1.5 0.0 0
M  V30 13 N 0.866 0.0 0.0 0
M  V30 14 C 0.0 -0.5 0.0 0
M  V30 15 C -0.866 0.0 0.0 0
M  V30 16 C 0.0 -1.4999 0.0 0
M  V30 17 C -1.732 -0.4999 0.0 0
M  V30 18 C -0.866 -1.9999 0.0 0
M  V30 19 N -2.598 0.0 0.0 0
M  V30 20 C -1.732 -1.4999 0.0 0
M  V30 21 C -2.598 1.0 0.0 0
M  V30 22 C -3.4641 -0.4999 0.0 0
M  V30 23 C -2.598 -1.9999 0.0 0
M  V30 24 O -1.732 1.5 0.0 0
M  V30 25 N -3.4641 1.5 0.0 0
M  V30 26 C -4.3301 0.0 0.0 0
M  V30 27 C -4.3301 1.0 0.0 0
M  V30 28 C -3.4641 2.5 0.0 0
M  V30 29 C -5.1961 -0.4999 0.0 0
M  V30 30 N -5.1961 1.5 0.0 0
M  V30 31 N -6.0621 0.0 0.0 0
M  V30 32 C -6.0621 1.0 0.0 0
M  V30 33 N -6.9282 1.5 0.0 0
M  V30 34 C -7.7942 1.0 0.0 0
M  V30 35 C -8.6602 1.5 0.0 0
M  V30 36 C -7.7942 0.0 0.0 0
M  V30 37 N -9.5262 1.0 0.0 0
M  V30 38 C -8.6602 -0.4999 0.0 0
M  V30 39 C -9.5262 0.0 0.0 0
M  V30 40 C -10.3923 -0.4999 0.0 0
M  V30 END ATOM
M  V30 BEGIN BOND
M  V30 1 1 1 2
M  V30 2 1 2 3
M  V30 3 1 2 4
M  V30 4 1 2 5
M  V30 5 2 5 6
M  V30 6 1 5 7
M  V30 7 1 6 8
M  V30 8 2 7 9
M  V30 9 1 8 10
M  V30 10 2 8 11
M  V30 11 2 10 12
M  V30 12 1 10 13
M  V30 13 1 13 14
M  V30 14 2 14 15
M  V30 15 1 14 16
M  V30 16 1 15 17
M  V30 17 2 16 18
M  V30 18 1 17 19
M  V30 19 2 17 20
M  V30 20 1 19 21
M  V30 21 1 19 22
M  V30 22 1 20 23
M  V30 23 2 21 24
M  V30 24 1 21 25
M  V30 25 1 22 26
M  V30 26 1 25 27
M  V30 27 1 25 28
M  V30 28 1 26 29
M  V30 29 1 27 30
M  V30 30 2 29 31
M  V30 31 2 30 32
M  V30 32 1 32 33
M  V30 33 1 33 34
M  V30 34 2 34 35
M  V30 35 1 34 36
M  V30 36 1 35 37
M  V30 37 2 36 38
M  V30 38 2 37 39
M  V30 39 1 39 40
M  V30 40 1 9 11
M  V30 41 1 18 20
M  V30 42 2 26 27
M  V30 43 1 31 32
M  V30 44 1 38 39
M  V30 END BOND
M  V30 END CTAB
M  END
>  <Molecule Name>
Compound 751

>  <Molecule Name 2>
Compound 751

>  <Compound ID>
222

>  <Name>
GNF-7

>  <Uniprot>
P54753

>  <Target>
EPHB3

>  <Smiles>
CC1=CC=C(NC2=NC=C3CN(C4=CC(NC(=O)C5=CC=CC(C(F)(F)F)=C5)=CC=C4C)C(=O)N(C)C3=N2)C=N1

>  <Kd (nM)>


>  <Assay (Kd)>


>  <Ki (nM)>


>  <Assay (Ki)>


>  <IC50 (nM)>


>  <Assay (IC50)>


>  <EC50 (nM)>


>  <Assay (EC50)>


>  <Article DOI>


>  <Molecular Weight>
547.541

>  <Exact Mass>
547.1943577

>  <XLogP3>
4.33

>  <Heavy Atom Count>
40

>  <Ring Count>
5

>  <Hydrogen Bond Acceptor Count>
6

>  <Hydrogen Bond Donor Count>
2

>  <Rotatable Bond Count>
5

>  <Topological Polar Surface Area>
103.35

>  <Molecular Formula>
C28H24F3N7O2

>  <InChI>
InChI=1S/C28H24F3N7O2/c1-16-7-9-21(34-25(39)18-5-4-6-20(11-18)28(29,30)31)12-23(16)38-15-19-13-33-26(36-24(19)37(3)27(38)40)35-22-10-8-17(2)32-14-22/h4-14H,15H2,1-3H3,(H,34,39)(H,33,35,36)

>  <InChI Key>
SZNYUUZOQHNEKB-UHFFFAOYSA-N

>  <BindingDB>
50323777

>  <PubChem>
11478363

>  <ChEMBL>
CHEMBL1214141

$$$$
222
Actelion Java MolfileCreator 2.0

  0  0  0  0  0  0              0 V3000
M  V30 BEGIN CTAB
M  V30 COUNTS 40 44 0 0 0
M  V30 BEGIN ATOM
M  V30 1 F 2.4641 2.5 0.0 0
M  V30 2 C 3.4641 2.5 0.0 0
M  V30 3 F 3.4641 3.5 0.0 0
M  V30 4 F 4.4641 2.5 0.0 0
M  V30 5 C 3.4641 1.5 0.0 0
M  V30 6 C 2.598 1.0 0.0 0
M  V30 7 C 4.3301 1.0 0.0 0
M  V30 8 C 2.598 0.0 0.0 0
M  V30 9 C 4.3301 0.0 0.0 0
M  V30 10 C 1.732 -0.5 0.0 0
M  V30 11 C 3.4641 -0.4999 0.0 0
M  V30 12 O 1.732 -1.5 0.0 0
M  V30 13 N 0.866 0.0 0.0 0
M  V30 14 C 0.0 -0.5 0.0 0
M  V30 15 C -0.866 0.0 0.0 0
M  V30 16 C 0.0 -1.4999 0.0 0
M  V30 17 C -1.732 -0.4999 0.0 0
M  V30 18 C -0.866 -1.9999 0.0 0
M  V30 19 N -2.598 0.0 0.0 0
M  V30 20 C -1.732 -1.4999 0.0 0
M  V30 21 C -2.598 1.0 0.0 0
M  V30 22 C -3.4641 -0.4999 0.0 0
M  V30 23 C -2.598 -1.9999 0.0 0
M  V30 24 O -1.732 1.5 0.0 0
M  V30 25 N -3.4641 1.5 0.0 0
M  V30 26 C -4.3301 0.0 0.0 0
M  V30 27 C -4.3301 1.0 0.0 0
M  V30 28 C -3.4641 2.5 0.0 0
M  V30 29 C -5.1961 -0.4999 0.0 0
M  V30 30 N -5.1961 1.5 0.0 0
M  V30 31 N -6.0621 0.0 0.0 0
M  V30 32 C -6.0621 1.0 0.0 0
M  V30 33 N -6.9282 1.5 0.0 0
M  V30 34 C -7.7942 1.0 0.0 0
M  V30 35 C -8.6602 1.5 0.0 0
M  V30 36 C -7.7942 0.0 0.0 0
M  V30 37 N -9.5262 1.0 0.0 0
M  V30 38 C -8.6602 -0.4999 0.0 0
M  V30 39 C -9.5262 0.0 0.0 0
M  V30 40 C -10.3923 -0.4999 0.0 0
M  V30 END ATOM
M  V30 BEGIN BOND
M  V30 1 1 1 2
M  V30 2 1 2 3
M  V30 3 1 2 4
M  V30 4 1 2 5
M  V30 5 2 5 6
M  V30 6 1 5 7
M  V30 7 1 6 8
M  V30 8 2 7 9
M  V30 9 1 8 10
M  V30 10 2 8 11
M  V30 11 2 10 12
M  V30 12 1 10 13
M  V30 13 1 13 14
M  V30 14 2 14 15
M  V30 15 1 14 16
M  V30 16 1 15 17
M  V30 17 2 16 18
M  V30 18 1 17 19
M  V30 19 2 17 20
M  V30 20 1 19 21
M  V30 21 1 19 22
M  V30 22 1 20 23
M  V30 23 2 21 24
M  V30 24 1 21 25
M  V30 25 1 22 26
M  V30 26 1 25 27
M  V30 27 1 25 28
M  V30 28 1 26 29
M  V30 29 1 27 30
M  V30 30 2 29 31
M  V30 31 2 30 32
M  V30 32 1 32 33
M  V30 33 1 33 34
M  V30 34 2 34 35
M  V30 35 1 34 36
M  V30 36 1 35 37
M  V30 37 2 36 38
M  V30 38 2 37 39
M  V30 39 1 39 40
M  V30 40 1 9 11
M  V30 41 1 18 20
M  V30 42 2 26 27
M  V30 43 1 31 32
M  V30 44 1 38 39
M  V30 END BOND
M  V30 END CTAB
M  END
>  <Molecule Name>
Compound 752

>  <Molecule Name 2>
Compound 752

>  <Compound ID>
222

>  <Name>
GNF-7

>  <Uniprot>
O15197

>  <Target>
EPHB6

>  <Smiles>
CC1=CC=C(NC2=NC=C3CN(C4=CC(NC(=O)C5=CC=CC(C(F)(F)F)=C5)=CC=C4C)C(=O)N(C)C3=N2)C=N1

>  <Kd (nM)>


>  <Assay (Kd)>


>  <Ki (nM)>


>  <Assay (Ki)>


>  <IC50 (nM)>


>  <Assay (IC50)>


>  <EC50 (nM)>


>  <Assay (EC50)>


>  <Article DOI>


>  <Molecular Weight>
547.541

>  <Exact Mass>
547.1943577

>  <XLogP3>
4.33

>  <Heavy Atom Count>
40

>  <Ring Count>
5

>  <Hydrogen Bond Acceptor Count>
6

>  <Hydrogen Bond Donor Count>
2

>  <Rotatable Bond Count>
5

>  <Topological Polar Surface Area>
103.35

>  <Molecular Formula>
C28H24F3N7O2

>  <InChI>
InChI=1S/C28H24F3N7O2/c1-16-7-9-21(34-25(39)18-5-4-6-20(11-18)28(29,30)31)12-23(16)38-15-19-13-33-26(36-24(19)37(3)27(38)40)35-22-10-8-17(2)32-14-22/h4-14H,15H2,1-3H3,(H,34,39)(H,33,35,36)

>  <InChI Key>
SZNYUUZOQHNEKB-UHFFFAOYSA-N

>  <BindingDB>
50323777

>  <PubChem>
11478363

>  <ChEMBL>
CHEMBL1214141

$$$$
222
Actelion Java MolfileCreator 2.0

  0  0  0  0  0  0              0 V3000
M  V30 BEGIN CTAB
M  V30 COUNTS 40 44 0 0 0
M  V30 BEGIN ATOM
M  V30 1 F 2.4641 2.5 0.0 0
M  V30 2 C 3.4641 2.5 0.0 0
M  V30 3 F 3.4641 3.5 0.0 0
M  V30 4 F 4.4641 2.5 0.0 0
M  V30 5 C 3.4641 1.5 0.0 0
M  V30 6 C 2.598 1.0 0.0 0
M  V30 7 C 4.3301 1.0 0.0 0
M  V30 8 C 2.598 0.0 0.0 0
M  V30 9 C 4.3301 0.0 0.0 0
M  V30 10 C 1.732 -0.5 0.0 0
M  V30 11 C 3.4641 -0.4999 0.0 0
M  V30 12 O 1.732 -1.5 0.0 0
M  V30 13 N 0.866 0.0 0.0 0
M  V30 14 C 0.0 -0.5 0.0 0
M  V30 15 C -0.866 0.0 0.0 0
M  V30 16 C 0.0 -1.4999 0.0 0
M  V30 17 C -1.732 -0.4999 0.0 0
M  V30 18 C -0.866 -1.9999 0.0 0
M  V30 19 N -2.598 0.0 0.0 0
M  V30 20 C -1.732 -1.4999 0.0 0
M  V30 21 C -2.598 1.0 0.0 0
M  V30 22 C -3.4641 -0.4999 0.0 0
M  V30 23 C -2.598 -1.9999 0.0 0
M  V30 24 O -1.732 1.5 0.0 0
M  V30 25 N -3.4641 1.5 0.0 0
M  V30 26 C -4.3301 0.0 0.0 0
M  V30 27 C -4.3301 1.0 0.0 0
M  V30 28 C -3.4641 2.5 0.0 0
M  V30 29 C -5.1961 -0.4999 0.0 0
M  V30 30 N -5.1961 1.5 0.0 0
M  V30 31 N -6.0621 0.0 0.0 0
M  V30 32 C -6.0621 1.0 0.0 0
M  V30 33 N -6.9282 1.5 0.0 0
M  V30 34 C -7.7942 1.0 0.0 0
M  V30 35 C -8.6602 1.5 0.0 0
M  V30 36 C -7.7942 0.0 0.0 0
M  V30 37 N -9.5262 1.0 0.0 0
M  V30 38 C -8.6602 -0.4999 0.0 0
M  V30 39 C -9.5262 0.0 0.0 0
M  V30 40 C -10.3923 -0.4999 0.0 0
M  V30 END ATOM
M  V30 BEGIN BOND
M  V30 1 1 1 2
M  V30 2 1 2 3
M  V30 3 1 2 4
M  V30 4 1 2 5
M  V30 5 2 5 6
M  V30 6 1 5 7
M  V30 7 1 6 8
M  V30 8 2 7 9
M  V30 9 1 8 10
M  V30 10 2 8 11
M  V30 11 2 10 12
M  V30 12 1 10 13
M  V30 13 1 13 14
M  V30 14 2 14 15
M  V30 15 1 14 16
M  V30 16 1 15 17
M  V30 17 2 16 18
M  V30 18 1 17 19
M  V30 19 2 17 20
M  V30 20 1 19 21
M  V30 21 1 19 22
M  V30 22 1 20 23
M  V30 23 2 21 24
M  V30 24 1 21 25
M  V30 25 1 22 26
M  V30 26 1 25 27
M  V30 27 1 25 28
M  V30 28 1 26 29
M  V30 29 1 27 30
M  V30 30 2 29 31
M  V30 31 2 30 32
M  V30 32 1 32 33
M  V30 33 1 33 34
M  V30 34 2 34 35
M  V30 35 1 34 36
M  V30 36 1 35 37
M  V30 37 2 36 38
M  V30 38 2 37 39
M  V30 39 1 39 40
M  V30 40 1 9 11
M  V30 41 1 18 20
M  V30 42 2 26 27
M  V30 43 1 31 32
M  V30 44 1 38 39
M  V30 END BOND
M  V30 END CTAB
M  END
>  <Molecule Name>
Compound 753

>  <Molecule Name 2>
Compound 753

>  <Compound ID>
222

>  <Name>
GNF-7

>  <Uniprot>
Q05397

>  <Target>
FAK

>  <Smiles>
CC1=CC=C(NC2=NC=C3CN(C4=CC(NC(=O)C5=CC=CC(C(F)(F)F)=C5)=CC=C4C)C(=O)N(C)C3=N2)C=N1

>  <Kd (nM)>


>  <Assay (Kd)>


>  <Ki (nM)>


>  <Assay (Ki)>


>  <IC50 (nM)>


>  <Assay (IC50)>


>  <EC50 (nM)>


>  <Assay (EC50)>


>  <Article DOI>


>  <Molecular Weight>
547.541

>  <Exact Mass>
547.1943577

>  <XLogP3>
4.33

>  <Heavy Atom Count>
40

>  <Ring Count>
5

>  <Hydrogen Bond Acceptor Count>
6

>  <Hydrogen Bond Donor Count>
2

>  <Rotatable Bond Count>
5

>  <Topological Polar Surface Area>
103.35

>  <Molecular Formula>
C28H24F3N7O2

>  <InChI>
InChI=1S/C28H24F3N7O2/c1-16-7-9-21(34-25(39)18-5-4-6-20(11-18)28(29,30)31)12-23(16)38-15-19-13-33-26(36-24(19)37(3)27(38)40)35-22-10-8-17(2)32-14-22/h4-14H,15H2,1-3H3,(H,34,39)(H,33,35,36)

>  <InChI Key>
SZNYUUZOQHNEKB-UHFFFAOYSA-N

>  <BindingDB>
50323777

>  <PubChem>
11478363

>  <ChEMBL>
CHEMBL1214141

$$$$
222
Actelion Java MolfileCreator 2.0

  0  0  0  0  0  0              0 V3000
M  V30 BEGIN CTAB
M  V30 COUNTS 40 44 0 0 0
M  V30 BEGIN ATOM
M  V30 1 F 2.4641 2.5 0.0 0
M  V30 2 C 3.4641 2.5 0.0 0
M  V30 3 F 3.4641 3.5 0.0 0
M  V30 4 F 4.4641 2.5 0.0 0
M  V30 5 C 3.4641 1.5 0.0 0
M  V30 6 C 2.598 1.0 0.0 0
M  V30 7 C 4.3301 1.0 0.0 0
M  V30 8 C 2.598 0.0 0.0 0
M  V30 9 C 4.3301 0.0 0.0 0
M  V30 10 C 1.732 -0.5 0.0 0
M  V30 11 C 3.4641 -0.4999 0.0 0
M  V30 12 O 1.732 -1.5 0.0 0
M  V30 13 N 0.866 0.0 0.0 0
M  V30 14 C 0.0 -0.5 0.0 0
M  V30 15 C -0.866 0.0 0.0 0
M  V30 16 C 0.0 -1.4999 0.0 0
M  V30 17 C -1.732 -0.4999 0.0 0
M  V30 18 C -0.866 -1.9999 0.0 0
M  V30 19 N -2.598 0.0 0.0 0
M  V30 20 C -1.732 -1.4999 0.0 0
M  V30 21 C -2.598 1.0 0.0 0
M  V30 22 C -3.4641 -0.4999 0.0 0
M  V30 23 C -2.598 -1.9999 0.0 0
M  V30 24 O -1.732 1.5 0.0 0
M  V30 25 N -3.4641 1.5 0.0 0
M  V30 26 C -4.3301 0.0 0.0 0
M  V30 27 C -4.3301 1.0 0.0 0
M  V30 28 C -3.4641 2.5 0.0 0
M  V30 29 C -5.1961 -0.4999 0.0 0
M  V30 30 N -5.1961 1.5 0.0 0
M  V30 31 N -6.0621 0.0 0.0 0
M  V30 32 C -6.0621 1.0 0.0 0
M  V30 33 N -6.9282 1.5 0.0 0
M  V30 34 C -7.7942 1.0 0.0 0
M  V30 35 C -8.6602 1.5 0.0 0
M  V30 36 C -7.7942 0.0 0.0 0
M  V30 37 N -9.5262 1.0 0.0 0
M  V30 38 C -8.6602 -0.4999 0.0 0
M  V30 39 C -9.5262 0.0 0.0 0
M  V30 40 C -10.3923 -0.4999 0.0 0
M  V30 END ATOM
M  V30 BEGIN BOND
M  V30 1 1 1 2
M  V30 2 1 2 3
M  V30 3 1 2 4
M  V30 4 1 2 5
M  V30 5 2 5 6
M  V30 6 1 5 7
M  V30 7 1 6 8
M  V30 8 2 7 9
M  V30 9 1 8 10
M  V30 10 2 8 11
M  V30 11 2 10 12
M  V30 12 1 10 13
M  V30 13 1 13 14
M  V30 14 2 14 15
M  V30 15 1 14 16
M  V30 16 1 15 17
M  V30 17 2 16 18
M  V30 18 1 17 19
M  V30 19 2 17 20
M  V30 20 1 19 21
M  V30 21 1 19 22
M  V30 22 1 20 23
M  V30 23 2 21 24
M  V30 24 1 21 25
M  V30 25 1 22 26
M  V30 26 1 25 27
M  V30 27 1 25 28
M  V30 28 1 26 29
M  V30 29 1 27 30
M  V30 30 2 29 31
M  V30 31 2 30 32
M  V30 32 1 32 33
M  V30 33 1 33 34
M  V30 34 2 34 35
M  V30 35 1 34 36
M  V30 36 1 35 37
M  V30 37 2 36 38
M  V30 38 2 37 39
M  V30 39 1 39 40
M  V30 40 1 9 11
M  V30 41 1 18 20
M  V30 42 2 26 27
M  V30 43 1 31 32
M  V30 44 1 38 39
M  V30 END BOND
M  V30 END CTAB
M  END
>  <Molecule Name>
Compound 754

>  <Molecule Name 2>
Compound 754

>  <Compound ID>
222

>  <Name>
GNF-7

>  <Uniprot>
P16591

>  <Target>
FER

>  <Smiles>
CC1=CC=C(NC2=NC=C3CN(C4=CC(NC(=O)C5=CC=CC(C(F)(F)F)=C5)=CC=C4C)C(=O)N(C)C3=N2)C=N1

>  <Kd (nM)>


>  <Assay (Kd)>


>  <Ki (nM)>


>  <Assay (Ki)>


>  <IC50 (nM)>


>  <Assay (IC50)>


>  <EC50 (nM)>


>  <Assay (EC50)>


>  <Article DOI>


>  <Molecular Weight>
547.541

>  <Exact Mass>
547.1943577

>  <XLogP3>
4.33

>  <Heavy Atom Count>
40

>  <Ring Count>
5

>  <Hydrogen Bond Acceptor Count>
6

>  <Hydrogen Bond Donor Count>
2

>  <Rotatable Bond Count>
5

>  <Topological Polar Surface Area>
103.35

>  <Molecular Formula>
C28H24F3N7O2

>  <InChI>
InChI=1S/C28H24F3N7O2/c1-16-7-9-21(34-25(39)18-5-4-6-20(11-18)28(29,30)31)12-23(16)38-15-19-13-33-26(36-24(19)37(3)27(38)40)35-22-10-8-17(2)32-14-22/h4-14H,15H2,1-3H3,(H,34,39)(H,33,35,36)

>  <InChI Key>
SZNYUUZOQHNEKB-UHFFFAOYSA-N

>  <BindingDB>
50323777

>  <PubChem>
11478363

>  <ChEMBL>
CHEMBL1214141

$$$$
222
Actelion Java MolfileCreator 2.0

  0  0  0  0  0  0              0 V3000
M  V30 BEGIN CTAB
M  V30 COUNTS 40 44 0 0 0
M  V30 BEGIN ATOM
M  V30 1 F 2.4641 2.5 0.0 0
M  V30 2 C 3.4641 2.5 0.0 0
M  V30 3 F 3.4641 3.5 0.0 0
M  V30 4 F 4.4641 2.5 0.0 0
M  V30 5 C 3.4641 1.5 0.0 0
M  V30 6 C 2.598 1.0 0.0 0
M  V30 7 C 4.3301 1.0 0.0 0
M  V30 8 C 2.598 0.0 0.0 0
M  V30 9 C 4.3301 0.0 0.0 0
M  V30 10 C 1.732 -0.5 0.0 0
M  V30 11 C 3.4641 -0.4999 0.0 0
M  V30 12 O 1.732 -1.5 0.0 0
M  V30 13 N 0.866 0.0 0.0 0
M  V30 14 C 0.0 -0.5 0.0 0
M  V30 15 C -0.866 0.0 0.0 0
M  V30 16 C 0.0 -1.4999 0.0 0
M  V30 17 C -1.732 -0.4999 0.0 0
M  V30 18 C -0.866 -1.9999 0.0 0
M  V30 19 N -2.598 0.0 0.0 0
M  V30 20 C -1.732 -1.4999 0.0 0
M  V30 21 C -2.598 1.0 0.0 0
M  V30 22 C -3.4641 -0.4999 0.0 0
M  V30 23 C -2.598 -1.9999 0.0 0
M  V30 24 O -1.732 1.5 0.0 0
M  V30 25 N -3.4641 1.5 0.0 0
M  V30 26 C -4.3301 0.0 0.0 0
M  V30 27 C -4.3301 1.0 0.0 0
M  V30 28 C -3.4641 2.5 0.0 0
M  V30 29 C -5.1961 -0.4999 0.0 0
M  V30 30 N -5.1961 1.5 0.0 0
M  V30 31 N -6.0621 0.0 0.0 0
M  V30 32 C -6.0621 1.0 0.0 0
M  V30 33 N -6.9282 1.5 0.0 0
M  V30 34 C -7.7942 1.0 0.0 0
M  V30 35 C -8.6602 1.5 0.0 0
M  V30 36 C -7.7942 0.0 0.0 0
M  V30 37 N -9.5262 1.0 0.0 0
M  V30 38 C -8.6602 -0.4999 0.0 0
M  V30 39 C -9.5262 0.0 0.0 0
M  V30 40 C -10.3923 -0.4999 0.0 0
M  V30 END ATOM
M  V30 BEGIN BOND
M  V30 1 1 1 2
M  V30 2 1 2 3
M  V30 3 1 2 4
M  V30 4 1 2 5
M  V30 5 2 5 6
M  V30 6 1 5 7
M  V30 7 1 6 8
M  V30 8 2 7 9
M  V30 9 1 8 10
M  V30 10 2 8 11
M  V30 11 2 10 12
M  V30 12 1 10 13
M  V30 13 1 13 14
M  V30 14 2 14 15
M  V30 15 1 14 16
M  V30 16 1 15 17
M  V30 17 2 16 18
M  V30 18 1 17 19
M  V30 19 2 17 20
M  V30 20 1 19 21
M  V30 21 1 19 22
M  V30 22 1 20 23
M  V30 23 2 21 24
M  V30 24 1 21 25
M  V30 25 1 22 26
M  V30 26 1 25 27
M  V30 27 1 25 28
M  V30 28 1 26 29
M  V30 29 1 27 30
M  V30 30 2 29 31
M  V30 31 2 30 32
M  V30 32 1 32 33
M  V30 33 1 33 34
M  V30 34 2 34 35
M  V30 35 1 34 36
M  V30 36 1 35 37
M  V30 37 2 36 38
M  V30 38 2 37 39
M  V30 39 1 39 40
M  V30 40 1 9 11
M  V30 41 1 18 20
M  V30 42 2 26 27
M  V30 43 1 31 32
M  V30 44 1 38 39
M  V30 END BOND
M  V30 END CTAB
M  END
>  <Molecule Name>
Compound 755

>  <Molecule Name 2>
Compound 755

>  <Compound ID>
222

>  <Name>
GNF-7

>  <Uniprot>
P06241

>  <Target>
FYN

>  <Smiles>
CC1=CC=C(NC2=NC=C3CN(C4=CC(NC(=O)C5=CC=CC(C(F)(F)F)=C5)=CC=C4C)C(=O)N(C)C3=N2)C=N1

>  <Kd (nM)>


>  <Assay (Kd)>


>  <Ki (nM)>


>  <Assay (Ki)>


>  <IC50 (nM)>


>  <Assay (IC50)>


>  <EC50 (nM)>


>  <Assay (EC50)>


>  <Article DOI>


>  <Molecular Weight>
547.541

>  <Exact Mass>
547.1943577

>  <XLogP3>
4.33

>  <Heavy Atom Count>
40

>  <Ring Count>
5

>  <Hydrogen Bond Acceptor Count>
6

>  <Hydrogen Bond Donor Count>
2

>  <Rotatable Bond Count>
5

>  <Topological Polar Surface Area>
103.35

>  <Molecular Formula>
C28H24F3N7O2

>  <InChI>
InChI=1S/C28H24F3N7O2/c1-16-7-9-21(34-25(39)18-5-4-6-20(11-18)28(29,30)31)12-23(16)38-15-19-13-33-26(36-24(19)37(3)27(38)40)35-22-10-8-17(2)32-14-22/h4-14H,15H2,1-3H3,(H,34,39)(H,33,35,36)

>  <InChI Key>
SZNYUUZOQHNEKB-UHFFFAOYSA-N

>  <BindingDB>
50323777

>  <PubChem>
11478363

>  <ChEMBL>
CHEMBL1214141

$$$$
222
Actelion Java MolfileCreator 2.0

  0  0  0  0  0  0              0 V3000
M  V30 BEGIN CTAB
M  V30 COUNTS 40 44 0 0 0
M  V30 BEGIN ATOM
M  V30 1 F 2.4641 2.5 0.0 0
M  V30 2 C 3.4641 2.5 0.0 0
M  V30 3 F 3.4641 3.5 0.0 0
M  V30 4 F 4.4641 2.5 0.0 0
M  V30 5 C 3.4641 1.5 0.0 0
M  V30 6 C 2.598 1.0 0.0 0
M  V30 7 C 4.3301 1.0 0.0 0
M  V30 8 C 2.598 0.0 0.0 0
M  V30 9 C 4.3301 0.0 0.0 0
M  V30 10 C 1.732 -0.5 0.0 0
M  V30 11 C 3.4641 -0.4999 0.0 0
M  V30 12 O 1.732 -1.5 0.0 0
M  V30 13 N 0.866 0.0 0.0 0
M  V30 14 C 0.0 -0.5 0.0 0
M  V30 15 C -0.866 0.0 0.0 0
M  V30 16 C 0.0 -1.4999 0.0 0
M  V30 17 C -1.732 -0.4999 0.0 0
M  V30 18 C -0.866 -1.9999 0.0 0
M  V30 19 N -2.598 0.0 0.0 0
M  V30 20 C -1.732 -1.4999 0.0 0
M  V30 21 C -2.598 1.0 0.0 0
M  V30 22 C -3.4641 -0.4999 0.0 0
M  V30 23 C -2.598 -1.9999 0.0 0
M  V30 24 O -1.732 1.5 0.0 0
M  V30 25 N -3.4641 1.5 0.0 0
M  V30 26 C -4.3301 0.0 0.0 0
M  V30 27 C -4.3301 1.0 0.0 0
M  V30 28 C -3.4641 2.5 0.0 0
M  V30 29 C -5.1961 -0.4999 0.0 0
M  V30 30 N -5.1961 1.5 0.0 0
M  V30 31 N -6.0621 0.0 0.0 0
M  V30 32 C -6.0621 1.0 0.0 0
M  V30 33 N -6.9282 1.5 0.0 0
M  V30 34 C -7.7942 1.0 0.0 0
M  V30 35 C -8.6602 1.5 0.0 0
M  V30 36 C -7.7942 0.0 0.0 0
M  V30 37 N -9.5262 1.0 0.0 0
M  V30 38 C -8.6602 -0.4999 0.0 0
M  V30 39 C -9.5262 0.0 0.0 0
M  V30 40 C -10.3923 -0.4999 0.0 0
M  V30 END ATOM
M  V30 BEGIN BOND
M  V30 1 1 1 2
M  V30 2 1 2 3
M  V30 3 1 2 4
M  V30 4 1 2 5
M  V30 5 2 5 6
M  V30 6 1 5 7
M  V30 7 1 6 8
M  V30 8 2 7 9
M  V30 9 1 8 10
M  V30 10 2 8 11
M  V30 11 2 10 12
M  V30 12 1 10 13
M  V30 13 1 13 14
M  V30 14 2 14 15
M  V30 15 1 14 16
M  V30 16 1 15 17
M  V30 17 2 16 18
M  V30 18 1 17 19
M  V30 19 2 17 20
M  V30 20 1 19 21
M  V30 21 1 19 22
M  V30 22 1 20 23
M  V30 23 2 21 24
M  V30 24 1 21 25
M  V30 25 1 22 26
M  V30 26 1 25 27
M  V30 27 1 25 28
M  V30 28 1 26 29
M  V30 29 1 27 30
M  V30 30 2 29 31
M  V30 31 2 30 32
M  V30 32 1 32 33
M  V30 33 1 33 34
M  V30 34 2 34 35
M  V30 35 1 34 36
M  V30 36 1 35 37
M  V30 37 2 36 38
M  V30 38 2 37 39
M  V30 39 1 39 40
M  V30 40 1 9 11
M  V30 41 1 18 20
M  V30 42 2 26 27
M  V30 43 1 31 32
M  V30 44 1 38 39
M  V30 END BOND
M  V30 END CTAB
M  END
>  <Molecule Name>
Compound 756

>  <Molecule Name 2>
Compound 756

>  <Compound ID>
222

>  <Name>
GNF-7

>  <Uniprot>
O14976

>  <Target>
GAK

>  <Smiles>
CC1=CC=C(NC2=NC=C3CN(C4=CC(NC(=O)C5=CC=CC(C(F)(F)F)=C5)=CC=C4C)C(=O)N(C)C3=N2)C=N1

>  <Kd (nM)>


>  <Assay (Kd)>


>  <Ki (nM)>


>  <Assay (Ki)>


>  <IC50 (nM)>


>  <Assay (IC50)>


>  <EC50 (nM)>


>  <Assay (EC50)>


>  <Article DOI>


>  <Molecular Weight>
547.541

>  <Exact Mass>
547.1943577

>  <XLogP3>
4.33

>  <Heavy Atom Count>
40

>  <Ring Count>
5

>  <Hydrogen Bond Acceptor Count>
6

>  <Hydrogen Bond Donor Count>
2

>  <Rotatable Bond Count>
5

>  <Topological Polar Surface Area>
103.35

>  <Molecular Formula>
C28H24F3N7O2

>  <InChI>
InChI=1S/C28H24F3N7O2/c1-16-7-9-21(34-25(39)18-5-4-6-20(11-18)28(29,30)31)12-23(16)38-15-19-13-33-26(36-24(19)37(3)27(38)40)35-22-10-8-17(2)32-14-22/h4-14H,15H2,1-3H3,(H,34,39)(H,33,35,36)

>  <InChI Key>
SZNYUUZOQHNEKB-UHFFFAOYSA-N

>  <BindingDB>
50323777

>  <PubChem>
11478363

>  <ChEMBL>
CHEMBL1214141

$$$$
222
Actelion Java MolfileCreator 2.0

  0  0  0  0  0  0              0 V3000
M  V30 BEGIN CTAB
M  V30 COUNTS 40 44 0 0 0
M  V30 BEGIN ATOM
M  V30 1 F 2.4641 2.5 0.0 0
M  V30 2 C 3.4641 2.5 0.0 0
M  V30 3 F 3.4641 3.5 0.0 0
M  V30 4 F 4.4641 2.5 0.0 0
M  V30 5 C 3.4641 1.5 0.0 0
M  V30 6 C 2.598 1.0 0.0 0
M  V30 7 C 4.3301 1.0 0.0 0
M  V30 8 C 2.598 0.0 0.0 0
M  V30 9 C 4.3301 0.0 0.0 0
M  V30 10 C 1.732 -0.5 0.0 0
M  V30 11 C 3.4641 -0.4999 0.0 0
M  V30 12 O 1.732 -1.5 0.0 0
M  V30 13 N 0.866 0.0 0.0 0
M  V30 14 C 0.0 -0.5 0.0 0
M  V30 15 C -0.866 0.0 0.0 0
M  V30 16 C 0.0 -1.4999 0.0 0
M  V30 17 C -1.732 -0.4999 0.0 0
M  V30 18 C -0.866 -1.9999 0.0 0
M  V30 19 N -2.598 0.0 0.0 0
M  V30 20 C -1.732 -1.4999 0.0 0
M  V30 21 C -2.598 1.0 0.0 0
M  V30 22 C -3.4641 -0.4999 0.0 0
M  V30 23 C -2.598 -1.9999 0.0 0
M  V30 24 O -1.732 1.5 0.0 0
M  V30 25 N -3.4641 1.5 0.0 0
M  V30 26 C -4.3301 0.0 0.0 0
M  V30 27 C -4.3301 1.0 0.0 0
M  V30 28 C -3.4641 2.5 0.0 0
M  V30 29 C -5.1961 -0.4999 0.0 0
M  V30 30 N -5.1961 1.5 0.0 0
M  V30 31 N -6.0621 0.0 0.0 0
M  V30 32 C -6.0621 1.0 0.0 0
M  V30 33 N -6.9282 1.5 0.0 0
M  V30 34 C -7.7942 1.0 0.0 0
M  V30 35 C -8.6602 1.5 0.0 0
M  V30 36 C -7.7942 0.0 0.0 0
M  V30 37 N -9.5262 1.0 0.0 0
M  V30 38 C -8.6602 -0.4999 0.0 0
M  V30 39 C -9.5262 0.0 0.0 0
M  V30 40 C -10.3923 -0.4999 0.0 0
M  V30 END ATOM
M  V30 BEGIN BOND
M  V30 1 1 1 2
M  V30 2 1 2 3
M  V30 3 1 2 4
M  V30 4 1 2 5
M  V30 5 2 5 6
M  V30 6 1 5 7
M  V30 7 1 6 8
M  V30 8 2 7 9
M  V30 9 1 8 10
M  V30 10 2 8 11
M  V30 11 2 10 12
M  V30 12 1 10 13
M  V30 13 1 13 14
M  V30 14 2 14 15
M  V30 15 1 14 16
M  V30 16 1 15 17
M  V30 17 2 16 18
M  V30 18 1 17 19
M  V30 19 2 17 20
M  V30 20 1 19 21
M  V30 21 1 19 22
M  V30 22 1 20 23
M  V30 23 2 21 24
M  V30 24 1 21 25
M  V30 25 1 22 26
M  V30 26 1 25 27
M  V30 27 1 25 28
M  V30 28 1 26 29
M  V30 29 1 27 30
M  V30 30 2 29 31
M  V30 31 2 30 32
M  V30 32 1 32 33
M  V30 33 1 33 34
M  V30 34 2 34 35
M  V30 35 1 34 36
M  V30 36 1 35 37
M  V30 37 2 36 38
M  V30 38 2 37 39
M  V30 39 1 39 40
M  V30 40 1 9 11
M  V30 41 1 18 20
M  V30 42 2 26 27
M  V30 43 1 31 32
M  V30 44 1 38 39
M  V30 END BOND
M  V30 END CTAB
M  END
>  <Molecule Name>
Compound 757

>  <Molecule Name 2>
Compound 757

>  <Compound ID>
222

>  <Name>
GNF-7

>  <Uniprot>
O95835

>  <Target>
LATS1

>  <Smiles>
CC1=CC=C(NC2=NC=C3CN(C4=CC(NC(=O)C5=CC=CC(C(F)(F)F)=C5)=CC=C4C)C(=O)N(C)C3=N2)C=N1

>  <Kd (nM)>


>  <Assay (Kd)>


>  <Ki (nM)>


>  <Assay (Ki)>


>  <IC50 (nM)>


>  <Assay (IC50)>


>  <EC50 (nM)>


>  <Assay (EC50)>


>  <Article DOI>


>  <Molecular Weight>
547.541

>  <Exact Mass>
547.1943577

>  <XLogP3>
4.33

>  <Heavy Atom Count>
40

>  <Ring Count>
5

>  <Hydrogen Bond Acceptor Count>
6

>  <Hydrogen Bond Donor Count>
2

>  <Rotatable Bond Count>
5

>  <Topological Polar Surface Area>
103.35

>  <Molecular Formula>
C28H24F3N7O2

>  <InChI>
InChI=1S/C28H24F3N7O2/c1-16-7-9-21(34-25(39)18-5-4-6-20(11-18)28(29,30)31)12-23(16)38-15-19-13-33-26(36-24(19)37(3)27(38)40)35-22-10-8-17(2)32-14-22/h4-14H,15H2,1-3H3,(H,34,39)(H,33,35,36)

>  <InChI Key>
SZNYUUZOQHNEKB-UHFFFAOYSA-N

>  <BindingDB>
50323777

>  <PubChem>
11478363

>  <ChEMBL>
CHEMBL1214141

$$$$
222
Actelion Java MolfileCreator 2.0

  0  0  0  0  0  0              0 V3000
M  V30 BEGIN CTAB
M  V30 COUNTS 40 44 0 0 0
M  V30 BEGIN ATOM
M  V30 1 F 2.4641 2.5 0.0 0
M  V30 2 C 3.4641 2.5 0.0 0
M  V30 3 F 3.4641 3.5 0.0 0
M  V30 4 F 4.4641 2.5 0.0 0
M  V30 5 C 3.4641 1.5 0.0 0
M  V30 6 C 2.598 1.0 0.0 0
M  V30 7 C 4.3301 1.0 0.0 0
M  V30 8 C 2.598 0.0 0.0 0
M  V30 9 C 4.3301 0.0 0.0 0
M  V30 10 C 1.732 -0.5 0.0 0
M  V30 11 C 3.4641 -0.4999 0.0 0
M  V30 12 O 1.732 -1.5 0.0 0
M  V30 13 N 0.866 0.0 0.0 0
M  V30 14 C 0.0 -0.5 0.0 0
M  V30 15 C -0.866 0.0 0.0 0
M  V30 16 C 0.0 -1.4999 0.0 0
M  V30 17 C -1.732 -0.4999 0.0 0
M  V30 18 C -0.866 -1.9999 0.0 0
M  V30 19 N -2.598 0.0 0.0 0
M  V30 20 C -1.732 -1.4999 0.0 0
M  V30 21 C -2.598 1.0 0.0 0
M  V30 22 C -3.4641 -0.4999 0.0 0
M  V30 23 C -2.598 -1.9999 0.0 0
M  V30 24 O -1.732 1.5 0.0 0
M  V30 25 N -3.4641 1.5 0.0 0
M  V30 26 C -4.3301 0.0 0.0 0
M  V30 27 C -4.3301 1.0 0.0 0
M  V30 28 C -3.4641 2.5 0.0 0
M  V30 29 C -5.1961 -0.4999 0.0 0
M  V30 30 N -5.1961 1.5 0.0 0
M  V30 31 N -6.0621 0.0 0.0 0
M  V30 32 C -6.0621 1.0 0.0 0
M  V30 33 N -6.9282 1.5 0.0 0
M  V30 34 C -7.7942 1.0 0.0 0
M  V30 35 C -8.6602 1.5 0.0 0
M  V30 36 C -7.7942 0.0 0.0 0
M  V30 37 N -9.5262 1.0 0.0 0
M  V30 38 C -8.6602 -0.4999 0.0 0
M  V30 39 C -9.5262 0.0 0.0 0
M  V30 40 C -10.3923 -0.4999 0.0 0
M  V30 END ATOM
M  V30 BEGIN BOND
M  V30 1 1 1 2
M  V30 2 1 2 3
M  V30 3 1 2 4
M  V30 4 1 2 5
M  V30 5 2 5 6
M  V30 6 1 5 7
M  V30 7 1 6 8
M  V30 8 2 7 9
M  V30 9 1 8 10
M  V30 10 2 8 11
M  V30 11 2 10 12
M  V30 12 1 10 13
M  V30 13 1 13 14
M  V30 14 2 14 15
M  V30 15 1 14 16
M  V30 16 1 15 17
M  V30 17 2 16 18
M  V30 18 1 17 19
M  V30 19 2 17 20
M  V30 20 1 19 21
M  V30 21 1 19 22
M  V30 22 1 20 23
M  V30 23 2 21 24
M  V30 24 1 21 25
M  V30 25 1 22 26
M  V30 26 1 25 27
M  V30 27 1 25 28
M  V30 28 1 26 29
M  V30 29 1 27 30
M  V30 30 2 29 31
M  V30 31 2 30 32
M  V30 32 1 32 33
M  V30 33 1 33 34
M  V30 34 2 34 35
M  V30 35 1 34 36
M  V30 36 1 35 37
M  V30 37 2 36 38
M  V30 38 2 37 39
M  V30 39 1 39 40
M  V30 40 1 9 11
M  V30 41 1 18 20
M  V30 42 2 26 27
M  V30 43 1 31 32
M  V30 44 1 38 39
M  V30 END BOND
M  V30 END CTAB
M  END
>  <Molecule Name>
Compound 758

>  <Molecule Name 2>
Compound 758

>  <Compound ID>
222

>  <Name>
GNF-7

>  <Uniprot>
P06239

>  <Target>
LCK

>  <Smiles>
CC1=CC=C(NC2=NC=C3CN(C4=CC(NC(=O)C5=CC=CC(C(F)(F)F)=C5)=CC=C4C)C(=O)N(C)C3=N2)C=N1

>  <Kd (nM)>


>  <Assay (Kd)>


>  <Ki (nM)>


>  <Assay (Ki)>


>  <IC50 (nM)>


>  <Assay (IC50)>


>  <EC50 (nM)>


>  <Assay (EC50)>


>  <Article DOI>


>  <Molecular Weight>
547.541

>  <Exact Mass>
547.1943577

>  <XLogP3>
4.33

>  <Heavy Atom Count>
40

>  <Ring Count>
5

>  <Hydrogen Bond Acceptor Count>
6

>  <Hydrogen Bond Donor Count>
2

>  <Rotatable Bond Count>
5

>  <Topological Polar Surface Area>
103.35

>  <Molecular Formula>
C28H24F3N7O2

>  <InChI>
InChI=1S/C28H24F3N7O2/c1-16-7-9-21(34-25(39)18-5-4-6-20(11-18)28(29,30)31)12-23(16)38-15-19-13-33-26(36-24(19)37(3)27(38)40)35-22-10-8-17(2)32-14-22/h4-14H,15H2,1-3H3,(H,34,39)(H,33,35,36)

>  <InChI Key>
SZNYUUZOQHNEKB-UHFFFAOYSA-N

>  <BindingDB>
50323777

>  <PubChem>
11478363

>  <ChEMBL>
CHEMBL1214141

$$$$
222
Actelion Java MolfileCreator 2.0

  0  0  0  0  0  0              0 V3000
M  V30 BEGIN CTAB
M  V30 COUNTS 40 44 0 0 0
M  V30 BEGIN ATOM
M  V30 1 F 2.4641 2.5 0.0 0
M  V30 2 C 3.4641 2.5 0.0 0
M  V30 3 F 3.4641 3.5 0.0 0
M  V30 4 F 4.4641 2.5 0.0 0
M  V30 5 C 3.4641 1.5 0.0 0
M  V30 6 C 2.598 1.0 0.0 0
M  V30 7 C 4.3301 1.0 0.0 0
M  V30 8 C 2.598 0.0 0.0 0
M  V30 9 C 4.3301 0.0 0.0 0
M  V30 10 C 1.732 -0.5 0.0 0
M  V30 11 C 3.4641 -0.4999 0.0 0
M  V30 12 O 1.732 -1.5 0.0 0
M  V30 13 N 0.866 0.0 0.0 0
M  V30 14 C 0.0 -0.5 0.0 0
M  V30 15 C -0.866 0.0 0.0 0
M  V30 16 C 0.0 -1.4999 0.0 0
M  V30 17 C -1.732 -0.4999 0.0 0
M  V30 18 C -0.866 -1.9999 0.0 0
M  V30 19 N -2.598 0.0 0.0 0
M  V30 20 C -1.732 -1.4999 0.0 0
M  V30 21 C -2.598 1.0 0.0 0
M  V30 22 C -3.4641 -0.4999 0.0 0
M  V30 23 C -2.598 -1.9999 0.0 0
M  V30 24 O -1.732 1.5 0.0 0
M  V30 25 N -3.4641 1.5 0.0 0
M  V30 26 C -4.3301 0.0 0.0 0
M  V30 27 C -4.3301 1.0 0.0 0
M  V30 28 C -3.4641 2.5 0.0 0
M  V30 29 C -5.1961 -0.4999 0.0 0
M  V30 30 N -5.1961 1.5 0.0 0
M  V30 31 N -6.0621 0.0 0.0 0
M  V30 32 C -6.0621 1.0 0.0 0
M  V30 33 N -6.9282 1.5 0.0 0
M  V30 34 C -7.7942 1.0 0.0 0
M  V30 35 C -8.6602 1.5 0.0 0
M  V30 36 C -7.7942 0.0 0.0 0
M  V30 37 N -9.5262 1.0 0.0 0
M  V30 38 C -8.6602 -0.4999 0.0 0
M  V30 39 C -9.5262 0.0 0.0 0
M  V30 40 C -10.3923 -0.4999 0.0 0
M  V30 END ATOM
M  V30 BEGIN BOND
M  V30 1 1 1 2
M  V30 2 1 2 3
M  V30 3 1 2 4
M  V30 4 1 2 5
M  V30 5 2 5 6
M  V30 6 1 5 7
M  V30 7 1 6 8
M  V30 8 2 7 9
M  V30 9 1 8 10
M  V30 10 2 8 11
M  V30 11 2 10 12
M  V30 12 1 10 13
M  V30 13 1 13 14
M  V30 14 2 14 15
M  V30 15 1 14 16
M  V30 16 1 15 17
M  V30 17 2 16 18
M  V30 18 1 17 19
M  V30 19 2 17 20
M  V30 20 1 19 21
M  V30 21 1 19 22
M  V30 22 1 20 23
M  V30 23 2 21 24
M  V30 24 1 21 25
M  V30 25 1 22 26
M  V30 26 1 25 27
M  V30 27 1 25 28
M  V30 28 1 26 29
M  V30 29 1 27 30
M  V30 30 2 29 31
M  V30 31 2 30 32
M  V30 32 1 32 33
M  V30 33 1 33 34
M  V30 34 2 34 35
M  V30 35 1 34 36
M  V30 36 1 35 37
M  V30 37 2 36 38
M  V30 38 2 37 39
M  V30 39 1 39 40
M  V30 40 1 9 11
M  V30 41 1 18 20
M  V30 42 2 26 27
M  V30 43 1 31 32
M  V30 44 1 38 39
M  V30 END BOND
M  V30 END CTAB
M  END
>  <Molecule Name>
Compound 759

>  <Molecule Name 2>
Compound 759

>  <Compound ID>
222

>  <Name>
GNF-7

>  <Uniprot>
P53667

>  <Target>
LIMK1

>  <Smiles>
CC1=CC=C(NC2=NC=C3CN(C4=CC(NC(=O)C5=CC=CC(C(F)(F)F)=C5)=CC=C4C)C(=O)N(C)C3=N2)C=N1

>  <Kd (nM)>


>  <Assay (Kd)>


>  <Ki (nM)>


>  <Assay (Ki)>


>  <IC50 (nM)>


>  <Assay (IC50)>


>  <EC50 (nM)>


>  <Assay (EC50)>


>  <Article DOI>


>  <Molecular Weight>
547.541

>  <Exact Mass>
547.1943577

>  <XLogP3>
4.33

>  <Heavy Atom Count>
40

>  <Ring Count>
5

>  <Hydrogen Bond Acceptor Count>
6

>  <Hydrogen Bond Donor Count>
2

>  <Rotatable Bond Count>
5

>  <Topological Polar Surface Area>
103.35

>  <Molecular Formula>
C28H24F3N7O2

>  <InChI>
InChI=1S/C28H24F3N7O2/c1-16-7-9-21(34-25(39)18-5-4-6-20(11-18)28(29,30)31)12-23(16)38-15-19-13-33-26(36-24(19)37(3)27(38)40)35-22-10-8-17(2)32-14-22/h4-14H,15H2,1-3H3,(H,34,39)(H,33,35,36)

>  <InChI Key>
SZNYUUZOQHNEKB-UHFFFAOYSA-N

>  <BindingDB>
50323777

>  <PubChem>
11478363

>  <ChEMBL>
CHEMBL1214141

$$$$
222
Actelion Java MolfileCreator 2.0

  0  0  0  0  0  0              0 V3000
M  V30 BEGIN CTAB
M  V30 COUNTS 40 44 0 0 0
M  V30 BEGIN ATOM
M  V30 1 F 2.4641 2.5 0.0 0
M  V30 2 C 3.4641 2.5 0.0 0
M  V30 3 F 3.4641 3.5 0.0 0
M  V30 4 F 4.4641 2.5 0.0 0
M  V30 5 C 3.4641 1.5 0.0 0
M  V30 6 C 2.598 1.0 0.0 0
M  V30 7 C 4.3301 1.0 0.0 0
M  V30 8 C 2.598 0.0 0.0 0
M  V30 9 C 4.3301 0.0 0.0 0
M  V30 10 C 1.732 -0.5 0.0 0
M  V30 11 C 3.4641 -0.4999 0.0 0
M  V30 12 O 1.732 -1.5 0.0 0
M  V30 13 N 0.866 0.0 0.0 0
M  V30 14 C 0.0 -0.5 0.0 0
M  V30 15 C -0.866 0.0 0.0 0
M  V30 16 C 0.0 -1.4999 0.0 0
M  V30 17 C -1.732 -0.4999 0.0 0
M  V30 18 C -0.866 -1.9999 0.0 0
M  V30 19 N -2.598 0.0 0.0 0
M  V30 20 C -1.732 -1.4999 0.0 0
M  V30 21 C -2.598 1.0 0.0 0
M  V30 22 C -3.4641 -0.4999 0.0 0
M  V30 23 C -2.598 -1.9999 0.0 0
M  V30 24 O -1.732 1.5 0.0 0
M  V30 25 N -3.4641 1.5 0.0 0
M  V30 26 C -4.3301 0.0 0.0 0
M  V30 27 C -4.3301 1.0 0.0 0
M  V30 28 C -3.4641 2.5 0.0 0
M  V30 29 C -5.1961 -0.4999 0.0 0
M  V30 30 N -5.1961 1.5 0.0 0
M  V30 31 N -6.0621 0.0 0.0 0
M  V30 32 C -6.0621 1.0 0.0 0
M  V30 33 N -6.9282 1.5 0.0 0
M  V30 34 C -7.7942 1.0 0.0 0
M  V30 35 C -8.6602 1.5 0.0 0
M  V30 36 C -7.7942 0.0 0.0 0
M  V30 37 N -9.5262 1.0 0.0 0
M  V30 38 C -8.6602 -0.4999 0.0 0
M  V30 39 C -9.5262 0.0 0.0 0
M  V30 40 C -10.3923 -0.4999 0.0 0
M  V30 END ATOM
M  V30 BEGIN BOND
M  V30 1 1 1 2
M  V30 2 1 2 3
M  V30 3 1 2 4
M  V30 4 1 2 5
M  V30 5 2 5 6
M  V30 6 1 5 7
M  V30 7 1 6 8
M  V30 8 2 7 9
M  V30 9 1 8 10
M  V30 10 2 8 11
M  V30 11 2 10 12
M  V30 12 1 10 13
M  V30 13 1 13 14
M  V30 14 2 14 15
M  V30 15 1 14 16
M  V30 16 1 15 17
M  V30 17 2 16 18
M  V30 18 1 17 19
M  V30 19 2 17 20
M  V30 20 1 19 21
M  V30 21 1 19 22
M  V30 22 1 20 23
M  V30 23 2 21 24
M  V30 24 1 21 25
M  V30 25 1 22 26
M  V30 26 1 25 27
M  V30 27 1 25 28
M  V30 28 1 26 29
M  V30 29 1 27 30
M  V30 30 2 29 31
M  V30 31 2 30 32
M  V30 32 1 32 33
M  V30 33 1 33 34
M  V30 34 2 34 35
M  V30 35 1 34 36
M  V30 36 1 35 37
M  V30 37 2 36 38
M  V30 38 2 37 39
M  V30 39 1 39 40
M  V30 40 1 9 11
M  V30 41 1 18 20
M  V30 42 2 26 27
M  V30 43 1 31 32
M  V30 44 1 38 39
M  V30 END BOND
M  V30 END CTAB
M  END
>  <Molecule Name>
Compound 760

>  <Molecule Name 2>
Compound 760

>  <Compound ID>
222

>  <Name>
GNF-7

>  <Uniprot>
P53671

>  <Target>
LIMK2

>  <Smiles>
CC1=CC=C(NC2=NC=C3CN(C4=CC(NC(=O)C5=CC=CC(C(F)(F)F)=C5)=CC=C4C)C(=O)N(C)C3=N2)C=N1

>  <Kd (nM)>


>  <Assay (Kd)>


>  <Ki (nM)>


>  <Assay (Ki)>


>  <IC50 (nM)>


>  <Assay (IC50)>


>  <EC50 (nM)>


>  <Assay (EC50)>


>  <Article DOI>


>  <Molecular Weight>
547.541

>  <Exact Mass>
547.1943577

>  <XLogP3>
4.33

>  <Heavy Atom Count>
40

>  <Ring Count>
5

>  <Hydrogen Bond Acceptor Count>
6

>  <Hydrogen Bond Donor Count>
2

>  <Rotatable Bond Count>
5

>  <Topological Polar Surface Area>
103.35

>  <Molecular Formula>
C28H24F3N7O2

>  <InChI>
InChI=1S/C28H24F3N7O2/c1-16-7-9-21(34-25(39)18-5-4-6-20(11-18)28(29,30)31)12-23(16)38-15-19-13-33-26(36-24(19)37(3)27(38)40)35-22-10-8-17(2)32-14-22/h4-14H,15H2,1-3H3,(H,34,39)(H,33,35,36)

>  <InChI Key>
SZNYUUZOQHNEKB-UHFFFAOYSA-N

>  <BindingDB>
50323777

>  <PubChem>
11478363

>  <ChEMBL>
CHEMBL1214141

$$$$
222
Actelion Java MolfileCreator 2.0

  0  0  0  0  0  0              0 V3000
M  V30 BEGIN CTAB
M  V30 COUNTS 40 44 0 0 0
M  V30 BEGIN ATOM
M  V30 1 F 2.4641 2.5 0.0 0
M  V30 2 C 3.4641 2.5 0.0 0
M  V30 3 F 3.4641 3.5 0.0 0
M  V30 4 F 4.4641 2.5 0.0 0
M  V30 5 C 3.4641 1.5 0.0 0
M  V30 6 C 2.598 1.0 0.0 0
M  V30 7 C 4.3301 1.0 0.0 0
M  V30 8 C 2.598 0.0 0.0 0
M  V30 9 C 4.3301 0.0 0.0 0
M  V30 10 C 1.732 -0.5 0.0 0
M  V30 11 C 3.4641 -0.4999 0.0 0
M  V30 12 O 1.732 -1.5 0.0 0
M  V30 13 N 0.866 0.0 0.0 0
M  V30 14 C 0.0 -0.5 0.0 0
M  V30 15 C -0.866 0.0 0.0 0
M  V30 16 C 0.0 -1.4999 0.0 0
M  V30 17 C -1.732 -0.4999 0.0 0
M  V30 18 C -0.866 -1.9999 0.0 0
M  V30 19 N -2.598 0.0 0.0 0
M  V30 20 C -1.732 -1.4999 0.0 0
M  V30 21 C -2.598 1.0 0.0 0
M  V30 22 C -3.4641 -0.4999 0.0 0
M  V30 23 C -2.598 -1.9999 0.0 0
M  V30 24 O -1.732 1.5 0.0 0
M  V30 25 N -3.4641 1.5 0.0 0
M  V30 26 C -4.3301 0.0 0.0 0
M  V30 27 C -4.3301 1.0 0.0 0
M  V30 28 C -3.4641 2.5 0.0 0
M  V30 29 C -5.1961 -0.4999 0.0 0
M  V30 30 N -5.1961 1.5 0.0 0
M  V30 31 N -6.0621 0.0 0.0 0
M  V30 32 C -6.0621 1.0 0.0 0
M  V30 33 N -6.9282 1.5 0.0 0
M  V30 34 C -7.7942 1.0 0.0 0
M  V30 35 C -8.6602 1.5 0.0 0
M  V30 36 C -7.7942 0.0 0.0 0
M  V30 37 N -9.5262 1.0 0.0 0
M  V30 38 C -8.6602 -0.4999 0.0 0
M  V30 39 C -9.5262 0.0 0.0 0
M  V30 40 C -10.3923 -0.4999 0.0 0
M  V30 END ATOM
M  V30 BEGIN BOND
M  V30 1 1 1 2
M  V30 2 1 2 3
M  V30 3 1 2 4
M  V30 4 1 2 5
M  V30 5 2 5 6
M  V30 6 1 5 7
M  V30 7 1 6 8
M  V30 8 2 7 9
M  V30 9 1 8 10
M  V30 10 2 8 11
M  V30 11 2 10 12
M  V30 12 1 10 13
M  V30 13 1 13 14
M  V30 14 2 14 15
M  V30 15 1 14 16
M  V30 16 1 15 17
M  V30 17 2 16 18
M  V30 18 1 17 19
M  V30 19 2 17 20
M  V30 20 1 19 21
M  V30 21 1 19 22
M  V30 22 1 20 23
M  V30 23 2 21 24
M  V30 24 1 21 25
M  V30 25 1 22 26
M  V30 26 1 25 27
M  V30 27 1 25 28
M  V30 28 1 26 29
M  V30 29 1 27 30
M  V30 30 2 29 31
M  V30 31 2 30 32
M  V30 32 1 32 33
M  V30 33 1 33 34
M  V30 34 2 34 35
M  V30 35 1 34 36
M  V30 36 1 35 37
M  V30 37 2 36 38
M  V30 38 2 37 39
M  V30 39 1 39 40
M  V30 40 1 9 11
M  V30 41 1 18 20
M  V30 42 2 26 27
M  V30 43 1 31 32
M  V30 44 1 38 39
M  V30 END BOND
M  V30 END CTAB
M  END
>  <Molecule Name>
Compound 761

>  <Molecule Name 2>
Compound 761

>  <Compound ID>
222

>  <Name>
GNF-7

>  <Uniprot>
Q5S007

>  <Target>
LRRK2

>  <Smiles>
CC1=CC=C(NC2=NC=C3CN(C4=CC(NC(=O)C5=CC=CC(C(F)(F)F)=C5)=CC=C4C)C(=O)N(C)C3=N2)C=N1

>  <Kd (nM)>


>  <Assay (Kd)>


>  <Ki (nM)>


>  <Assay (Ki)>


>  <IC50 (nM)>


>  <Assay (IC50)>


>  <EC50 (nM)>


>  <Assay (EC50)>


>  <Article DOI>


>  <Molecular Weight>
547.541

>  <Exact Mass>
547.1943577

>  <XLogP3>
4.33

>  <Heavy Atom Count>
40

>  <Ring Count>
5

>  <Hydrogen Bond Acceptor Count>
6

>  <Hydrogen Bond Donor Count>
2

>  <Rotatable Bond Count>
5

>  <Topological Polar Surface Area>
103.35

>  <Molecular Formula>
C28H24F3N7O2

>  <InChI>
InChI=1S/C28H24F3N7O2/c1-16-7-9-21(34-25(39)18-5-4-6-20(11-18)28(29,30)31)12-23(16)38-15-19-13-33-26(36-24(19)37(3)27(38)40)35-22-10-8-17(2)32-14-22/h4-14H,15H2,1-3H3,(H,34,39)(H,33,35,36)

>  <InChI Key>
SZNYUUZOQHNEKB-UHFFFAOYSA-N

>  <BindingDB>
50323777

>  <PubChem>
11478363

>  <ChEMBL>
CHEMBL1214141

$$$$
222
Actelion Java MolfileCreator 2.0

  0  0  0  0  0  0              0 V3000
M  V30 BEGIN CTAB
M  V30 COUNTS 40 44 0 0 0
M  V30 BEGIN ATOM
M  V30 1 F 2.4641 2.5 0.0 0
M  V30 2 C 3.4641 2.5 0.0 0
M  V30 3 F 3.4641 3.5 0.0 0
M  V30 4 F 4.4641 2.5 0.0 0
M  V30 5 C 3.4641 1.5 0.0 0
M  V30 6 C 2.598 1.0 0.0 0
M  V30 7 C 4.3301 1.0 0.0 0
M  V30 8 C 2.598 0.0 0.0 0
M  V30 9 C 4.3301 0.0 0.0 0
M  V30 10 C 1.732 -0.5 0.0 0
M  V30 11 C 3.4641 -0.4999 0.0 0
M  V30 12 O 1.732 -1.5 0.0 0
M  V30 13 N 0.866 0.0 0.0 0
M  V30 14 C 0.0 -0.5 0.0 0
M  V30 15 C -0.866 0.0 0.0 0
M  V30 16 C 0.0 -1.4999 0.0 0
M  V30 17 C -1.732 -0.4999 0.0 0
M  V30 18 C -0.866 -1.9999 0.0 0
M  V30 19 N -2.598 0.0 0.0 0
M  V30 20 C -1.732 -1.4999 0.0 0
M  V30 21 C -2.598 1.0 0.0 0
M  V30 22 C -3.4641 -0.4999 0.0 0
M  V30 23 C -2.598 -1.9999 0.0 0
M  V30 24 O -1.732 1.5 0.0 0
M  V30 25 N -3.4641 1.5 0.0 0
M  V30 26 C -4.3301 0.0 0.0 0
M  V30 27 C -4.3301 1.0 0.0 0
M  V30 28 C -3.4641 2.5 0.0 0
M  V30 29 C -5.1961 -0.4999 0.0 0
M  V30 30 N -5.1961 1.5 0.0 0
M  V30 31 N -6.0621 0.0 0.0 0
M  V30 32 C -6.0621 1.0 0.0 0
M  V30 33 N -6.9282 1.5 0.0 0
M  V30 34 C -7.7942 1.0 0.0 0
M  V30 35 C -8.6602 1.5 0.0 0
M  V30 36 C -7.7942 0.0 0.0 0
M  V30 37 N -9.5262 1.0 0.0 0
M  V30 38 C -8.6602 -0.4999 0.0 0
M  V30 39 C -9.5262 0.0 0.0 0
M  V30 40 C -10.3923 -0.4999 0.0 0
M  V30 END ATOM
M  V30 BEGIN BOND
M  V30 1 1 1 2
M  V30 2 1 2 3
M  V30 3 1 2 4
M  V30 4 1 2 5
M  V30 5 2 5 6
M  V30 6 1 5 7
M  V30 7 1 6 8
M  V30 8 2 7 9
M  V30 9 1 8 10
M  V30 10 2 8 11
M  V30 11 2 10 12
M  V30 12 1 10 13
M  V30 13 1 13 14
M  V30 14 2 14 15
M  V30 15 1 14 16
M  V30 16 1 15 17
M  V30 17 2 16 18
M  V30 18 1 17 19
M  V30 19 2 17 20
M  V30 20 1 19 21
M  V30 21 1 19 22
M  V30 22 1 20 23
M  V30 23 2 21 24
M  V30 24 1 21 25
M  V30 25 1 22 26
M  V30 26 1 25 27
M  V30 27 1 25 28
M  V30 28 1 26 29
M  V30 29 1 27 30
M  V30 30 2 29 31
M  V30 31 2 30 32
M  V30 32 1 32 33
M  V30 33 1 33 34
M  V30 34 2 34 35
M  V30 35 1 34 36
M  V30 36 1 35 37
M  V30 37 2 36 38
M  V30 38 2 37 39
M  V30 39 1 39 40
M  V30 40 1 9 11
M  V30 41 1 18 20
M  V30 42 2 26 27
M  V30 43 1 31 32
M  V30 44 1 38 39
M  V30 END BOND
M  V30 END CTAB
M  END
>  <Molecule Name>
Compound 762

>  <Molecule Name 2>
Compound 762

>  <Compound ID>
222

>  <Name>
GNF-7

>  <Uniprot>
P07948

>  <Target>
LYN

>  <Smiles>
CC1=CC=C(NC2=NC=C3CN(C4=CC(NC(=O)C5=CC=CC(C(F)(F)F)=C5)=CC=C4C)C(=O)N(C)C3=N2)C=N1

>  <Kd (nM)>


>  <Assay (Kd)>


>  <Ki (nM)>


>  <Assay (Ki)>


>  <IC50 (nM)>


>  <Assay (IC50)>


>  <EC50 (nM)>


>  <Assay (EC50)>


>  <Article DOI>


>  <Molecular Weight>
547.541

>  <Exact Mass>
547.1943577

>  <XLogP3>
4.33

>  <Heavy Atom Count>
40

>  <Ring Count>
5

>  <Hydrogen Bond Acceptor Count>
6

>  <Hydrogen Bond Donor Count>
2

>  <Rotatable Bond Count>
5

>  <Topological Polar Surface Area>
103.35

>  <Molecular Formula>
C28H24F3N7O2

>  <InChI>
InChI=1S/C28H24F3N7O2/c1-16-7-9-21(34-25(39)18-5-4-6-20(11-18)28(29,30)31)12-23(16)38-15-19-13-33-26(36-24(19)37(3)27(38)40)35-22-10-8-17(2)32-14-22/h4-14H,15H2,1-3H3,(H,34,39)(H,33,35,36)

>  <InChI Key>
SZNYUUZOQHNEKB-UHFFFAOYSA-N

>  <BindingDB>
50323777

>  <PubChem>
11478363

>  <ChEMBL>
CHEMBL1214141

$$$$
222
Actelion Java MolfileCreator 2.0

  0  0  0  0  0  0              0 V3000
M  V30 BEGIN CTAB
M  V30 COUNTS 40 44 0 0 0
M  V30 BEGIN ATOM
M  V30 1 F 2.4641 2.5 0.0 0
M  V30 2 C 3.4641 2.5 0.0 0
M  V30 3 F 3.4641 3.5 0.0 0
M  V30 4 F 4.4641 2.5 0.0 0
M  V30 5 C 3.4641 1.5 0.0 0
M  V30 6 C 2.598 1.0 0.0 0
M  V30 7 C 4.3301 1.0 0.0 0
M  V30 8 C 2.598 0.0 0.0 0
M  V30 9 C 4.3301 0.0 0.0 0
M  V30 10 C 1.732 -0.5 0.0 0
M  V30 11 C 3.4641 -0.4999 0.0 0
M  V30 12 O 1.732 -1.5 0.0 0
M  V30 13 N 0.866 0.0 0.0 0
M  V30 14 C 0.0 -0.5 0.0 0
M  V30 15 C -0.866 0.0 0.0 0
M  V30 16 C 0.0 -1.4999 0.0 0
M  V30 17 C -1.732 -0.4999 0.0 0
M  V30 18 C -0.866 -1.9999 0.0 0
M  V30 19 N -2.598 0.0 0.0 0
M  V30 20 C -1.732 -1.4999 0.0 0
M  V30 21 C -2.598 1.0 0.0 0
M  V30 22 C -3.4641 -0.4999 0.0 0
M  V30 23 C -2.598 -1.9999 0.0 0
M  V30 24 O -1.732 1.5 0.0 0
M  V30 25 N -3.4641 1.5 0.0 0
M  V30 26 C -4.3301 0.0 0.0 0
M  V30 27 C -4.3301 1.0 0.0 0
M  V30 28 C -3.4641 2.5 0.0 0
M  V30 29 C -5.1961 -0.4999 0.0 0
M  V30 30 N -5.1961 1.5 0.0 0
M  V30 31 N -6.0621 0.0 0.0 0
M  V30 32 C -6.0621 1.0 0.0 0
M  V30 33 N -6.9282 1.5 0.0 0
M  V30 34 C -7.7942 1.0 0.0 0
M  V30 35 C -8.6602 1.5 0.0 0
M  V30 36 C -7.7942 0.0 0.0 0
M  V30 37 N -9.5262 1.0 0.0 0
M  V30 38 C -8.6602 -0.4999 0.0 0
M  V30 39 C -9.5262 0.0 0.0 0
M  V30 40 C -10.3923 -0.4999 0.0 0
M  V30 END ATOM
M  V30 BEGIN BOND
M  V30 1 1 1 2
M  V30 2 1 2 3
M  V30 3 1 2 4
M  V30 4 1 2 5
M  V30 5 2 5 6
M  V30 6 1 5 7
M  V30 7 1 6 8
M  V30 8 2 7 9
M  V30 9 1 8 10
M  V30 10 2 8 11
M  V30 11 2 10 12
M  V30 12 1 10 13
M  V30 13 1 13 14
M  V30 14 2 14 15
M  V30 15 1 14 16
M  V30 16 1 15 17
M  V30 17 2 16 18
M  V30 18 1 17 19
M  V30 19 2 17 20
M  V30 20 1 19 21
M  V30 21 1 19 22
M  V30 22 1 20 23
M  V30 23 2 21 24
M  V30 24 1 21 25
M  V30 25 1 22 26
M  V30 26 1 25 27
M  V30 27 1 25 28
M  V30 28 1 26 29
M  V30 29 1 27 30
M  V30 30 2 29 31
M  V30 31 2 30 32
M  V30 32 1 32 33
M  V30 33 1 33 34
M  V30 34 2 34 35
M  V30 35 1 34 36
M  V30 36 1 35 37
M  V30 37 2 36 38
M  V30 38 2 37 39
M  V30 39 1 39 40
M  V30 40 1 9 11
M  V30 41 1 18 20
M  V30 42 2 26 27
M  V30 43 1 31 32
M  V30 44 1 38 39
M  V30 END BOND
M  V30 END CTAB
M  END
>  <Molecule Name>
Compound 763

>  <Molecule Name 2>
Compound 763

>  <Compound ID>
222

>  <Name>
GNF-7

>  <Uniprot>
Q16584

>  <Target>
MAP3K11

>  <Smiles>
CC1=CC=C(NC2=NC=C3CN(C4=CC(NC(=O)C5=CC=CC(C(F)(F)F)=C5)=CC=C4C)C(=O)N(C)C3=N2)C=N1

>  <Kd (nM)>


>  <Assay (Kd)>


>  <Ki (nM)>


>  <Assay (Ki)>


>  <IC50 (nM)>


>  <Assay (IC50)>


>  <EC50 (nM)>


>  <Assay (EC50)>


>  <Article DOI>


>  <Molecular Weight>
547.541

>  <Exact Mass>
547.1943577

>  <XLogP3>
4.33

>  <Heavy Atom Count>
40

>  <Ring Count>
5

>  <Hydrogen Bond Acceptor Count>
6

>  <Hydrogen Bond Donor Count>
2

>  <Rotatable Bond Count>
5

>  <Topological Polar Surface Area>
103.35

>  <Molecular Formula>
C28H24F3N7O2

>  <InChI>
InChI=1S/C28H24F3N7O2/c1-16-7-9-21(34-25(39)18-5-4-6-20(11-18)28(29,30)31)12-23(16)38-15-19-13-33-26(36-24(19)37(3)27(38)40)35-22-10-8-17(2)32-14-22/h4-14H,15H2,1-3H3,(H,34,39)(H,33,35,36)

>  <InChI Key>
SZNYUUZOQHNEKB-UHFFFAOYSA-N

>  <BindingDB>
50323777

>  <PubChem>
11478363

>  <ChEMBL>
CHEMBL1214141

$$$$
222
Actelion Java MolfileCreator 2.0

  0  0  0  0  0  0              0 V3000
M  V30 BEGIN CTAB
M  V30 COUNTS 40 44 0 0 0
M  V30 BEGIN ATOM
M  V30 1 F 2.4641 2.5 0.0 0
M  V30 2 C 3.4641 2.5 0.0 0
M  V30 3 F 3.4641 3.5 0.0 0
M  V30 4 F 4.4641 2.5 0.0 0
M  V30 5 C 3.4641 1.5 0.0 0
M  V30 6 C 2.598 1.0 0.0 0
M  V30 7 C 4.3301 1.0 0.0 0
M  V30 8 C 2.598 0.0 0.0 0
M  V30 9 C 4.3301 0.0 0.0 0
M  V30 10 C 1.732 -0.5 0.0 0
M  V30 11 C 3.4641 -0.4999 0.0 0
M  V30 12 O 1.732 -1.5 0.0 0
M  V30 13 N 0.866 0.0 0.0 0
M  V30 14 C 0.0 -0.5 0.0 0
M  V30 15 C -0.866 0.0 0.0 0
M  V30 16 C 0.0 -1.4999 0.0 0
M  V30 17 C -1.732 -0.4999 0.0 0
M  V30 18 C -0.866 -1.9999 0.0 0
M  V30 19 N -2.598 0.0 0.0 0
M  V30 20 C -1.732 -1.4999 0.0 0
M  V30 21 C -2.598 1.0 0.0 0
M  V30 22 C -3.4641 -0.4999 0.0 0
M  V30 23 C -2.598 -1.9999 0.0 0
M  V30 24 O -1.732 1.5 0.0 0
M  V30 25 N -3.4641 1.5 0.0 0
M  V30 26 C -4.3301 0.0 0.0 0
M  V30 27 C -4.3301 1.0 0.0 0
M  V30 28 C -3.4641 2.5 0.0 0
M  V30 29 C -5.1961 -0.4999 0.0 0
M  V30 30 N -5.1961 1.5 0.0 0
M  V30 31 N -6.0621 0.0 0.0 0
M  V30 32 C -6.0621 1.0 0.0 0
M  V30 33 N -6.9282 1.5 0.0 0
M  V30 34 C -7.7942 1.0 0.0 0
M  V30 35 C -8.6602 1.5 0.0 0
M  V30 36 C -7.7942 0.0 0.0 0
M  V30 37 N -9.5262 1.0 0.0 0
M  V30 38 C -8.6602 -0.4999 0.0 0
M  V30 39 C -9.5262 0.0 0.0 0
M  V30 40 C -10.3923 -0.4999 0.0 0
M  V30 END ATOM
M  V30 BEGIN BOND
M  V30 1 1 1 2
M  V30 2 1 2 3
M  V30 3 1 2 4
M  V30 4 1 2 5
M  V30 5 2 5 6
M  V30 6 1 5 7
M  V30 7 1 6 8
M  V30 8 2 7 9
M  V30 9 1 8 10
M  V30 10 2 8 11
M  V30 11 2 10 12
M  V30 12 1 10 13
M  V30 13 1 13 14
M  V30 14 2 14 15
M  V30 15 1 14 16
M  V30 16 1 15 17
M  V30 17 2 16 18
M  V30 18 1 17 19
M  V30 19 2 17 20
M  V30 20 1 19 21
M  V30 21 1 19 22
M  V30 22 1 20 23
M  V30 23 2 21 24
M  V30 24 1 21 25
M  V30 25 1 22 26
M  V30 26 1 25 27
M  V30 27 1 25 28
M  V30 28 1 26 29
M  V30 29 1 27 30
M  V30 30 2 29 31
M  V30 31 2 30 32
M  V30 32 1 32 33
M  V30 33 1 33 34
M  V30 34 2 34 35
M  V30 35 1 34 36
M  V30 36 1 35 37
M  V30 37 2 36 38
M  V30 38 2 37 39
M  V30 39 1 39 40
M  V30 40 1 9 11
M  V30 41 1 18 20
M  V30 42 2 26 27
M  V30 43 1 31 32
M  V30 44 1 38 39
M  V30 END BOND
M  V30 END CTAB
M  END
>  <Molecule Name>
Compound 764

>  <Molecule Name 2>
Compound 764

>  <Compound ID>
222

>  <Name>
GNF-7

>  <Uniprot>
Q13233

>  <Target>
MAP3K1

>  <Smiles>
CC1=CC=C(NC2=NC=C3CN(C4=CC(NC(=O)C5=CC=CC(C(F)(F)F)=C5)=CC=C4C)C(=O)N(C)C3=N2)C=N1

>  <Kd (nM)>


>  <Assay (Kd)>


>  <Ki (nM)>


>  <Assay (Ki)>


>  <IC50 (nM)>


>  <Assay (IC50)>


>  <EC50 (nM)>


>  <Assay (EC50)>


>  <Article DOI>


>  <Molecular Weight>
547.541

>  <Exact Mass>
547.1943577

>  <XLogP3>
4.33

>  <Heavy Atom Count>
40

>  <Ring Count>
5

>  <Hydrogen Bond Acceptor Count>
6

>  <Hydrogen Bond Donor Count>
2

>  <Rotatable Bond Count>
5

>  <Topological Polar Surface Area>
103.35

>  <Molecular Formula>
C28H24F3N7O2

>  <InChI>
InChI=1S/C28H24F3N7O2/c1-16-7-9-21(34-25(39)18-5-4-6-20(11-18)28(29,30)31)12-23(16)38-15-19-13-33-26(36-24(19)37(3)27(38)40)35-22-10-8-17(2)32-14-22/h4-14H,15H2,1-3H3,(H,34,39)(H,33,35,36)

>  <InChI Key>
SZNYUUZOQHNEKB-UHFFFAOYSA-N

>  <BindingDB>
50323777

>  <PubChem>
11478363

>  <ChEMBL>
CHEMBL1214141

$$$$
222
Actelion Java MolfileCreator 2.0

  0  0  0  0  0  0              0 V3000
M  V30 BEGIN CTAB
M  V30 COUNTS 40 44 0 0 0
M  V30 BEGIN ATOM
M  V30 1 F 2.4641 2.5 0.0 0
M  V30 2 C 3.4641 2.5 0.0 0
M  V30 3 F 3.4641 3.5 0.0 0
M  V30 4 F 4.4641 2.5 0.0 0
M  V30 5 C 3.4641 1.5 0.0 0
M  V30 6 C 2.598 1.0 0.0 0
M  V30 7 C 4.3301 1.0 0.0 0
M  V30 8 C 2.598 0.0 0.0 0
M  V30 9 C 4.3301 0.0 0.0 0
M  V30 10 C 1.732 -0.5 0.0 0
M  V30 11 C 3.4641 -0.4999 0.0 0
M  V30 12 O 1.732 -1.5 0.0 0
M  V30 13 N 0.866 0.0 0.0 0
M  V30 14 C 0.0 -0.5 0.0 0
M  V30 15 C -0.866 0.0 0.0 0
M  V30 16 C 0.0 -1.4999 0.0 0
M  V30 17 C -1.732 -0.4999 0.0 0
M  V30 18 C -0.866 -1.9999 0.0 0
M  V30 19 N -2.598 0.0 0.0 0
M  V30 20 C -1.732 -1.4999 0.0 0
M  V30 21 C -2.598 1.0 0.0 0
M  V30 22 C -3.4641 -0.4999 0.0 0
M  V30 23 C -2.598 -1.9999 0.0 0
M  V30 24 O -1.732 1.5 0.0 0
M  V30 25 N -3.4641 1.5 0.0 0
M  V30 26 C -4.3301 0.0 0.0 0
M  V30 27 C -4.3301 1.0 0.0 0
M  V30 28 C -3.4641 2.5 0.0 0
M  V30 29 C -5.1961 -0.4999 0.0 0
M  V30 30 N -5.1961 1.5 0.0 0
M  V30 31 N -6.0621 0.0 0.0 0
M  V30 32 C -6.0621 1.0 0.0 0
M  V30 33 N -6.9282 1.5 0.0 0
M  V30 34 C -7.7942 1.0 0.0 0
M  V30 35 C -8.6602 1.5 0.0 0
M  V30 36 C -7.7942 0.0 0.0 0
M  V30 37 N -9.5262 1.0 0.0 0
M  V30 38 C -8.6602 -0.4999 0.0 0
M  V30 39 C -9.5262 0.0 0.0 0
M  V30 40 C -10.3923 -0.4999 0.0 0
M  V30 END ATOM
M  V30 BEGIN BOND
M  V30 1 1 1 2
M  V30 2 1 2 3
M  V30 3 1 2 4
M  V30 4 1 2 5
M  V30 5 2 5 6
M  V30 6 1 5 7
M  V30 7 1 6 8
M  V30 8 2 7 9
M  V30 9 1 8 10
M  V30 10 2 8 11
M  V30 11 2 10 12
M  V30 12 1 10 13
M  V30 13 1 13 14
M  V30 14 2 14 15
M  V30 15 1 14 16
M  V30 16 1 15 17
M  V30 17 2 16 18
M  V30 18 1 17 19
M  V30 19 2 17 20
M  V30 20 1 19 21
M  V30 21 1 19 22
M  V30 22 1 20 23
M  V30 23 2 21 24
M  V30 24 1 21 25
M  V30 25 1 22 26
M  V30 26 1 25 27
M  V30 27 1 25 28
M  V30 28 1 26 29
M  V30 29 1 27 30
M  V30 30 2 29 31
M  V30 31 2 30 32
M  V30 32 1 32 33
M  V30 33 1 33 34
M  V30 34 2 34 35
M  V30 35 1 34 36
M  V30 36 1 35 37
M  V30 37 2 36 38
M  V30 38 2 37 39
M  V30 39 1 39 40
M  V30 40 1 9 11
M  V30 41 1 18 20
M  V30 42 2 26 27
M  V30 43 1 31 32
M  V30 44 1 38 39
M  V30 END BOND
M  V30 END CTAB
M  END
>  <Molecule Name>
Compound 765

>  <Molecule Name 2>
Compound 765

>  <Compound ID>
222

>  <Name>
GNF-7

>  <Uniprot>
Q9NYL2

>  <Target>
MAP3K20

>  <Smiles>
CC1=CC=C(NC2=NC=C3CN(C4=CC(NC(=O)C5=CC=CC(C(F)(F)F)=C5)=CC=C4C)C(=O)N(C)C3=N2)C=N1

>  <Kd (nM)>


>  <Assay (Kd)>


>  <Ki (nM)>


>  <Assay (Ki)>


>  <IC50 (nM)>


>  <Assay (IC50)>


>  <EC50 (nM)>


>  <Assay (EC50)>


>  <Article DOI>


>  <Molecular Weight>
547.541

>  <Exact Mass>
547.1943577

>  <XLogP3>
4.33

>  <Heavy Atom Count>
40

>  <Ring Count>
5

>  <Hydrogen Bond Acceptor Count>
6

>  <Hydrogen Bond Donor Count>
2

>  <Rotatable Bond Count>
5

>  <Topological Polar Surface Area>
103.35

>  <Molecular Formula>
C28H24F3N7O2

>  <InChI>
InChI=1S/C28H24F3N7O2/c1-16-7-9-21(34-25(39)18-5-4-6-20(11-18)28(29,30)31)12-23(16)38-15-19-13-33-26(36-24(19)37(3)27(38)40)35-22-10-8-17(2)32-14-22/h4-14H,15H2,1-3H3,(H,34,39)(H,33,35,36)

>  <InChI Key>
SZNYUUZOQHNEKB-UHFFFAOYSA-N

>  <BindingDB>
50323777

>  <PubChem>
11478363

>  <ChEMBL>
CHEMBL1214141

$$$$
222
Actelion Java MolfileCreator 2.0

  0  0  0  0  0  0              0 V3000
M  V30 BEGIN CTAB
M  V30 COUNTS 40 44 0 0 0
M  V30 BEGIN ATOM
M  V30 1 F 2.4641 2.5 0.0 0
M  V30 2 C 3.4641 2.5 0.0 0
M  V30 3 F 3.4641 3.5 0.0 0
M  V30 4 F 4.4641 2.5 0.0 0
M  V30 5 C 3.4641 1.5 0.0 0
M  V30 6 C 2.598 1.0 0.0 0
M  V30 7 C 4.3301 1.0 0.0 0
M  V30 8 C 2.598 0.0 0.0 0
M  V30 9 C 4.3301 0.0 0.0 0
M  V30 10 C 1.732 -0.5 0.0 0
M  V30 11 C 3.4641 -0.4999 0.0 0
M  V30 12 O 1.732 -1.5 0.0 0
M  V30 13 N 0.866 0.0 0.0 0
M  V30 14 C 0.0 -0.5 0.0 0
M  V30 15 C -0.866 0.0 0.0 0
M  V30 16 C 0.0 -1.4999 0.0 0
M  V30 17 C -1.732 -0.4999 0.0 0
M  V30 18 C -0.866 -1.9999 0.0 0
M  V30 19 N -2.598 0.0 0.0 0
M  V30 20 C -1.732 -1.4999 0.0 0
M  V30 21 C -2.598 1.0 0.0 0
M  V30 22 C -3.4641 -0.4999 0.0 0
M  V30 23 C -2.598 -1.9999 0.0 0
M  V30 24 O -1.732 1.5 0.0 0
M  V30 25 N -3.4641 1.5 0.0 0
M  V30 26 C -4.3301 0.0 0.0 0
M  V30 27 C -4.3301 1.0 0.0 0
M  V30 28 C -3.4641 2.5 0.0 0
M  V30 29 C -5.1961 -0.4999 0.0 0
M  V30 30 N -5.1961 1.5 0.0 0
M  V30 31 N -6.0621 0.0 0.0 0
M  V30 32 C -6.0621 1.0 0.0 0
M  V30 33 N -6.9282 1.5 0.0 0
M  V30 34 C -7.7942 1.0 0.0 0
M  V30 35 C -8.6602 1.5 0.0 0
M  V30 36 C -7.7942 0.0 0.0 0
M  V30 37 N -9.5262 1.0 0.0 0
M  V30 38 C -8.6602 -0.4999 0.0 0
M  V30 39 C -9.5262 0.0 0.0 0
M  V30 40 C -10.3923 -0.4999 0.0 0
M  V30 END ATOM
M  V30 BEGIN BOND
M  V30 1 1 1 2
M  V30 2 1 2 3
M  V30 3 1 2 4
M  V30 4 1 2 5
M  V30 5 2 5 6
M  V30 6 1 5 7
M  V30 7 1 6 8
M  V30 8 2 7 9
M  V30 9 1 8 10
M  V30 10 2 8 11
M  V30 11 2 10 12
M  V30 12 1 10 13
M  V30 13 1 13 14
M  V30 14 2 14 15
M  V30 15 1 14 16
M  V30 16 1 15 17
M  V30 17 2 16 18
M  V30 18 1 17 19
M  V30 19 2 17 20
M  V30 20 1 19 21
M  V30 21 1 19 22
M  V30 22 1 20 23
M  V30 23 2 21 24
M  V30 24 1 21 25
M  V30 25 1 22 26
M  V30 26 1 25 27
M  V30 27 1 25 28
M  V30 28 1 26 29
M  V30 29 1 27 30
M  V30 30 2 29 31
M  V30 31 2 30 32
M  V30 32 1 32 33
M  V30 33 1 33 34
M  V30 34 2 34 35
M  V30 35 1 34 36
M  V30 36 1 35 37
M  V30 37 2 36 38
M  V30 38 2 37 39
M  V30 39 1 39 40
M  V30 40 1 9 11
M  V30 41 1 18 20
M  V30 42 2 26 27
M  V30 43 1 31 32
M  V30 44 1 38 39
M  V30 END BOND
M  V30 END CTAB
M  END
>  <Molecule Name>
Compound 766

>  <Molecule Name 2>
Compound 766

>  <Compound ID>
222

>  <Name>
GNF-7

>  <Uniprot>
O43318

>  <Target>
MAP3K7

>  <Smiles>
CC1=CC=C(NC2=NC=C3CN(C4=CC(NC(=O)C5=CC=CC(C(F)(F)F)=C5)=CC=C4C)C(=O)N(C)C3=N2)C=N1

>  <Kd (nM)>


>  <Assay (Kd)>


>  <Ki (nM)>


>  <Assay (Ki)>


>  <IC50 (nM)>


>  <Assay (IC50)>


>  <EC50 (nM)>


>  <Assay (EC50)>


>  <Article DOI>


>  <Molecular Weight>
547.541

>  <Exact Mass>
547.1943577

>  <XLogP3>
4.33

>  <Heavy Atom Count>
40

>  <Ring Count>
5

>  <Hydrogen Bond Acceptor Count>
6

>  <Hydrogen Bond Donor Count>
2

>  <Rotatable Bond Count>
5

>  <Topological Polar Surface Area>
103.35

>  <Molecular Formula>
C28H24F3N7O2

>  <InChI>
InChI=1S/C28H24F3N7O2/c1-16-7-9-21(34-25(39)18-5-4-6-20(11-18)28(29,30)31)12-23(16)38-15-19-13-33-26(36-24(19)37(3)27(38)40)35-22-10-8-17(2)32-14-22/h4-14H,15H2,1-3H3,(H,34,39)(H,33,35,36)

>  <InChI Key>
SZNYUUZOQHNEKB-UHFFFAOYSA-N

>  <BindingDB>
50323777

>  <PubChem>
11478363

>  <ChEMBL>
CHEMBL1214141

$$$$
222
Actelion Java MolfileCreator 2.0

  0  0  0  0  0  0              0 V3000
M  V30 BEGIN CTAB
M  V30 COUNTS 40 44 0 0 0
M  V30 BEGIN ATOM
M  V30 1 F 2.4641 2.5 0.0 0
M  V30 2 C 3.4641 2.5 0.0 0
M  V30 3 F 3.4641 3.5 0.0 0
M  V30 4 F 4.4641 2.5 0.0 0
M  V30 5 C 3.4641 1.5 0.0 0
M  V30 6 C 2.598 1.0 0.0 0
M  V30 7 C 4.3301 1.0 0.0 0
M  V30 8 C 2.598 0.0 0.0 0
M  V30 9 C 4.3301 0.0 0.0 0
M  V30 10 C 1.732 -0.5 0.0 0
M  V30 11 C 3.4641 -0.4999 0.0 0
M  V30 12 O 1.732 -1.5 0.0 0
M  V30 13 N 0.866 0.0 0.0 0
M  V30 14 C 0.0 -0.5 0.0 0
M  V30 15 C -0.866 0.0 0.0 0
M  V30 16 C 0.0 -1.4999 0.0 0
M  V30 17 C -1.732 -0.4999 0.0 0
M  V30 18 C -0.866 -1.9999 0.0 0
M  V30 19 N -2.598 0.0 0.0 0
M  V30 20 C -1.732 -1.4999 0.0 0
M  V30 21 C -2.598 1.0 0.0 0
M  V30 22 C -3.4641 -0.4999 0.0 0
M  V30 23 C -2.598 -1.9999 0.0 0
M  V30 24 O -1.732 1.5 0.0 0
M  V30 25 N -3.4641 1.5 0.0 0
M  V30 26 C -4.3301 0.0 0.0 0
M  V30 27 C -4.3301 1.0 0.0 0
M  V30 28 C -3.4641 2.5 0.0 0
M  V30 29 C -5.1961 -0.4999 0.0 0
M  V30 30 N -5.1961 1.5 0.0 0
M  V30 31 N -6.0621 0.0 0.0 0
M  V30 32 C -6.0621 1.0 0.0 0
M  V30 33 N -6.9282 1.5 0.0 0
M  V30 34 C -7.7942 1.0 0.0 0
M  V30 35 C -8.6602 1.5 0.0 0
M  V30 36 C -7.7942 0.0 0.0 0
M  V30 37 N -9.5262 1.0 0.0 0
M  V30 38 C -8.6602 -0.4999 0.0 0
M  V30 39 C -9.5262 0.0 0.0 0
M  V30 40 C -10.3923 -0.4999 0.0 0
M  V30 END ATOM
M  V30 BEGIN BOND
M  V30 1 1 1 2
M  V30 2 1 2 3
M  V30 3 1 2 4
M  V30 4 1 2 5
M  V30 5 2 5 6
M  V30 6 1 5 7
M  V30 7 1 6 8
M  V30 8 2 7 9
M  V30 9 1 8 10
M  V30 10 2 8 11
M  V30 11 2 10 12
M  V30 12 1 10 13
M  V30 13 1 13 14
M  V30 14 2 14 15
M  V30 15 1 14 16
M  V30 16 1 15 17
M  V30 17 2 16 18
M  V30 18 1 17 19
M  V30 19 2 17 20
M  V30 20 1 19 21
M  V30 21 1 19 22
M  V30 22 1 20 23
M  V30 23 2 21 24
M  V30 24 1 21 25
M  V30 25 1 22 26
M  V30 26 1 25 27
M  V30 27 1 25 28
M  V30 28 1 26 29
M  V30 29 1 27 30
M  V30 30 2 29 31
M  V30 31 2 30 32
M  V30 32 1 32 33
M  V30 33 1 33 34
M  V30 34 2 34 35
M  V30 35 1 34 36
M  V30 36 1 35 37
M  V30 37 2 36 38
M  V30 38 2 37 39
M  V30 39 1 39 40
M  V30 40 1 9 11
M  V30 41 1 18 20
M  V30 42 2 26 27
M  V30 43 1 31 32
M  V30 44 1 38 39
M  V30 END BOND
M  V30 END CTAB
M  END
>  <Molecule Name>
Compound 767

>  <Molecule Name 2>
Compound 767

>  <Compound ID>
222

>  <Name>
GNF-7

>  <Uniprot>
Q92918

>  <Target>
MAP4K1

>  <Smiles>
CC1=CC=C(NC2=NC=C3CN(C4=CC(NC(=O)C5=CC=CC(C(F)(F)F)=C5)=CC=C4C)C(=O)N(C)C3=N2)C=N1

>  <Kd (nM)>


>  <Assay (Kd)>


>  <Ki (nM)>


>  <Assay (Ki)>


>  <IC50 (nM)>


>  <Assay (IC50)>


>  <EC50 (nM)>


>  <Assay (EC50)>


>  <Article DOI>


>  <Molecular Weight>
547.541

>  <Exact Mass>
547.1943577

>  <XLogP3>
4.33

>  <Heavy Atom Count>
40

>  <Ring Count>
5

>  <Hydrogen Bond Acceptor Count>
6

>  <Hydrogen Bond Donor Count>
2

>  <Rotatable Bond Count>
5

>  <Topological Polar Surface Area>
103.35

>  <Molecular Formula>
C28H24F3N7O2

>  <InChI>
InChI=1S/C28H24F3N7O2/c1-16-7-9-21(34-25(39)18-5-4-6-20(11-18)28(29,30)31)12-23(16)38-15-19-13-33-26(36-24(19)37(3)27(38)40)35-22-10-8-17(2)32-14-22/h4-14H,15H2,1-3H3,(H,34,39)(H,33,35,36)

>  <InChI Key>
SZNYUUZOQHNEKB-UHFFFAOYSA-N

>  <BindingDB>
50323777

>  <PubChem>
11478363

>  <ChEMBL>
CHEMBL1214141

$$$$
222
Actelion Java MolfileCreator 2.0

  0  0  0  0  0  0              0 V3000
M  V30 BEGIN CTAB
M  V30 COUNTS 40 44 0 0 0
M  V30 BEGIN ATOM
M  V30 1 F 2.4641 2.5 0.0 0
M  V30 2 C 3.4641 2.5 0.0 0
M  V30 3 F 3.4641 3.5 0.0 0
M  V30 4 F 4.4641 2.5 0.0 0
M  V30 5 C 3.4641 1.5 0.0 0
M  V30 6 C 2.598 1.0 0.0 0
M  V30 7 C 4.3301 1.0 0.0 0
M  V30 8 C 2.598 0.0 0.0 0
M  V30 9 C 4.3301 0.0 0.0 0
M  V30 10 C 1.732 -0.5 0.0 0
M  V30 11 C 3.4641 -0.4999 0.0 0
M  V30 12 O 1.732 -1.5 0.0 0
M  V30 13 N 0.866 0.0 0.0 0
M  V30 14 C 0.0 -0.5 0.0 0
M  V30 15 C -0.866 0.0 0.0 0
M  V30 16 C 0.0 -1.4999 0.0 0
M  V30 17 C -1.732 -0.4999 0.0 0
M  V30 18 C -0.866 -1.9999 0.0 0
M  V30 19 N -2.598 0.0 0.0 0
M  V30 20 C -1.732 -1.4999 0.0 0
M  V30 21 C -2.598 1.0 0.0 0
M  V30 22 C -3.4641 -0.4999 0.0 0
M  V30 23 C -2.598 -1.9999 0.0 0
M  V30 24 O -1.732 1.5 0.0 0
M  V30 25 N -3.4641 1.5 0.0 0
M  V30 26 C -4.3301 0.0 0.0 0
M  V30 27 C -4.3301 1.0 0.0 0
M  V30 28 C -3.4641 2.5 0.0 0
M  V30 29 C -5.1961 -0.4999 0.0 0
M  V30 30 N -5.1961 1.5 0.0 0
M  V30 31 N -6.0621 0.0 0.0 0
M  V30 32 C -6.0621 1.0 0.0 0
M  V30 33 N -6.9282 1.5 0.0 0
M  V30 34 C -7.7942 1.0 0.0 0
M  V30 35 C -8.6602 1.5 0.0 0
M  V30 36 C -7.7942 0.0 0.0 0
M  V30 37 N -9.5262 1.0 0.0 0
M  V30 38 C -8.6602 -0.4999 0.0 0
M  V30 39 C -9.5262 0.0 0.0 0
M  V30 40 C -10.3923 -0.4999 0.0 0
M  V30 END ATOM
M  V30 BEGIN BOND
M  V30 1 1 1 2
M  V30 2 1 2 3
M  V30 3 1 2 4
M  V30 4 1 2 5
M  V30 5 2 5 6
M  V30 6 1 5 7
M  V30 7 1 6 8
M  V30 8 2 7 9
M  V30 9 1 8 10
M  V30 10 2 8 11
M  V30 11 2 10 12
M  V30 12 1 10 13
M  V30 13 1 13 14
M  V30 14 2 14 15
M  V30 15 1 14 16
M  V30 16 1 15 17
M  V30 17 2 16 18
M  V30 18 1 17 19
M  V30 19 2 17 20
M  V30 20 1 19 21
M  V30 21 1 19 22
M  V30 22 1 20 23
M  V30 23 2 21 24
M  V30 24 1 21 25
M  V30 25 1 22 26
M  V30 26 1 25 27
M  V30 27 1 25 28
M  V30 28 1 26 29
M  V30 29 1 27 30
M  V30 30 2 29 31
M  V30 31 2 30 32
M  V30 32 1 32 33
M  V30 33 1 33 34
M  V30 34 2 34 35
M  V30 35 1 34 36
M  V30 36 1 35 37
M  V30 37 2 36 38
M  V30 38 2 37 39
M  V30 39 1 39 40
M  V30 40 1 9 11
M  V30 41 1 18 20
M  V30 42 2 26 27
M  V30 43 1 31 32
M  V30 44 1 38 39
M  V30 END BOND
M  V30 END CTAB
M  END
>  <Molecule Name>
Compound 768

>  <Molecule Name 2>
Compound 768

>  <Compound ID>
222

>  <Name>
GNF-7

>  <Uniprot>
Q12851

>  <Target>
MAP4K2

>  <Smiles>
CC1=CC=C(NC2=NC=C3CN(C4=CC(NC(=O)C5=CC=CC(C(F)(F)F)=C5)=CC=C4C)C(=O)N(C)C3=N2)C=N1

>  <Kd (nM)>


>  <Assay (Kd)>


>  <Ki (nM)>


>  <Assay (Ki)>


>  <IC50 (nM)>


>  <Assay (IC50)>


>  <EC50 (nM)>


>  <Assay (EC50)>


>  <Article DOI>


>  <Molecular Weight>
547.541

>  <Exact Mass>
547.1943577

>  <XLogP3>
4.33

>  <Heavy Atom Count>
40

>  <Ring Count>
5

>  <Hydrogen Bond Acceptor Count>
6

>  <Hydrogen Bond Donor Count>
2

>  <Rotatable Bond Count>
5

>  <Topological Polar Surface Area>
103.35

>  <Molecular Formula>
C28H24F3N7O2

>  <InChI>
InChI=1S/C28H24F3N7O2/c1-16-7-9-21(34-25(39)18-5-4-6-20(11-18)28(29,30)31)12-23(16)38-15-19-13-33-26(36-24(19)37(3)27(38)40)35-22-10-8-17(2)32-14-22/h4-14H,15H2,1-3H3,(H,34,39)(H,33,35,36)

>  <InChI Key>
SZNYUUZOQHNEKB-UHFFFAOYSA-N

>  <BindingDB>
50323777

>  <PubChem>
11478363

>  <ChEMBL>
CHEMBL1214141

$$$$
222
Actelion Java MolfileCreator 2.0

  0  0  0  0  0  0              0 V3000
M  V30 BEGIN CTAB
M  V30 COUNTS 40 44 0 0 0
M  V30 BEGIN ATOM
M  V30 1 F 2.4641 2.5 0.0 0
M  V30 2 C 3.4641 2.5 0.0 0
M  V30 3 F 3.4641 3.5 0.0 0
M  V30 4 F 4.4641 2.5 0.0 0
M  V30 5 C 3.4641 1.5 0.0 0
M  V30 6 C 2.598 1.0 0.0 0
M  V30 7 C 4.3301 1.0 0.0 0
M  V30 8 C 2.598 0.0 0.0 0
M  V30 9 C 4.3301 0.0 0.0 0
M  V30 10 C 1.732 -0.5 0.0 0
M  V30 11 C 3.4641 -0.4999 0.0 0
M  V30 12 O 1.732 -1.5 0.0 0
M  V30 13 N 0.866 0.0 0.0 0
M  V30 14 C 0.0 -0.5 0.0 0
M  V30 15 C -0.866 0.0 0.0 0
M  V30 16 C 0.0 -1.4999 0.0 0
M  V30 17 C -1.732 -0.4999 0.0 0
M  V30 18 C -0.866 -1.9999 0.0 0
M  V30 19 N -2.598 0.0 0.0 0
M  V30 20 C -1.732 -1.4999 0.0 0
M  V30 21 C -2.598 1.0 0.0 0
M  V30 22 C -3.4641 -0.4999 0.0 0
M  V30 23 C -2.598 -1.9999 0.0 0
M  V30 24 O -1.732 1.5 0.0 0
M  V30 25 N -3.4641 1.5 0.0 0
M  V30 26 C -4.3301 0.0 0.0 0
M  V30 27 C -4.3301 1.0 0.0 0
M  V30 28 C -3.4641 2.5 0.0 0
M  V30 29 C -5.1961 -0.4999 0.0 0
M  V30 30 N -5.1961 1.5 0.0 0
M  V30 31 N -6.0621 0.0 0.0 0
M  V30 32 C -6.0621 1.0 0.0 0
M  V30 33 N -6.9282 1.5 0.0 0
M  V30 34 C -7.7942 1.0 0.0 0
M  V30 35 C -8.6602 1.5 0.0 0
M  V30 36 C -7.7942 0.0 0.0 0
M  V30 37 N -9.5262 1.0 0.0 0
M  V30 38 C -8.6602 -0.4999 0.0 0
M  V30 39 C -9.5262 0.0 0.0 0
M  V30 40 C -10.3923 -0.4999 0.0 0
M  V30 END ATOM
M  V30 BEGIN BOND
M  V30 1 1 1 2
M  V30 2 1 2 3
M  V30 3 1 2 4
M  V30 4 1 2 5
M  V30 5 2 5 6
M  V30 6 1 5 7
M  V30 7 1 6 8
M  V30 8 2 7 9
M  V30 9 1 8 10
M  V30 10 2 8 11
M  V30 11 2 10 12
M  V30 12 1 10 13
M  V30 13 1 13 14
M  V30 14 2 14 15
M  V30 15 1 14 16
M  V30 16 1 15 17
M  V30 17 2 16 18
M  V30 18 1 17 19
M  V30 19 2 17 20
M  V30 20 1 19 21
M  V30 21 1 19 22
M  V30 22 1 20 23
M  V30 23 2 21 24
M  V30 24 1 21 25
M  V30 25 1 22 26
M  V30 26 1 25 27
M  V30 27 1 25 28
M  V30 28 1 26 29
M  V30 29 1 27 30
M  V30 30 2 29 31
M  V30 31 2 30 32
M  V30 32 1 32 33
M  V30 33 1 33 34
M  V30 34 2 34 35
M  V30 35 1 34 36
M  V30 36 1 35 37
M  V30 37 2 36 38
M  V30 38 2 37 39
M  V30 39 1 39 40
M  V30 40 1 9 11
M  V30 41 1 18 20
M  V30 42 2 26 27
M  V30 43 1 31 32
M  V30 44 1 38 39
M  V30 END BOND
M  V30 END CTAB
M  END
>  <Molecule Name>
Compound 769

>  <Molecule Name 2>
Compound 769

>  <Compound ID>
222

>  <Name>
GNF-7

>  <Uniprot>
Q8IVH8

>  <Target>
MAP4K3

>  <Smiles>
CC1=CC=C(NC2=NC=C3CN(C4=CC(NC(=O)C5=CC=CC(C(F)(F)F)=C5)=CC=C4C)C(=O)N(C)C3=N2)C=N1

>  <Kd (nM)>


>  <Assay (Kd)>


>  <Ki (nM)>


>  <Assay (Ki)>


>  <IC50 (nM)>


>  <Assay (IC50)>


>  <EC50 (nM)>


>  <Assay (EC50)>


>  <Article DOI>


>  <Molecular Weight>
547.541

>  <Exact Mass>
547.1943577

>  <XLogP3>
4.33

>  <Heavy Atom Count>
40

>  <Ring Count>
5

>  <Hydrogen Bond Acceptor Count>
6

>  <Hydrogen Bond Donor Count>
2

>  <Rotatable Bond Count>
5

>  <Topological Polar Surface Area>
103.35

>  <Molecular Formula>
C28H24F3N7O2

>  <InChI>
InChI=1S/C28H24F3N7O2/c1-16-7-9-21(34-25(39)18-5-4-6-20(11-18)28(29,30)31)12-23(16)38-15-19-13-33-26(36-24(19)37(3)27(38)40)35-22-10-8-17(2)32-14-22/h4-14H,15H2,1-3H3,(H,34,39)(H,33,35,36)

>  <InChI Key>
SZNYUUZOQHNEKB-UHFFFAOYSA-N

>  <BindingDB>
50323777

>  <PubChem>
11478363

>  <ChEMBL>
CHEMBL1214141

$$$$
222
Actelion Java MolfileCreator 2.0

  0  0  0  0  0  0              0 V3000
M  V30 BEGIN CTAB
M  V30 COUNTS 40 44 0 0 0
M  V30 BEGIN ATOM
M  V30 1 F 2.4641 2.5 0.0 0
M  V30 2 C 3.4641 2.5 0.0 0
M  V30 3 F 3.4641 3.5 0.0 0
M  V30 4 F 4.4641 2.5 0.0 0
M  V30 5 C 3.4641 1.5 0.0 0
M  V30 6 C 2.598 1.0 0.0 0
M  V30 7 C 4.3301 1.0 0.0 0
M  V30 8 C 2.598 0.0 0.0 0
M  V30 9 C 4.3301 0.0 0.0 0
M  V30 10 C 1.732 -0.5 0.0 0
M  V30 11 C 3.4641 -0.4999 0.0 0
M  V30 12 O 1.732 -1.5 0.0 0
M  V30 13 N 0.866 0.0 0.0 0
M  V30 14 C 0.0 -0.5 0.0 0
M  V30 15 C -0.866 0.0 0.0 0
M  V30 16 C 0.0 -1.4999 0.0 0
M  V30 17 C -1.732 -0.4999 0.0 0
M  V30 18 C -0.866 -1.9999 0.0 0
M  V30 19 N -2.598 0.0 0.0 0
M  V30 20 C -1.732 -1.4999 0.0 0
M  V30 21 C -2.598 1.0 0.0 0
M  V30 22 C -3.4641 -0.4999 0.0 0
M  V30 23 C -2.598 -1.9999 0.0 0
M  V30 24 O -1.732 1.5 0.0 0
M  V30 25 N -3.4641 1.5 0.0 0
M  V30 26 C -4.3301 0.0 0.0 0
M  V30 27 C -4.3301 1.0 0.0 0
M  V30 28 C -3.4641 2.5 0.0 0
M  V30 29 C -5.1961 -0.4999 0.0 0
M  V30 30 N -5.1961 1.5 0.0 0
M  V30 31 N -6.0621 0.0 0.0 0
M  V30 32 C -6.0621 1.0 0.0 0
M  V30 33 N -6.9282 1.5 0.0 0
M  V30 34 C -7.7942 1.0 0.0 0
M  V30 35 C -8.6602 1.5 0.0 0
M  V30 36 C -7.7942 0.0 0.0 0
M  V30 37 N -9.5262 1.0 0.0 0
M  V30 38 C -8.6602 -0.4999 0.0 0
M  V30 39 C -9.5262 0.0 0.0 0
M  V30 40 C -10.3923 -0.4999 0.0 0
M  V30 END ATOM
M  V30 BEGIN BOND
M  V30 1 1 1 2
M  V30 2 1 2 3
M  V30 3 1 2 4
M  V30 4 1 2 5
M  V30 5 2 5 6
M  V30 6 1 5 7
M  V30 7 1 6 8
M  V30 8 2 7 9
M  V30 9 1 8 10
M  V30 10 2 8 11
M  V30 11 2 10 12
M  V30 12 1 10 13
M  V30 13 1 13 14
M  V30 14 2 14 15
M  V30 15 1 14 16
M  V30 16 1 15 17
M  V30 17 2 16 18
M  V30 18 1 17 19
M  V30 19 2 17 20
M  V30 20 1 19 21
M  V30 21 1 19 22
M  V30 22 1 20 23
M  V30 23 2 21 24
M  V30 24 1 21 25
M  V30 25 1 22 26
M  V30 26 1 25 27
M  V30 27 1 25 28
M  V30 28 1 26 29
M  V30 29 1 27 30
M  V30 30 2 29 31
M  V30 31 2 30 32
M  V30 32 1 32 33
M  V30 33 1 33 34
M  V30 34 2 34 35
M  V30 35 1 34 36
M  V30 36 1 35 37
M  V30 37 2 36 38
M  V30 38 2 37 39
M  V30 39 1 39 40
M  V30 40 1 9 11
M  V30 41 1 18 20
M  V30 42 2 26 27
M  V30 43 1 31 32
M  V30 44 1 38 39
M  V30 END BOND
M  V30 END CTAB
M  END
>  <Molecule Name>
Compound 770

>  <Molecule Name 2>
Compound 770

>  <Compound ID>
222

>  <Name>
GNF-7

>  <Uniprot>
Q9Y4K4

>  <Target>
MAP4K5

>  <Smiles>
CC1=CC=C(NC2=NC=C3CN(C4=CC(NC(=O)C5=CC=CC(C(F)(F)F)=C5)=CC=C4C)C(=O)N(C)C3=N2)C=N1

>  <Kd (nM)>


>  <Assay (Kd)>


>  <Ki (nM)>


>  <Assay (Ki)>


>  <IC50 (nM)>


>  <Assay (IC50)>


>  <EC50 (nM)>


>  <Assay (EC50)>


>  <Article DOI>


>  <Molecular Weight>
547.541

>  <Exact Mass>
547.1943577

>  <XLogP3>
4.33

>  <Heavy Atom Count>
40

>  <Ring Count>
5

>  <Hydrogen Bond Acceptor Count>
6

>  <Hydrogen Bond Donor Count>
2

>  <Rotatable Bond Count>
5

>  <Topological Polar Surface Area>
103.35

>  <Molecular Formula>
C28H24F3N7O2

>  <InChI>
InChI=1S/C28H24F3N7O2/c1-16-7-9-21(34-25(39)18-5-4-6-20(11-18)28(29,30)31)12-23(16)38-15-19-13-33-26(36-24(19)37(3)27(38)40)35-22-10-8-17(2)32-14-22/h4-14H,15H2,1-3H3,(H,34,39)(H,33,35,36)

>  <InChI Key>
SZNYUUZOQHNEKB-UHFFFAOYSA-N

>  <BindingDB>
50323777

>  <PubChem>
11478363

>  <ChEMBL>
CHEMBL1214141

$$$$
222
Actelion Java MolfileCreator 2.0

  0  0  0  0  0  0              0 V3000
M  V30 BEGIN CTAB
M  V30 COUNTS 40 44 0 0 0
M  V30 BEGIN ATOM
M  V30 1 F 2.4641 2.5 0.0 0
M  V30 2 C 3.4641 2.5 0.0 0
M  V30 3 F 3.4641 3.5 0.0 0
M  V30 4 F 4.4641 2.5 0.0 0
M  V30 5 C 3.4641 1.5 0.0 0
M  V30 6 C 2.598 1.0 0.0 0
M  V30 7 C 4.3301 1.0 0.0 0
M  V30 8 C 2.598 0.0 0.0 0
M  V30 9 C 4.3301 0.0 0.0 0
M  V30 10 C 1.732 -0.5 0.0 0
M  V30 11 C 3.4641 -0.4999 0.0 0
M  V30 12 O 1.732 -1.5 0.0 0
M  V30 13 N 0.866 0.0 0.0 0
M  V30 14 C 0.0 -0.5 0.0 0
M  V30 15 C -0.866 0.0 0.0 0
M  V30 16 C 0.0 -1.4999 0.0 0
M  V30 17 C -1.732 -0.4999 0.0 0
M  V30 18 C -0.866 -1.9999 0.0 0
M  V30 19 N -2.598 0.0 0.0 0
M  V30 20 C -1.732 -1.4999 0.0 0
M  V30 21 C -2.598 1.0 0.0 0
M  V30 22 C -3.4641 -0.4999 0.0 0
M  V30 23 C -2.598 -1.9999 0.0 0
M  V30 24 O -1.732 1.5 0.0 0
M  V30 25 N -3.4641 1.5 0.0 0
M  V30 26 C -4.3301 0.0 0.0 0
M  V30 27 C -4.3301 1.0 0.0 0
M  V30 28 C -3.4641 2.5 0.0 0
M  V30 29 C -5.1961 -0.4999 0.0 0
M  V30 30 N -5.1961 1.5 0.0 0
M  V30 31 N -6.0621 0.0 0.0 0
M  V30 32 C -6.0621 1.0 0.0 0
M  V30 33 N -6.9282 1.5 0.0 0
M  V30 34 C -7.7942 1.0 0.0 0
M  V30 35 C -8.6602 1.5 0.0 0
M  V30 36 C -7.7942 0.0 0.0 0
M  V30 37 N -9.5262 1.0 0.0 0
M  V30 38 C -8.6602 -0.4999 0.0 0
M  V30 39 C -9.5262 0.0 0.0 0
M  V30 40 C -10.3923 -0.4999 0.0 0
M  V30 END ATOM
M  V30 BEGIN BOND
M  V30 1 1 1 2
M  V30 2 1 2 3
M  V30 3 1 2 4
M  V30 4 1 2 5
M  V30 5 2 5 6
M  V30 6 1 5 7
M  V30 7 1 6 8
M  V30 8 2 7 9
M  V30 9 1 8 10
M  V30 10 2 8 11
M  V30 11 2 10 12
M  V30 12 1 10 13
M  V30 13 1 13 14
M  V30 14 2 14 15
M  V30 15 1 14 16
M  V30 16 1 15 17
M  V30 17 2 16 18
M  V30 18 1 17 19
M  V30 19 2 17 20
M  V30 20 1 19 21
M  V30 21 1 19 22
M  V30 22 1 20 23
M  V30 23 2 21 24
M  V30 24 1 21 25
M  V30 25 1 22 26
M  V30 26 1 25 27
M  V30 27 1 25 28
M  V30 28 1 26 29
M  V30 29 1 27 30
M  V30 30 2 29 31
M  V30 31 2 30 32
M  V30 32 1 32 33
M  V30 33 1 33 34
M  V30 34 2 34 35
M  V30 35 1 34 36
M  V30 36 1 35 37
M  V30 37 2 36 38
M  V30 38 2 37 39
M  V30 39 1 39 40
M  V30 40 1 9 11
M  V30 41 1 18 20
M  V30 42 2 26 27
M  V30 43 1 31 32
M  V30 44 1 38 39
M  V30 END BOND
M  V30 END CTAB
M  END
>  <Molecule Name>
Compound 771

>  <Molecule Name 2>
Compound 771

>  <Compound ID>
222

>  <Name>
GNF-7

>  <Uniprot>
P53778

>  <Target>
MAPK12

>  <Smiles>
CC1=CC=C(NC2=NC=C3CN(C4=CC(NC(=O)C5=CC=CC(C(F)(F)F)=C5)=CC=C4C)C(=O)N(C)C3=N2)C=N1

>  <Kd (nM)>


>  <Assay (Kd)>


>  <Ki (nM)>


>  <Assay (Ki)>


>  <IC50 (nM)>


>  <Assay (IC50)>


>  <EC50 (nM)>


>  <Assay (EC50)>


>  <Article DOI>


>  <Molecular Weight>
547.541

>  <Exact Mass>
547.1943577

>  <XLogP3>
4.33

>  <Heavy Atom Count>
40

>  <Ring Count>
5

>  <Hydrogen Bond Acceptor Count>
6

>  <Hydrogen Bond Donor Count>
2

>  <Rotatable Bond Count>
5

>  <Topological Polar Surface Area>
103.35

>  <Molecular Formula>
C28H24F3N7O2

>  <InChI>
InChI=1S/C28H24F3N7O2/c1-16-7-9-21(34-25(39)18-5-4-6-20(11-18)28(29,30)31)12-23(16)38-15-19-13-33-26(36-24(19)37(3)27(38)40)35-22-10-8-17(2)32-14-22/h4-14H,15H2,1-3H3,(H,34,39)(H,33,35,36)

>  <InChI Key>
SZNYUUZOQHNEKB-UHFFFAOYSA-N

>  <BindingDB>
50323777

>  <PubChem>
11478363

>  <ChEMBL>
CHEMBL1214141

$$$$
222
Actelion Java MolfileCreator 2.0

  0  0  0  0  0  0              0 V3000
M  V30 BEGIN CTAB
M  V30 COUNTS 40 44 0 0 0
M  V30 BEGIN ATOM
M  V30 1 F 2.4641 2.5 0.0 0
M  V30 2 C 3.4641 2.5 0.0 0
M  V30 3 F 3.4641 3.5 0.0 0
M  V30 4 F 4.4641 2.5 0.0 0
M  V30 5 C 3.4641 1.5 0.0 0
M  V30 6 C 2.598 1.0 0.0 0
M  V30 7 C 4.3301 1.0 0.0 0
M  V30 8 C 2.598 0.0 0.0 0
M  V30 9 C 4.3301 0.0 0.0 0
M  V30 10 C 1.732 -0.5 0.0 0
M  V30 11 C 3.4641 -0.4999 0.0 0
M  V30 12 O 1.732 -1.5 0.0 0
M  V30 13 N 0.866 0.0 0.0 0
M  V30 14 C 0.0 -0.5 0.0 0
M  V30 15 C -0.866 0.0 0.0 0
M  V30 16 C 0.0 -1.4999 0.0 0
M  V30 17 C -1.732 -0.4999 0.0 0
M  V30 18 C -0.866 -1.9999 0.0 0
M  V30 19 N -2.598 0.0 0.0 0
M  V30 20 C -1.732 -1.4999 0.0 0
M  V30 21 C -2.598 1.0 0.0 0
M  V30 22 C -3.4641 -0.4999 0.0 0
M  V30 23 C -2.598 -1.9999 0.0 0
M  V30 24 O -1.732 1.5 0.0 0
M  V30 25 N -3.4641 1.5 0.0 0
M  V30 26 C -4.3301 0.0 0.0 0
M  V30 27 C -4.3301 1.0 0.0 0
M  V30 28 C -3.4641 2.5 0.0 0
M  V30 29 C -5.1961 -0.4999 0.0 0
M  V30 30 N -5.1961 1.5 0.0 0
M  V30 31 N -6.0621 0.0 0.0 0
M  V30 32 C -6.0621 1.0 0.0 0
M  V30 33 N -6.9282 1.5 0.0 0
M  V30 34 C -7.7942 1.0 0.0 0
M  V30 35 C -8.6602 1.5 0.0 0
M  V30 36 C -7.7942 0.0 0.0 0
M  V30 37 N -9.5262 1.0 0.0 0
M  V30 38 C -8.6602 -0.4999 0.0 0
M  V30 39 C -9.5262 0.0 0.0 0
M  V30 40 C -10.3923 -0.4999 0.0 0
M  V30 END ATOM
M  V30 BEGIN BOND
M  V30 1 1 1 2
M  V30 2 1 2 3
M  V30 3 1 2 4
M  V30 4 1 2 5
M  V30 5 2 5 6
M  V30 6 1 5 7
M  V30 7 1 6 8
M  V30 8 2 7 9
M  V30 9 1 8 10
M  V30 10 2 8 11
M  V30 11 2 10 12
M  V30 12 1 10 13
M  V30 13 1 13 14
M  V30 14 2 14 15
M  V30 15 1 14 16
M  V30 16 1 15 17
M  V30 17 2 16 18
M  V30 18 1 17 19
M  V30 19 2 17 20
M  V30 20 1 19 21
M  V30 21 1 19 22
M  V30 22 1 20 23
M  V30 23 2 21 24
M  V30 24 1 21 25
M  V30 25 1 22 26
M  V30 26 1 25 27
M  V30 27 1 25 28
M  V30 28 1 26 29
M  V30 29 1 27 30
M  V30 30 2 29 31
M  V30 31 2 30 32
M  V30 32 1 32 33
M  V30 33 1 33 34
M  V30 34 2 34 35
M  V30 35 1 34 36
M  V30 36 1 35 37
M  V30 37 2 36 38
M  V30 38 2 37 39
M  V30 39 1 39 40
M  V30 40 1 9 11
M  V30 41 1 18 20
M  V30 42 2 26 27
M  V30 43 1 31 32
M  V30 44 1 38 39
M  V30 END BOND
M  V30 END CTAB
M  END
>  <Molecule Name>
Compound 772

>  <Molecule Name 2>
Compound 772

>  <Compound ID>
222

>  <Name>
GNF-7

>  <Uniprot>
Q13164

>  <Target>
MAPK7

>  <Smiles>
CC1=CC=C(NC2=NC=C3CN(C4=CC(NC(=O)C5=CC=CC(C(F)(F)F)=C5)=CC=C4C)C(=O)N(C)C3=N2)C=N1

>  <Kd (nM)>


>  <Assay (Kd)>


>  <Ki (nM)>


>  <Assay (Ki)>


>  <IC50 (nM)>


>  <Assay (IC50)>


>  <EC50 (nM)>


>  <Assay (EC50)>


>  <Article DOI>


>  <Molecular Weight>
547.541

>  <Exact Mass>
547.1943577

>  <XLogP3>
4.33

>  <Heavy Atom Count>
40

>  <Ring Count>
5

>  <Hydrogen Bond Acceptor Count>
6

>  <Hydrogen Bond Donor Count>
2

>  <Rotatable Bond Count>
5

>  <Topological Polar Surface Area>
103.35

>  <Molecular Formula>
C28H24F3N7O2

>  <InChI>
InChI=1S/C28H24F3N7O2/c1-16-7-9-21(34-25(39)18-5-4-6-20(11-18)28(29,30)31)12-23(16)38-15-19-13-33-26(36-24(19)37(3)27(38)40)35-22-10-8-17(2)32-14-22/h4-14H,15H2,1-3H3,(H,34,39)(H,33,35,36)

>  <InChI Key>
SZNYUUZOQHNEKB-UHFFFAOYSA-N

>  <BindingDB>
50323777

>  <PubChem>
11478363

>  <ChEMBL>
CHEMBL1214141

$$$$
222
Actelion Java MolfileCreator 2.0

  0  0  0  0  0  0              0 V3000
M  V30 BEGIN CTAB
M  V30 COUNTS 40 44 0 0 0
M  V30 BEGIN ATOM
M  V30 1 F 2.4641 2.5 0.0 0
M  V30 2 C 3.4641 2.5 0.0 0
M  V30 3 F 3.4641 3.5 0.0 0
M  V30 4 F 4.4641 2.5 0.0 0
M  V30 5 C 3.4641 1.5 0.0 0
M  V30 6 C 2.598 1.0 0.0 0
M  V30 7 C 4.3301 1.0 0.0 0
M  V30 8 C 2.598 0.0 0.0 0
M  V30 9 C 4.3301 0.0 0.0 0
M  V30 10 C 1.732 -0.5 0.0 0
M  V30 11 C 3.4641 -0.4999 0.0 0
M  V30 12 O 1.732 -1.5 0.0 0
M  V30 13 N 0.866 0.0 0.0 0
M  V30 14 C 0.0 -0.5 0.0 0
M  V30 15 C -0.866 0.0 0.0 0
M  V30 16 C 0.0 -1.4999 0.0 0
M  V30 17 C -1.732 -0.4999 0.0 0
M  V30 18 C -0.866 -1.9999 0.0 0
M  V30 19 N -2.598 0.0 0.0 0
M  V30 20 C -1.732 -1.4999 0.0 0
M  V30 21 C -2.598 1.0 0.0 0
M  V30 22 C -3.4641 -0.4999 0.0 0
M  V30 23 C -2.598 -1.9999 0.0 0
M  V30 24 O -1.732 1.5 0.0 0
M  V30 25 N -3.4641 1.5 0.0 0
M  V30 26 C -4.3301 0.0 0.0 0
M  V30 27 C -4.3301 1.0 0.0 0
M  V30 28 C -3.4641 2.5 0.0 0
M  V30 29 C -5.1961 -0.4999 0.0 0
M  V30 30 N -5.1961 1.5 0.0 0
M  V30 31 N -6.0621 0.0 0.0 0
M  V30 32 C -6.0621 1.0 0.0 0
M  V30 33 N -6.9282 1.5 0.0 0
M  V30 34 C -7.7942 1.0 0.0 0
M  V30 35 C -8.6602 1.5 0.0 0
M  V30 36 C -7.7942 0.0 0.0 0
M  V30 37 N -9.5262 1.0 0.0 0
M  V30 38 C -8.6602 -0.4999 0.0 0
M  V30 39 C -9.5262 0.0 0.0 0
M  V30 40 C -10.3923 -0.4999 0.0 0
M  V30 END ATOM
M  V30 BEGIN BOND
M  V30 1 1 1 2
M  V30 2 1 2 3
M  V30 3 1 2 4
M  V30 4 1 2 5
M  V30 5 2 5 6
M  V30 6 1 5 7
M  V30 7 1 6 8
M  V30 8 2 7 9
M  V30 9 1 8 10
M  V30 10 2 8 11
M  V30 11 2 10 12
M  V30 12 1 10 13
M  V30 13 1 13 14
M  V30 14 2 14 15
M  V30 15 1 14 16
M  V30 16 1 15 17
M  V30 17 2 16 18
M  V30 18 1 17 19
M  V30 19 2 17 20
M  V30 20 1 19 21
M  V30 21 1 19 22
M  V30 22 1 20 23
M  V30 23 2 21 24
M  V30 24 1 21 25
M  V30 25 1 22 26
M  V30 26 1 25 27
M  V30 27 1 25 28
M  V30 28 1 26 29
M  V30 29 1 27 30
M  V30 30 2 29 31
M  V30 31 2 30 32
M  V30 32 1 32 33
M  V30 33 1 33 34
M  V30 34 2 34 35
M  V30 35 1 34 36
M  V30 36 1 35 37
M  V30 37 2 36 38
M  V30 38 2 37 39
M  V30 39 1 39 40
M  V30 40 1 9 11
M  V30 41 1 18 20
M  V30 42 2 26 27
M  V30 43 1 31 32
M  V30 44 1 38 39
M  V30 END BOND
M  V30 END CTAB
M  END
>  <Molecule Name>
Compound 773

>  <Molecule Name 2>
Compound 773

>  <Compound ID>
222

>  <Name>
GNF-7

>  <Uniprot>
P45983

>  <Target>
MAPK8

>  <Smiles>
CC1=CC=C(NC2=NC=C3CN(C4=CC(NC(=O)C5=CC=CC(C(F)(F)F)=C5)=CC=C4C)C(=O)N(C)C3=N2)C=N1

>  <Kd (nM)>


>  <Assay (Kd)>


>  <Ki (nM)>


>  <Assay (Ki)>


>  <IC50 (nM)>


>  <Assay (IC50)>


>  <EC50 (nM)>


>  <Assay (EC50)>


>  <Article DOI>


>  <Molecular Weight>
547.541

>  <Exact Mass>
547.1943577

>  <XLogP3>
4.33

>  <Heavy Atom Count>
40

>  <Ring Count>
5

>  <Hydrogen Bond Acceptor Count>
6

>  <Hydrogen Bond Donor Count>
2

>  <Rotatable Bond Count>
5

>  <Topological Polar Surface Area>
103.35

>  <Molecular Formula>
C28H24F3N7O2

>  <InChI>
InChI=1S/C28H24F3N7O2/c1-16-7-9-21(34-25(39)18-5-4-6-20(11-18)28(29,30)31)12-23(16)38-15-19-13-33-26(36-24(19)37(3)27(38)40)35-22-10-8-17(2)32-14-22/h4-14H,15H2,1-3H3,(H,34,39)(H,33,35,36)

>  <InChI Key>
SZNYUUZOQHNEKB-UHFFFAOYSA-N

>  <BindingDB>
50323777

>  <PubChem>
11478363

>  <ChEMBL>
CHEMBL1214141

$$$$
222
Actelion Java MolfileCreator 2.0

  0  0  0  0  0  0              0 V3000
M  V30 BEGIN CTAB
M  V30 COUNTS 40 44 0 0 0
M  V30 BEGIN ATOM
M  V30 1 F 2.4641 2.5 0.0 0
M  V30 2 C 3.4641 2.5 0.0 0
M  V30 3 F 3.4641 3.5 0.0 0
M  V30 4 F 4.4641 2.5 0.0 0
M  V30 5 C 3.4641 1.5 0.0 0
M  V30 6 C 2.598 1.0 0.0 0
M  V30 7 C 4.3301 1.0 0.0 0
M  V30 8 C 2.598 0.0 0.0 0
M  V30 9 C 4.3301 0.0 0.0 0
M  V30 10 C 1.732 -0.5 0.0 0
M  V30 11 C 3.4641 -0.4999 0.0 0
M  V30 12 O 1.732 -1.5 0.0 0
M  V30 13 N 0.866 0.0 0.0 0
M  V30 14 C 0.0 -0.5 0.0 0
M  V30 15 C -0.866 0.0 0.0 0
M  V30 16 C 0.0 -1.4999 0.0 0
M  V30 17 C -1.732 -0.4999 0.0 0
M  V30 18 C -0.866 -1.9999 0.0 0
M  V30 19 N -2.598 0.0 0.0 0
M  V30 20 C -1.732 -1.4999 0.0 0
M  V30 21 C -2.598 1.0 0.0 0
M  V30 22 C -3.4641 -0.4999 0.0 0
M  V30 23 C -2.598 -1.9999 0.0 0
M  V30 24 O -1.732 1.5 0.0 0
M  V30 25 N -3.4641 1.5 0.0 0
M  V30 26 C -4.3301 0.0 0.0 0
M  V30 27 C -4.3301 1.0 0.0 0
M  V30 28 C -3.4641 2.5 0.0 0
M  V30 29 C -5.1961 -0.4999 0.0 0
M  V30 30 N -5.1961 1.5 0.0 0
M  V30 31 N -6.0621 0.0 0.0 0
M  V30 32 C -6.0621 1.0 0.0 0
M  V30 33 N -6.9282 1.5 0.0 0
M  V30 34 C -7.7942 1.0 0.0 0
M  V30 35 C -8.6602 1.5 0.0 0
M  V30 36 C -7.7942 0.0 0.0 0
M  V30 37 N -9.5262 1.0 0.0 0
M  V30 38 C -8.6602 -0.4999 0.0 0
M  V30 39 C -9.5262 0.0 0.0 0
M  V30 40 C -10.3923 -0.4999 0.0 0
M  V30 END ATOM
M  V30 BEGIN BOND
M  V30 1 1 1 2
M  V30 2 1 2 3
M  V30 3 1 2 4
M  V30 4 1 2 5
M  V30 5 2 5 6
M  V30 6 1 5 7
M  V30 7 1 6 8
M  V30 8 2 7 9
M  V30 9 1 8 10
M  V30 10 2 8 11
M  V30 11 2 10 12
M  V30 12 1 10 13
M  V30 13 1 13 14
M  V30 14 2 14 15
M  V30 15 1 14 16
M  V30 16 1 15 17
M  V30 17 2 16 18
M  V30 18 1 17 19
M  V30 19 2 17 20
M  V30 20 1 19 21
M  V30 21 1 19 22
M  V30 22 1 20 23
M  V30 23 2 21 24
M  V30 24 1 21 25
M  V30 25 1 22 26
M  V30 26 1 25 27
M  V30 27 1 25 28
M  V30 28 1 26 29
M  V30 29 1 27 30
M  V30 30 2 29 31
M  V30 31 2 30 32
M  V30 32 1 32 33
M  V30 33 1 33 34
M  V30 34 2 34 35
M  V30 35 1 34 36
M  V30 36 1 35 37
M  V30 37 2 36 38
M  V30 38 2 37 39
M  V30 39 1 39 40
M  V30 40 1 9 11
M  V30 41 1 18 20
M  V30 42 2 26 27
M  V30 43 1 31 32
M  V30 44 1 38 39
M  V30 END BOND
M  V30 END CTAB
M  END
>  <Molecule Name>
Compound 774

>  <Molecule Name 2>
Compound 774

>  <Compound ID>
222

>  <Name>
GNF-7

>  <Uniprot>
P45984

>  <Target>
MAPK9

>  <Smiles>
CC1=CC=C(NC2=NC=C3CN(C4=CC(NC(=O)C5=CC=CC(C(F)(F)F)=C5)=CC=C4C)C(=O)N(C)C3=N2)C=N1

>  <Kd (nM)>


>  <Assay (Kd)>


>  <Ki (nM)>


>  <Assay (Ki)>


>  <IC50 (nM)>


>  <Assay (IC50)>


>  <EC50 (nM)>


>  <Assay (EC50)>


>  <Article DOI>


>  <Molecular Weight>
547.541

>  <Exact Mass>
547.1943577

>  <XLogP3>
4.33

>  <Heavy Atom Count>
40

>  <Ring Count>
5

>  <Hydrogen Bond Acceptor Count>
6

>  <Hydrogen Bond Donor Count>
2

>  <Rotatable Bond Count>
5

>  <Topological Polar Surface Area>
103.35

>  <Molecular Formula>
C28H24F3N7O2

>  <InChI>
InChI=1S/C28H24F3N7O2/c1-16-7-9-21(34-25(39)18-5-4-6-20(11-18)28(29,30)31)12-23(16)38-15-19-13-33-26(36-24(19)37(3)27(38)40)35-22-10-8-17(2)32-14-22/h4-14H,15H2,1-3H3,(H,34,39)(H,33,35,36)

>  <InChI Key>
SZNYUUZOQHNEKB-UHFFFAOYSA-N

>  <BindingDB>
50323777

>  <PubChem>
11478363

>  <ChEMBL>
CHEMBL1214141

$$$$
222
Actelion Java MolfileCreator 2.0

  0  0  0  0  0  0              0 V3000
M  V30 BEGIN CTAB
M  V30 COUNTS 40 44 0 0 0
M  V30 BEGIN ATOM
M  V30 1 F 2.4641 2.5 0.0 0
M  V30 2 C 3.4641 2.5 0.0 0
M  V30 3 F 3.4641 3.5 0.0 0
M  V30 4 F 4.4641 2.5 0.0 0
M  V30 5 C 3.4641 1.5 0.0 0
M  V30 6 C 2.598 1.0 0.0 0
M  V30 7 C 4.3301 1.0 0.0 0
M  V30 8 C 2.598 0.0 0.0 0
M  V30 9 C 4.3301 0.0 0.0 0
M  V30 10 C 1.732 -0.5 0.0 0
M  V30 11 C 3.4641 -0.4999 0.0 0
M  V30 12 O 1.732 -1.5 0.0 0
M  V30 13 N 0.866 0.0 0.0 0
M  V30 14 C 0.0 -0.5 0.0 0
M  V30 15 C -0.866 0.0 0.0 0
M  V30 16 C 0.0 -1.4999 0.0 0
M  V30 17 C -1.732 -0.4999 0.0 0
M  V30 18 C -0.866 -1.9999 0.0 0
M  V30 19 N -2.598 0.0 0.0 0
M  V30 20 C -1.732 -1.4999 0.0 0
M  V30 21 C -2.598 1.0 0.0 0
M  V30 22 C -3.4641 -0.4999 0.0 0
M  V30 23 C -2.598 -1.9999 0.0 0
M  V30 24 O -1.732 1.5 0.0 0
M  V30 25 N -3.4641 1.5 0.0 0
M  V30 26 C -4.3301 0.0 0.0 0
M  V30 27 C -4.3301 1.0 0.0 0
M  V30 28 C -3.4641 2.5 0.0 0
M  V30 29 C -5.1961 -0.4999 0.0 0
M  V30 30 N -5.1961 1.5 0.0 0
M  V30 31 N -6.0621 0.0 0.0 0
M  V30 32 C -6.0621 1.0 0.0 0
M  V30 33 N -6.9282 1.5 0.0 0
M  V30 34 C -7.7942 1.0 0.0 0
M  V30 35 C -8.6602 1.5 0.0 0
M  V30 36 C -7.7942 0.0 0.0 0
M  V30 37 N -9.5262 1.0 0.0 0
M  V30 38 C -8.6602 -0.4999 0.0 0
M  V30 39 C -9.5262 0.0 0.0 0
M  V30 40 C -10.3923 -0.4999 0.0 0
M  V30 END ATOM
M  V30 BEGIN BOND
M  V30 1 1 1 2
M  V30 2 1 2 3
M  V30 3 1 2 4
M  V30 4 1 2 5
M  V30 5 2 5 6
M  V30 6 1 5 7
M  V30 7 1 6 8
M  V30 8 2 7 9
M  V30 9 1 8 10
M  V30 10 2 8 11
M  V30 11 2 10 12
M  V30 12 1 10 13
M  V30 13 1 13 14
M  V30 14 2 14 15
M  V30 15 1 14 16
M  V30 16 1 15 17
M  V30 17 2 16 18
M  V30 18 1 17 19
M  V30 19 2 17 20
M  V30 20 1 19 21
M  V30 21 1 19 22
M  V30 22 1 20 23
M  V30 23 2 21 24
M  V30 24 1 21 25
M  V30 25 1 22 26
M  V30 26 1 25 27
M  V30 27 1 25 28
M  V30 28 1 26 29
M  V30 29 1 27 30
M  V30 30 2 29 31
M  V30 31 2 30 32
M  V30 32 1 32 33
M  V30 33 1 33 34
M  V30 34 2 34 35
M  V30 35 1 34 36
M  V30 36 1 35 37
M  V30 37 2 36 38
M  V30 38 2 37 39
M  V30 39 1 39 40
M  V30 40 1 9 11
M  V30 41 1 18 20
M  V30 42 2 26 27
M  V30 43 1 31 32
M  V30 44 1 38 39
M  V30 END BOND
M  V30 END CTAB
M  END
>  <Molecule Name>
Compound 775

>  <Molecule Name 2>
Compound 775

>  <Compound ID>
222

>  <Name>
GNF-7

>  <Uniprot>
P49137

>  <Target>
MAPKAPK2

>  <Smiles>
CC1=CC=C(NC2=NC=C3CN(C4=CC(NC(=O)C5=CC=CC(C(F)(F)F)=C5)=CC=C4C)C(=O)N(C)C3=N2)C=N1

>  <Kd (nM)>


>  <Assay (Kd)>


>  <Ki (nM)>


>  <Assay (Ki)>


>  <IC50 (nM)>


>  <Assay (IC50)>


>  <EC50 (nM)>


>  <Assay (EC50)>


>  <Article DOI>


>  <Molecular Weight>
547.541

>  <Exact Mass>
547.1943577

>  <XLogP3>
4.33

>  <Heavy Atom Count>
40

>  <Ring Count>
5

>  <Hydrogen Bond Acceptor Count>
6

>  <Hydrogen Bond Donor Count>
2

>  <Rotatable Bond Count>
5

>  <Topological Polar Surface Area>
103.35

>  <Molecular Formula>
C28H24F3N7O2

>  <InChI>
InChI=1S/C28H24F3N7O2/c1-16-7-9-21(34-25(39)18-5-4-6-20(11-18)28(29,30)31)12-23(16)38-15-19-13-33-26(36-24(19)37(3)27(38)40)35-22-10-8-17(2)32-14-22/h4-14H,15H2,1-3H3,(H,34,39)(H,33,35,36)

>  <InChI Key>
SZNYUUZOQHNEKB-UHFFFAOYSA-N

>  <BindingDB>
50323777

>  <PubChem>
11478363

>  <ChEMBL>
CHEMBL1214141

$$$$
222
Actelion Java MolfileCreator 2.0

  0  0  0  0  0  0              0 V3000
M  V30 BEGIN CTAB
M  V30 COUNTS 40 44 0 0 0
M  V30 BEGIN ATOM
M  V30 1 F 2.4641 2.5 0.0 0
M  V30 2 C 3.4641 2.5 0.0 0
M  V30 3 F 3.4641 3.5 0.0 0
M  V30 4 F 4.4641 2.5 0.0 0
M  V30 5 C 3.4641 1.5 0.0 0
M  V30 6 C 2.598 1.0 0.0 0
M  V30 7 C 4.3301 1.0 0.0 0
M  V30 8 C 2.598 0.0 0.0 0
M  V30 9 C 4.3301 0.0 0.0 0
M  V30 10 C 1.732 -0.5 0.0 0
M  V30 11 C 3.4641 -0.4999 0.0 0
M  V30 12 O 1.732 -1.5 0.0 0
M  V30 13 N 0.866 0.0 0.0 0
M  V30 14 C 0.0 -0.5 0.0 0
M  V30 15 C -0.866 0.0 0.0 0
M  V30 16 C 0.0 -1.4999 0.0 0
M  V30 17 C -1.732 -0.4999 0.0 0
M  V30 18 C -0.866 -1.9999 0.0 0
M  V30 19 N -2.598 0.0 0.0 0
M  V30 20 C -1.732 -1.4999 0.0 0
M  V30 21 C -2.598 1.0 0.0 0
M  V30 22 C -3.4641 -0.4999 0.0 0
M  V30 23 C -2.598 -1.9999 0.0 0
M  V30 24 O -1.732 1.5 0.0 0
M  V30 25 N -3.4641 1.5 0.0 0
M  V30 26 C -4.3301 0.0 0.0 0
M  V30 27 C -4.3301 1.0 0.0 0
M  V30 28 C -3.4641 2.5 0.0 0
M  V30 29 C -5.1961 -0.4999 0.0 0
M  V30 30 N -5.1961 1.5 0.0 0
M  V30 31 N -6.0621 0.0 0.0 0
M  V30 32 C -6.0621 1.0 0.0 0
M  V30 33 N -6.9282 1.5 0.0 0
M  V30 34 C -7.7942 1.0 0.0 0
M  V30 35 C -8.6602 1.5 0.0 0
M  V30 36 C -7.7942 0.0 0.0 0
M  V30 37 N -9.5262 1.0 0.0 0
M  V30 38 C -8.6602 -0.4999 0.0 0
M  V30 39 C -9.5262 0.0 0.0 0
M  V30 40 C -10.3923 -0.4999 0.0 0
M  V30 END ATOM
M  V30 BEGIN BOND
M  V30 1 1 1 2
M  V30 2 1 2 3
M  V30 3 1 2 4
M  V30 4 1 2 5
M  V30 5 2 5 6
M  V30 6 1 5 7
M  V30 7 1 6 8
M  V30 8 2 7 9
M  V30 9 1 8 10
M  V30 10 2 8 11
M  V30 11 2 10 12
M  V30 12 1 10 13
M  V30 13 1 13 14
M  V30 14 2 14 15
M  V30 15 1 14 16
M  V30 16 1 15 17
M  V30 17 2 16 18
M  V30 18 1 17 19
M  V30 19 2 17 20
M  V30 20 1 19 21
M  V30 21 1 19 22
M  V30 22 1 20 23
M  V30 23 2 21 24
M  V30 24 1 21 25
M  V30 25 1 22 26
M  V30 26 1 25 27
M  V30 27 1 25 28
M  V30 28 1 26 29
M  V30 29 1 27 30
M  V30 30 2 29 31
M  V30 31 2 30 32
M  V30 32 1 32 33
M  V30 33 1 33 34
M  V30 34 2 34 35
M  V30 35 1 34 36
M  V30 36 1 35 37
M  V30 37 2 36 38
M  V30 38 2 37 39
M  V30 39 1 39 40
M  V30 40 1 9 11
M  V30 41 1 18 20
M  V30 42 2 26 27
M  V30 43 1 31 32
M  V30 44 1 38 39
M  V30 END BOND
M  V30 END CTAB
M  END
>  <Molecule Name>
Compound 776

>  <Molecule Name 2>
Compound 776

>  <Compound ID>
222

>  <Name>
GNF-7

>  <Uniprot>
Q16644

>  <Target>
MAPKAPK3

>  <Smiles>
CC1=CC=C(NC2=NC=C3CN(C4=CC(NC(=O)C5=CC=CC(C(F)(F)F)=C5)=CC=C4C)C(=O)N(C)C3=N2)C=N1

>  <Kd (nM)>


>  <Assay (Kd)>


>  <Ki (nM)>


>  <Assay (Ki)>


>  <IC50 (nM)>


>  <Assay (IC50)>


>  <EC50 (nM)>


>  <Assay (EC50)>


>  <Article DOI>


>  <Molecular Weight>
547.541

>  <Exact Mass>
547.1943577

>  <XLogP3>
4.33

>  <Heavy Atom Count>
40

>  <Ring Count>
5

>  <Hydrogen Bond Acceptor Count>
6

>  <Hydrogen Bond Donor Count>
2

>  <Rotatable Bond Count>
5

>  <Topological Polar Surface Area>
103.35

>  <Molecular Formula>
C28H24F3N7O2

>  <InChI>
InChI=1S/C28H24F3N7O2/c1-16-7-9-21(34-25(39)18-5-4-6-20(11-18)28(29,30)31)12-23(16)38-15-19-13-33-26(36-24(19)37(3)27(38)40)35-22-10-8-17(2)32-14-22/h4-14H,15H2,1-3H3,(H,34,39)(H,33,35,36)

>  <InChI Key>
SZNYUUZOQHNEKB-UHFFFAOYSA-N

>  <BindingDB>
50323777

>  <PubChem>
11478363

>  <ChEMBL>
CHEMBL1214141

$$$$
222
Actelion Java MolfileCreator 2.0

  0  0  0  0  0  0              0 V3000
M  V30 BEGIN CTAB
M  V30 COUNTS 40 44 0 0 0
M  V30 BEGIN ATOM
M  V30 1 F 2.4641 2.5 0.0 0
M  V30 2 C 3.4641 2.5 0.0 0
M  V30 3 F 3.4641 3.5 0.0 0
M  V30 4 F 4.4641 2.5 0.0 0
M  V30 5 C 3.4641 1.5 0.0 0
M  V30 6 C 2.598 1.0 0.0 0
M  V30 7 C 4.3301 1.0 0.0 0
M  V30 8 C 2.598 0.0 0.0 0
M  V30 9 C 4.3301 0.0 0.0 0
M  V30 10 C 1.732 -0.5 0.0 0
M  V30 11 C 3.4641 -0.4999 0.0 0
M  V30 12 O 1.732 -1.5 0.0 0
M  V30 13 N 0.866 0.0 0.0 0
M  V30 14 C 0.0 -0.5 0.0 0
M  V30 15 C -0.866 0.0 0.0 0
M  V30 16 C 0.0 -1.4999 0.0 0
M  V30 17 C -1.732 -0.4999 0.0 0
M  V30 18 C -0.866 -1.9999 0.0 0
M  V30 19 N -2.598 0.0 0.0 0
M  V30 20 C -1.732 -1.4999 0.0 0
M  V30 21 C -2.598 1.0 0.0 0
M  V30 22 C -3.4641 -0.4999 0.0 0
M  V30 23 C -2.598 -1.9999 0.0 0
M  V30 24 O -1.732 1.5 0.0 0
M  V30 25 N -3.4641 1.5 0.0 0
M  V30 26 C -4.3301 0.0 0.0 0
M  V30 27 C -4.3301 1.0 0.0 0
M  V30 28 C -3.4641 2.5 0.0 0
M  V30 29 C -5.1961 -0.4999 0.0 0
M  V30 30 N -5.1961 1.5 0.0 0
M  V30 31 N -6.0621 0.0 0.0 0
M  V30 32 C -6.0621 1.0 0.0 0
M  V30 33 N -6.9282 1.5 0.0 0
M  V30 34 C -7.7942 1.0 0.0 0
M  V30 35 C -8.6602 1.5 0.0 0
M  V30 36 C -7.7942 0.0 0.0 0
M  V30 37 N -9.5262 1.0 0.0 0
M  V30 38 C -8.6602 -0.4999 0.0 0
M  V30 39 C -9.5262 0.0 0.0 0
M  V30 40 C -10.3923 -0.4999 0.0 0
M  V30 END ATOM
M  V30 BEGIN BOND
M  V30 1 1 1 2
M  V30 2 1 2 3
M  V30 3 1 2 4
M  V30 4 1 2 5
M  V30 5 2 5 6
M  V30 6 1 5 7
M  V30 7 1 6 8
M  V30 8 2 7 9
M  V30 9 1 8 10
M  V30 10 2 8 11
M  V30 11 2 10 12
M  V30 12 1 10 13
M  V30 13 1 13 14
M  V30 14 2 14 15
M  V30 15 1 14 16
M  V30 16 1 15 17
M  V30 17 2 16 18
M  V30 18 1 17 19
M  V30 19 2 17 20
M  V30 20 1 19 21
M  V30 21 1 19 22
M  V30 22 1 20 23
M  V30 23 2 21 24
M  V30 24 1 21 25
M  V30 25 1 22 26
M  V30 26 1 25 27
M  V30 27 1 25 28
M  V30 28 1 26 29
M  V30 29 1 27 30
M  V30 30 2 29 31
M  V30 31 2 30 32
M  V30 32 1 32 33
M  V30 33 1 33 34
M  V30 34 2 34 35
M  V30 35 1 34 36
M  V30 36 1 35 37
M  V30 37 2 36 38
M  V30 38 2 37 39
M  V30 39 1 39 40
M  V30 40 1 9 11
M  V30 41 1 18 20
M  V30 42 2 26 27
M  V30 43 1 31 32
M  V30 44 1 38 39
M  V30 END BOND
M  V30 END CTAB
M  END
>  <Molecule Name>
Compound 777

>  <Molecule Name 2>
Compound 777

>  <Compound ID>
222

>  <Name>
GNF-7

>  <Uniprot>
Q9HBH9

>  <Target>
MKNK2

>  <Smiles>
CC1=CC=C(NC2=NC=C3CN(C4=CC(NC(=O)C5=CC=CC(C(F)(F)F)=C5)=CC=C4C)C(=O)N(C)C3=N2)C=N1

>  <Kd (nM)>


>  <Assay (Kd)>


>  <Ki (nM)>


>  <Assay (Ki)>


>  <IC50 (nM)>


>  <Assay (IC50)>


>  <EC50 (nM)>


>  <Assay (EC50)>


>  <Article DOI>


>  <Molecular Weight>
547.541

>  <Exact Mass>
547.1943577

>  <XLogP3>
4.33

>  <Heavy Atom Count>
40

>  <Ring Count>
5

>  <Hydrogen Bond Acceptor Count>
6

>  <Hydrogen Bond Donor Count>
2

>  <Rotatable Bond Count>
5

>  <Topological Polar Surface Area>
103.35

>  <Molecular Formula>
C28H24F3N7O2

>  <InChI>
InChI=1S/C28H24F3N7O2/c1-16-7-9-21(34-25(39)18-5-4-6-20(11-18)28(29,30)31)12-23(16)38-15-19-13-33-26(36-24(19)37(3)27(38)40)35-22-10-8-17(2)32-14-22/h4-14H,15H2,1-3H3,(H,34,39)(H,33,35,36)

>  <InChI Key>
SZNYUUZOQHNEKB-UHFFFAOYSA-N

>  <BindingDB>
50323777

>  <PubChem>
11478363

>  <ChEMBL>
CHEMBL1214141

$$$$
222
Actelion Java MolfileCreator 2.0

  0  0  0  0  0  0              0 V3000
M  V30 BEGIN CTAB
M  V30 COUNTS 40 44 0 0 0
M  V30 BEGIN ATOM
M  V30 1 F 2.4641 2.5 0.0 0
M  V30 2 C 3.4641 2.5 0.0 0
M  V30 3 F 3.4641 3.5 0.0 0
M  V30 4 F 4.4641 2.5 0.0 0
M  V30 5 C 3.4641 1.5 0.0 0
M  V30 6 C 2.598 1.0 0.0 0
M  V30 7 C 4.3301 1.0 0.0 0
M  V30 8 C 2.598 0.0 0.0 0
M  V30 9 C 4.3301 0.0 0.0 0
M  V30 10 C 1.732 -0.5 0.0 0
M  V30 11 C 3.4641 -0.4999 0.0 0
M  V30 12 O 1.732 -1.5 0.0 0
M  V30 13 N 0.866 0.0 0.0 0
M  V30 14 C 0.0 -0.5 0.0 0
M  V30 15 C -0.866 0.0 0.0 0
M  V30 16 C 0.0 -1.4999 0.0 0
M  V30 17 C -1.732 -0.4999 0.0 0
M  V30 18 C -0.866 -1.9999 0.0 0
M  V30 19 N -2.598 0.0 0.0 0
M  V30 20 C -1.732 -1.4999 0.0 0
M  V30 21 C -2.598 1.0 0.0 0
M  V30 22 C -3.4641 -0.4999 0.0 0
M  V30 23 C -2.598 -1.9999 0.0 0
M  V30 24 O -1.732 1.5 0.0 0
M  V30 25 N -3.4641 1.5 0.0 0
M  V30 26 C -4.3301 0.0 0.0 0
M  V30 27 C -4.3301 1.0 0.0 0
M  V30 28 C -3.4641 2.5 0.0 0
M  V30 29 C -5.1961 -0.4999 0.0 0
M  V30 30 N -5.1961 1.5 0.0 0
M  V30 31 N -6.0621 0.0 0.0 0
M  V30 32 C -6.0621 1.0 0.0 0
M  V30 33 N -6.9282 1.5 0.0 0
M  V30 34 C -7.7942 1.0 0.0 0
M  V30 35 C -8.6602 1.5 0.0 0
M  V30 36 C -7.7942 0.0 0.0 0
M  V30 37 N -9.5262 1.0 0.0 0
M  V30 38 C -8.6602 -0.4999 0.0 0
M  V30 39 C -9.5262 0.0 0.0 0
M  V30 40 C -10.3923 -0.4999 0.0 0
M  V30 END ATOM
M  V30 BEGIN BOND
M  V30 1 1 1 2
M  V30 2 1 2 3
M  V30 3 1 2 4
M  V30 4 1 2 5
M  V30 5 2 5 6
M  V30 6 1 5 7
M  V30 7 1 6 8
M  V30 8 2 7 9
M  V30 9 1 8 10
M  V30 10 2 8 11
M  V30 11 2 10 12
M  V30 12 1 10 13
M  V30 13 1 13 14
M  V30 14 2 14 15
M  V30 15 1 14 16
M  V30 16 1 15 17
M  V30 17 2 16 18
M  V30 18 1 17 19
M  V30 19 2 17 20
M  V30 20 1 19 21
M  V30 21 1 19 22
M  V30 22 1 20 23
M  V30 23 2 21 24
M  V30 24 1 21 25
M  V30 25 1 22 26
M  V30 26 1 25 27
M  V30 27 1 25 28
M  V30 28 1 26 29
M  V30 29 1 27 30
M  V30 30 2 29 31
M  V30 31 2 30 32
M  V30 32 1 32 33
M  V30 33 1 33 34
M  V30 34 2 34 35
M  V30 35 1 34 36
M  V30 36 1 35 37
M  V30 37 2 36 38
M  V30 38 2 37 39
M  V30 39 1 39 40
M  V30 40 1 9 11
M  V30 41 1 18 20
M  V30 42 2 26 27
M  V30 43 1 31 32
M  V30 44 1 38 39
M  V30 END BOND
M  V30 END CTAB
M  END
>  <Molecule Name>
Compound 778

>  <Molecule Name 2>
Compound 778

>  <Compound ID>
222

>  <Name>
GNF-7

>  <Uniprot>
Q9UBE8

>  <Target>
NLK

>  <Smiles>
CC1=CC=C(NC2=NC=C3CN(C4=CC(NC(=O)C5=CC=CC(C(F)(F)F)=C5)=CC=C4C)C(=O)N(C)C3=N2)C=N1

>  <Kd (nM)>


>  <Assay (Kd)>


>  <Ki (nM)>


>  <Assay (Ki)>


>  <IC50 (nM)>


>  <Assay (IC50)>


>  <EC50 (nM)>


>  <Assay (EC50)>


>  <Article DOI>


>  <Molecular Weight>
547.541

>  <Exact Mass>
547.1943577

>  <XLogP3>
4.33

>  <Heavy Atom Count>
40

>  <Ring Count>
5

>  <Hydrogen Bond Acceptor Count>
6

>  <Hydrogen Bond Donor Count>
2

>  <Rotatable Bond Count>
5

>  <Topological Polar Surface Area>
103.35

>  <Molecular Formula>
C28H24F3N7O2

>  <InChI>
InChI=1S/C28H24F3N7O2/c1-16-7-9-21(34-25(39)18-5-4-6-20(11-18)28(29,30)31)12-23(16)38-15-19-13-33-26(36-24(19)37(3)27(38)40)35-22-10-8-17(2)32-14-22/h4-14H,15H2,1-3H3,(H,34,39)(H,33,35,36)

>  <InChI Key>
SZNYUUZOQHNEKB-UHFFFAOYSA-N

>  <BindingDB>
50323777

>  <PubChem>
11478363

>  <ChEMBL>
CHEMBL1214141

$$$$
222
Actelion Java MolfileCreator 2.0

  0  0  0  0  0  0              0 V3000
M  V30 BEGIN CTAB
M  V30 COUNTS 40 44 0 0 0
M  V30 BEGIN ATOM
M  V30 1 F 2.4641 2.5 0.0 0
M  V30 2 C 3.4641 2.5 0.0 0
M  V30 3 F 3.4641 3.5 0.0 0
M  V30 4 F 4.4641 2.5 0.0 0
M  V30 5 C 3.4641 1.5 0.0 0
M  V30 6 C 2.598 1.0 0.0 0
M  V30 7 C 4.3301 1.0 0.0 0
M  V30 8 C 2.598 0.0 0.0 0
M  V30 9 C 4.3301 0.0 0.0 0
M  V30 10 C 1.732 -0.5 0.0 0
M  V30 11 C 3.4641 -0.4999 0.0 0
M  V30 12 O 1.732 -1.5 0.0 0
M  V30 13 N 0.866 0.0 0.0 0
M  V30 14 C 0.0 -0.5 0.0 0
M  V30 15 C -0.866 0.0 0.0 0
M  V30 16 C 0.0 -1.4999 0.0 0
M  V30 17 C -1.732 -0.4999 0.0 0
M  V30 18 C -0.866 -1.9999 0.0 0
M  V30 19 N -2.598 0.0 0.0 0
M  V30 20 C -1.732 -1.4999 0.0 0
M  V30 21 C -2.598 1.0 0.0 0
M  V30 22 C -3.4641 -0.4999 0.0 0
M  V30 23 C -2.598 -1.9999 0.0 0
M  V30 24 O -1.732 1.5 0.0 0
M  V30 25 N -3.4641 1.5 0.0 0
M  V30 26 C -4.3301 0.0 0.0 0
M  V30 27 C -4.3301 1.0 0.0 0
M  V30 28 C -3.4641 2.5 0.0 0
M  V30 29 C -5.1961 -0.4999 0.0 0
M  V30 30 N -5.1961 1.5 0.0 0
M  V30 31 N -6.0621 0.0 0.0 0
M  V30 32 C -6.0621 1.0 0.0 0
M  V30 33 N -6.9282 1.5 0.0 0
M  V30 34 C -7.7942 1.0 0.0 0
M  V30 35 C -8.6602 1.5 0.0 0
M  V30 36 C -7.7942 0.0 0.0 0
M  V30 37 N -9.5262 1.0 0.0 0
M  V30 38 C -8.6602 -0.4999 0.0 0
M  V30 39 C -9.5262 0.0 0.0 0
M  V30 40 C -10.3923 -0.4999 0.0 0
M  V30 END ATOM
M  V30 BEGIN BOND
M  V30 1 1 1 2
M  V30 2 1 2 3
M  V30 3 1 2 4
M  V30 4 1 2 5
M  V30 5 2 5 6
M  V30 6 1 5 7
M  V30 7 1 6 8
M  V30 8 2 7 9
M  V30 9 1 8 10
M  V30 10 2 8 11
M  V30 11 2 10 12
M  V30 12 1 10 13
M  V30 13 1 13 14
M  V30 14 2 14 15
M  V30 15 1 14 16
M  V30 16 1 15 17
M  V30 17 2 16 18
M  V30 18 1 17 19
M  V30 19 2 17 20
M  V30 20 1 19 21
M  V30 21 1 19 22
M  V30 22 1 20 23
M  V30 23 2 21 24
M  V30 24 1 21 25
M  V30 25 1 22 26
M  V30 26 1 25 27
M  V30 27 1 25 28
M  V30 28 1 26 29
M  V30 29 1 27 30
M  V30 30 2 29 31
M  V30 31 2 30 32
M  V30 32 1 32 33
M  V30 33 1 33 34
M  V30 34 2 34 35
M  V30 35 1 34 36
M  V30 36 1 35 37
M  V30 37 2 36 38
M  V30 38 2 37 39
M  V30 39 1 39 40
M  V30 40 1 9 11
M  V30 41 1 18 20
M  V30 42 2 26 27
M  V30 43 1 31 32
M  V30 44 1 38 39
M  V30 END BOND
M  V30 END CTAB
M  END
>  <Molecule Name>
Compound 779

>  <Molecule Name 2>
Compound 779

>  <Compound ID>
222

>  <Name>
GNF-7

>  <Uniprot>
Q16539

>  <Target>
p38alpha

>  <Smiles>
CC1=CC=C(NC2=NC=C3CN(C4=CC(NC(=O)C5=CC=CC(C(F)(F)F)=C5)=CC=C4C)C(=O)N(C)C3=N2)C=N1

>  <Kd (nM)>


>  <Assay (Kd)>


>  <Ki (nM)>


>  <Assay (Ki)>


>  <IC50 (nM)>


>  <Assay (IC50)>


>  <EC50 (nM)>


>  <Assay (EC50)>


>  <Article DOI>


>  <Molecular Weight>
547.541

>  <Exact Mass>
547.1943577

>  <XLogP3>
4.33

>  <Heavy Atom Count>
40

>  <Ring Count>
5

>  <Hydrogen Bond Acceptor Count>
6

>  <Hydrogen Bond Donor Count>
2

>  <Rotatable Bond Count>
5

>  <Topological Polar Surface Area>
103.35

>  <Molecular Formula>
C28H24F3N7O2

>  <InChI>
InChI=1S/C28H24F3N7O2/c1-16-7-9-21(34-25(39)18-5-4-6-20(11-18)28(29,30)31)12-23(16)38-15-19-13-33-26(36-24(19)37(3)27(38)40)35-22-10-8-17(2)32-14-22/h4-14H,15H2,1-3H3,(H,34,39)(H,33,35,36)

>  <InChI Key>
SZNYUUZOQHNEKB-UHFFFAOYSA-N

>  <BindingDB>
50323777

>  <PubChem>
11478363

>  <ChEMBL>
CHEMBL1214141

$$$$
222
Actelion Java MolfileCreator 2.0

  0  0  0  0  0  0              0 V3000
M  V30 BEGIN CTAB
M  V30 COUNTS 40 44 0 0 0
M  V30 BEGIN ATOM
M  V30 1 F 2.4641 2.5 0.0 0
M  V30 2 C 3.4641 2.5 0.0 0
M  V30 3 F 3.4641 3.5 0.0 0
M  V30 4 F 4.4641 2.5 0.0 0
M  V30 5 C 3.4641 1.5 0.0 0
M  V30 6 C 2.598 1.0 0.0 0
M  V30 7 C 4.3301 1.0 0.0 0
M  V30 8 C 2.598 0.0 0.0 0
M  V30 9 C 4.3301 0.0 0.0 0
M  V30 10 C 1.732 -0.5 0.0 0
M  V30 11 C 3.4641 -0.4999 0.0 0
M  V30 12 O 1.732 -1.5 0.0 0
M  V30 13 N 0.866 0.0 0.0 0
M  V30 14 C 0.0 -0.5 0.0 0
M  V30 15 C -0.866 0.0 0.0 0
M  V30 16 C 0.0 -1.4999 0.0 0
M  V30 17 C -1.732 -0.4999 0.0 0
M  V30 18 C -0.866 -1.9999 0.0 0
M  V30 19 N -2.598 0.0 0.0 0
M  V30 20 C -1.732 -1.4999 0.0 0
M  V30 21 C -2.598 1.0 0.0 0
M  V30 22 C -3.4641 -0.4999 0.0 0
M  V30 23 C -2.598 -1.9999 0.0 0
M  V30 24 O -1.732 1.5 0.0 0
M  V30 25 N -3.4641 1.5 0.0 0
M  V30 26 C -4.3301 0.0 0.0 0
M  V30 27 C -4.3301 1.0 0.0 0
M  V30 28 C -3.4641 2.5 0.0 0
M  V30 29 C -5.1961 -0.4999 0.0 0
M  V30 30 N -5.1961 1.5 0.0 0
M  V30 31 N -6.0621 0.0 0.0 0
M  V30 32 C -6.0621 1.0 0.0 0
M  V30 33 N -6.9282 1.5 0.0 0
M  V30 34 C -7.7942 1.0 0.0 0
M  V30 35 C -8.6602 1.5 0.0 0
M  V30 36 C -7.7942 0.0 0.0 0
M  V30 37 N -9.5262 1.0 0.0 0
M  V30 38 C -8.6602 -0.4999 0.0 0
M  V30 39 C -9.5262 0.0 0.0 0
M  V30 40 C -10.3923 -0.4999 0.0 0
M  V30 END ATOM
M  V30 BEGIN BOND
M  V30 1 1 1 2
M  V30 2 1 2 3
M  V30 3 1 2 4
M  V30 4 1 2 5
M  V30 5 2 5 6
M  V30 6 1 5 7
M  V30 7 1 6 8
M  V30 8 2 7 9
M  V30 9 1 8 10
M  V30 10 2 8 11
M  V30 11 2 10 12
M  V30 12 1 10 13
M  V30 13 1 13 14
M  V30 14 2 14 15
M  V30 15 1 14 16
M  V30 16 1 15 17
M  V30 17 2 16 18
M  V30 18 1 17 19
M  V30 19 2 17 20
M  V30 20 1 19 21
M  V30 21 1 19 22
M  V30 22 1 20 23
M  V30 23 2 21 24
M  V30 24 1 21 25
M  V30 25 1 22 26
M  V30 26 1 25 27
M  V30 27 1 25 28
M  V30 28 1 26 29
M  V30 29 1 27 30
M  V30 30 2 29 31
M  V30 31 2 30 32
M  V30 32 1 32 33
M  V30 33 1 33 34
M  V30 34 2 34 35
M  V30 35 1 34 36
M  V30 36 1 35 37
M  V30 37 2 36 38
M  V30 38 2 37 39
M  V30 39 1 39 40
M  V30 40 1 9 11
M  V30 41 1 18 20
M  V30 42 2 26 27
M  V30 43 1 31 32
M  V30 44 1 38 39
M  V30 END BOND
M  V30 END CTAB
M  END
>  <Molecule Name>
Compound 780

>  <Molecule Name 2>
Compound 780

>  <Compound ID>
222

>  <Name>
GNF-7

>  <Uniprot>
Q15759

>  <Target>
p38beta

>  <Smiles>
CC1=CC=C(NC2=NC=C3CN(C4=CC(NC(=O)C5=CC=CC(C(F)(F)F)=C5)=CC=C4C)C(=O)N(C)C3=N2)C=N1

>  <Kd (nM)>


>  <Assay (Kd)>


>  <Ki (nM)>


>  <Assay (Ki)>


>  <IC50 (nM)>


>  <Assay (IC50)>


>  <EC50 (nM)>


>  <Assay (EC50)>


>  <Article DOI>


>  <Molecular Weight>
547.541

>  <Exact Mass>
547.1943577

>  <XLogP3>
4.33

>  <Heavy Atom Count>
40

>  <Ring Count>
5

>  <Hydrogen Bond Acceptor Count>
6

>  <Hydrogen Bond Donor Count>
2

>  <Rotatable Bond Count>
5

>  <Topological Polar Surface Area>
103.35

>  <Molecular Formula>
C28H24F3N7O2

>  <InChI>
InChI=1S/C28H24F3N7O2/c1-16-7-9-21(34-25(39)18-5-4-6-20(11-18)28(29,30)31)12-23(16)38-15-19-13-33-26(36-24(19)37(3)27(38)40)35-22-10-8-17(2)32-14-22/h4-14H,15H2,1-3H3,(H,34,39)(H,33,35,36)

>  <InChI Key>
SZNYUUZOQHNEKB-UHFFFAOYSA-N

>  <BindingDB>
50323777

>  <PubChem>
11478363

>  <ChEMBL>
CHEMBL1214141

$$$$
222
Actelion Java MolfileCreator 2.0

  0  0  0  0  0  0              0 V3000
M  V30 BEGIN CTAB
M  V30 COUNTS 40 44 0 0 0
M  V30 BEGIN ATOM
M  V30 1 F 2.4641 2.5 0.0 0
M  V30 2 C 3.4641 2.5 0.0 0
M  V30 3 F 3.4641 3.5 0.0 0
M  V30 4 F 4.4641 2.5 0.0 0
M  V30 5 C 3.4641 1.5 0.0 0
M  V30 6 C 2.598 1.0 0.0 0
M  V30 7 C 4.3301 1.0 0.0 0
M  V30 8 C 2.598 0.0 0.0 0
M  V30 9 C 4.3301 0.0 0.0 0
M  V30 10 C 1.732 -0.5 0.0 0
M  V30 11 C 3.4641 -0.4999 0.0 0
M  V30 12 O 1.732 -1.5 0.0 0
M  V30 13 N 0.866 0.0 0.0 0
M  V30 14 C 0.0 -0.5 0.0 0
M  V30 15 C -0.866 0.0 0.0 0
M  V30 16 C 0.0 -1.4999 0.0 0
M  V30 17 C -1.732 -0.4999 0.0 0
M  V30 18 C -0.866 -1.9999 0.0 0
M  V30 19 N -2.598 0.0 0.0 0
M  V30 20 C -1.732 -1.4999 0.0 0
M  V30 21 C -2.598 1.0 0.0 0
M  V30 22 C -3.4641 -0.4999 0.0 0
M  V30 23 C -2.598 -1.9999 0.0 0
M  V30 24 O -1.732 1.5 0.0 0
M  V30 25 N -3.4641 1.5 0.0 0
M  V30 26 C -4.3301 0.0 0.0 0
M  V30 27 C -4.3301 1.0 0.0 0
M  V30 28 C -3.4641 2.5 0.0 0
M  V30 29 C -5.1961 -0.4999 0.0 0
M  V30 30 N -5.1961 1.5 0.0 0
M  V30 31 N -6.0621 0.0 0.0 0
M  V30 32 C -6.0621 1.0 0.0 0
M  V30 33 N -6.9282 1.5 0.0 0
M  V30 34 C -7.7942 1.0 0.0 0
M  V30 35 C -8.6602 1.5 0.0 0
M  V30 36 C -7.7942 0.0 0.0 0
M  V30 37 N -9.5262 1.0 0.0 0
M  V30 38 C -8.6602 -0.4999 0.0 0
M  V30 39 C -9.5262 0.0 0.0 0
M  V30 40 C -10.3923 -0.4999 0.0 0
M  V30 END ATOM
M  V30 BEGIN BOND
M  V30 1 1 1 2
M  V30 2 1 2 3
M  V30 3 1 2 4
M  V30 4 1 2 5
M  V30 5 2 5 6
M  V30 6 1 5 7
M  V30 7 1 6 8
M  V30 8 2 7 9
M  V30 9 1 8 10
M  V30 10 2 8 11
M  V30 11 2 10 12
M  V30 12 1 10 13
M  V30 13 1 13 14
M  V30 14 2 14 15
M  V30 15 1 14 16
M  V30 16 1 15 17
M  V30 17 2 16 18
M  V30 18 1 17 19
M  V30 19 2 17 20
M  V30 20 1 19 21
M  V30 21 1 19 22
M  V30 22 1 20 23
M  V30 23 2 21 24
M  V30 24 1 21 25
M  V30 25 1 22 26
M  V30 26 1 25 27
M  V30 27 1 25 28
M  V30 28 1 26 29
M  V30 29 1 27 30
M  V30 30 2 29 31
M  V30 31 2 30 32
M  V30 32 1 32 33
M  V30 33 1 33 34
M  V30 34 2 34 35
M  V30 35 1 34 36
M  V30 36 1 35 37
M  V30 37 2 36 38
M  V30 38 2 37 39
M  V30 39 1 39 40
M  V30 40 1 9 11
M  V30 41 1 18 20
M  V30 42 2 26 27
M  V30 43 1 31 32
M  V30 44 1 38 39
M  V30 END BOND
M  V30 END CTAB
M  END
>  <Molecule Name>
Compound 781

>  <Molecule Name 2>
Compound 781

>  <Compound ID>
222

>  <Name>
GNF-7

>  <Uniprot>
O96013

>  <Target>
PAK4

>  <Smiles>
CC1=CC=C(NC2=NC=C3CN(C4=CC(NC(=O)C5=CC=CC(C(F)(F)F)=C5)=CC=C4C)C(=O)N(C)C3=N2)C=N1

>  <Kd (nM)>


>  <Assay (Kd)>


>  <Ki (nM)>


>  <Assay (Ki)>


>  <IC50 (nM)>


>  <Assay (IC50)>


>  <EC50 (nM)>


>  <Assay (EC50)>


>  <Article DOI>


>  <Molecular Weight>
547.541

>  <Exact Mass>
547.1943577

>  <XLogP3>
4.33

>  <Heavy Atom Count>
40

>  <Ring Count>
5

>  <Hydrogen Bond Acceptor Count>
6

>  <Hydrogen Bond Donor Count>
2

>  <Rotatable Bond Count>
5

>  <Topological Polar Surface Area>
103.35

>  <Molecular Formula>
C28H24F3N7O2

>  <InChI>
InChI=1S/C28H24F3N7O2/c1-16-7-9-21(34-25(39)18-5-4-6-20(11-18)28(29,30)31)12-23(16)38-15-19-13-33-26(36-24(19)37(3)27(38)40)35-22-10-8-17(2)32-14-22/h4-14H,15H2,1-3H3,(H,34,39)(H,33,35,36)

>  <InChI Key>
SZNYUUZOQHNEKB-UHFFFAOYSA-N

>  <BindingDB>
50323777

>  <PubChem>
11478363

>  <ChEMBL>
CHEMBL1214141

$$$$
222
Actelion Java MolfileCreator 2.0

  0  0  0  0  0  0              0 V3000
M  V30 BEGIN CTAB
M  V30 COUNTS 40 44 0 0 0
M  V30 BEGIN ATOM
M  V30 1 F 2.4641 2.5 0.0 0
M  V30 2 C 3.4641 2.5 0.0 0
M  V30 3 F 3.4641 3.5 0.0 0
M  V30 4 F 4.4641 2.5 0.0 0
M  V30 5 C 3.4641 1.5 0.0 0
M  V30 6 C 2.598 1.0 0.0 0
M  V30 7 C 4.3301 1.0 0.0 0
M  V30 8 C 2.598 0.0 0.0 0
M  V30 9 C 4.3301 0.0 0.0 0
M  V30 10 C 1.732 -0.5 0.0 0
M  V30 11 C 3.4641 -0.4999 0.0 0
M  V30 12 O 1.732 -1.5 0.0 0
M  V30 13 N 0.866 0.0 0.0 0
M  V30 14 C 0.0 -0.5 0.0 0
M  V30 15 C -0.866 0.0 0.0 0
M  V30 16 C 0.0 -1.4999 0.0 0
M  V30 17 C -1.732 -0.4999 0.0 0
M  V30 18 C -0.866 -1.9999 0.0 0
M  V30 19 N -2.598 0.0 0.0 0
M  V30 20 C -1.732 -1.4999 0.0 0
M  V30 21 C -2.598 1.0 0.0 0
M  V30 22 C -3.4641 -0.4999 0.0 0
M  V30 23 C -2.598 -1.9999 0.0 0
M  V30 24 O -1.732 1.5 0.0 0
M  V30 25 N -3.4641 1.5 0.0 0
M  V30 26 C -4.3301 0.0 0.0 0
M  V30 27 C -4.3301 1.0 0.0 0
M  V30 28 C -3.4641 2.5 0.0 0
M  V30 29 C -5.1961 -0.4999 0.0 0
M  V30 30 N -5.1961 1.5 0.0 0
M  V30 31 N -6.0621 0.0 0.0 0
M  V30 32 C -6.0621 1.0 0.0 0
M  V30 33 N -6.9282 1.5 0.0 0
M  V30 34 C -7.7942 1.0 0.0 0
M  V30 35 C -8.6602 1.5 0.0 0
M  V30 36 C -7.7942 0.0 0.0 0
M  V30 37 N -9.5262 1.0 0.0 0
M  V30 38 C -8.6602 -0.4999 0.0 0
M  V30 39 C -9.5262 0.0 0.0 0
M  V30 40 C -10.3923 -0.4999 0.0 0
M  V30 END ATOM
M  V30 BEGIN BOND
M  V30 1 1 1 2
M  V30 2 1 2 3
M  V30 3 1 2 4
M  V30 4 1 2 5
M  V30 5 2 5 6
M  V30 6 1 5 7
M  V30 7 1 6 8
M  V30 8 2 7 9
M  V30 9 1 8 10
M  V30 10 2 8 11
M  V30 11 2 10 12
M  V30 12 1 10 13
M  V30 13 1 13 14
M  V30 14 2 14 15
M  V30 15 1 14 16
M  V30 16 1 15 17
M  V30 17 2 16 18
M  V30 18 1 17 19
M  V30 19 2 17 20
M  V30 20 1 19 21
M  V30 21 1 19 22
M  V30 22 1 20 23
M  V30 23 2 21 24
M  V30 24 1 21 25
M  V30 25 1 22 26
M  V30 26 1 25 27
M  V30 27 1 25 28
M  V30 28 1 26 29
M  V30 29 1 27 30
M  V30 30 2 29 31
M  V30 31 2 30 32
M  V30 32 1 32 33
M  V30 33 1 33 34
M  V30 34 2 34 35
M  V30 35 1 34 36
M  V30 36 1 35 37
M  V30 37 2 36 38
M  V30 38 2 37 39
M  V30 39 1 39 40
M  V30 40 1 9 11
M  V30 41 1 18 20
M  V30 42 2 26 27
M  V30 43 1 31 32
M  V30 44 1 38 39
M  V30 END BOND
M  V30 END CTAB
M  END
>  <Molecule Name>
Compound 782

>  <Molecule Name 2>
Compound 782

>  <Compound ID>
222

>  <Name>
GNF-7

>  <Uniprot>
Q8N165

>  <Target>
PDIK1L

>  <Smiles>
CC1=CC=C(NC2=NC=C3CN(C4=CC(NC(=O)C5=CC=CC(C(F)(F)F)=C5)=CC=C4C)C(=O)N(C)C3=N2)C=N1

>  <Kd (nM)>


>  <Assay (Kd)>


>  <Ki (nM)>


>  <Assay (Ki)>


>  <IC50 (nM)>


>  <Assay (IC50)>


>  <EC50 (nM)>


>  <Assay (EC50)>


>  <Article DOI>


>  <Molecular Weight>
547.541

>  <Exact Mass>
547.1943577

>  <XLogP3>
4.33

>  <Heavy Atom Count>
40

>  <Ring Count>
5

>  <Hydrogen Bond Acceptor Count>
6

>  <Hydrogen Bond Donor Count>
2

>  <Rotatable Bond Count>
5

>  <Topological Polar Surface Area>
103.35

>  <Molecular Formula>
C28H24F3N7O2

>  <InChI>
InChI=1S/C28H24F3N7O2/c1-16-7-9-21(34-25(39)18-5-4-6-20(11-18)28(29,30)31)12-23(16)38-15-19-13-33-26(36-24(19)37(3)27(38)40)35-22-10-8-17(2)32-14-22/h4-14H,15H2,1-3H3,(H,34,39)(H,33,35,36)

>  <InChI Key>
SZNYUUZOQHNEKB-UHFFFAOYSA-N

>  <BindingDB>
50323777

>  <PubChem>
11478363

>  <ChEMBL>
CHEMBL1214141

$$$$
222
Actelion Java MolfileCreator 2.0

  0  0  0  0  0  0              0 V3000
M  V30 BEGIN CTAB
M  V30 COUNTS 40 44 0 0 0
M  V30 BEGIN ATOM
M  V30 1 F 2.4641 2.5 0.0 0
M  V30 2 C 3.4641 2.5 0.0 0
M  V30 3 F 3.4641 3.5 0.0 0
M  V30 4 F 4.4641 2.5 0.0 0
M  V30 5 C 3.4641 1.5 0.0 0
M  V30 6 C 2.598 1.0 0.0 0
M  V30 7 C 4.3301 1.0 0.0 0
M  V30 8 C 2.598 0.0 0.0 0
M  V30 9 C 4.3301 0.0 0.0 0
M  V30 10 C 1.732 -0.5 0.0 0
M  V30 11 C 3.4641 -0.4999 0.0 0
M  V30 12 O 1.732 -1.5 0.0 0
M  V30 13 N 0.866 0.0 0.0 0
M  V30 14 C 0.0 -0.5 0.0 0
M  V30 15 C -0.866 0.0 0.0 0
M  V30 16 C 0.0 -1.4999 0.0 0
M  V30 17 C -1.732 -0.4999 0.0 0
M  V30 18 C -0.866 -1.9999 0.0 0
M  V30 19 N -2.598 0.0 0.0 0
M  V30 20 C -1.732 -1.4999 0.0 0
M  V30 21 C -2.598 1.0 0.0 0
M  V30 22 C -3.4641 -0.4999 0.0 0
M  V30 23 C -2.598 -1.9999 0.0 0
M  V30 24 O -1.732 1.5 0.0 0
M  V30 25 N -3.4641 1.5 0.0 0
M  V30 26 C -4.3301 0.0 0.0 0
M  V30 27 C -4.3301 1.0 0.0 0
M  V30 28 C -3.4641 2.5 0.0 0
M  V30 29 C -5.1961 -0.4999 0.0 0
M  V30 30 N -5.1961 1.5 0.0 0
M  V30 31 N -6.0621 0.0 0.0 0
M  V30 32 C -6.0621 1.0 0.0 0
M  V30 33 N -6.9282 1.5 0.0 0
M  V30 34 C -7.7942 1.0 0.0 0
M  V30 35 C -8.6602 1.5 0.0 0
M  V30 36 C -7.7942 0.0 0.0 0
M  V30 37 N -9.5262 1.0 0.0 0
M  V30 38 C -8.6602 -0.4999 0.0 0
M  V30 39 C -9.5262 0.0 0.0 0
M  V30 40 C -10.3923 -0.4999 0.0 0
M  V30 END ATOM
M  V30 BEGIN BOND
M  V30 1 1 1 2
M  V30 2 1 2 3
M  V30 3 1 2 4
M  V30 4 1 2 5
M  V30 5 2 5 6
M  V30 6 1 5 7
M  V30 7 1 6 8
M  V30 8 2 7 9
M  V30 9 1 8 10
M  V30 10 2 8 11
M  V30 11 2 10 12
M  V30 12 1 10 13
M  V30 13 1 13 14
M  V30 14 2 14 15
M  V30 15 1 14 16
M  V30 16 1 15 17
M  V30 17 2 16 18
M  V30 18 1 17 19
M  V30 19 2 17 20
M  V30 20 1 19 21
M  V30 21 1 19 22
M  V30 22 1 20 23
M  V30 23 2 21 24
M  V30 24 1 21 25
M  V30 25 1 22 26
M  V30 26 1 25 27
M  V30 27 1 25 28
M  V30 28 1 26 29
M  V30 29 1 27 30
M  V30 30 2 29 31
M  V30 31 2 30 32
M  V30 32 1 32 33
M  V30 33 1 33 34
M  V30 34 2 34 35
M  V30 35 1 34 36
M  V30 36 1 35 37
M  V30 37 2 36 38
M  V30 38 2 37 39
M  V30 39 1 39 40
M  V30 40 1 9 11
M  V30 41 1 18 20
M  V30 42 2 26 27
M  V30 43 1 31 32
M  V30 44 1 38 39
M  V30 END BOND
M  V30 END CTAB
M  END
>  <Molecule Name>
Compound 783

>  <Molecule Name 2>
Compound 783

>  <Compound ID>
222

>  <Name>
GNF-7

>  <Uniprot>
P53350

>  <Target>
PLK1

>  <Smiles>
CC1=CC=C(NC2=NC=C3CN(C4=CC(NC(=O)C5=CC=CC(C(F)(F)F)=C5)=CC=C4C)C(=O)N(C)C3=N2)C=N1

>  <Kd (nM)>


>  <Assay (Kd)>


>  <Ki (nM)>


>  <Assay (Ki)>


>  <IC50 (nM)>


>  <Assay (IC50)>


>  <EC50 (nM)>


>  <Assay (EC50)>


>  <Article DOI>


>  <Molecular Weight>
547.541

>  <Exact Mass>
547.1943577

>  <XLogP3>
4.33

>  <Heavy Atom Count>
40

>  <Ring Count>
5

>  <Hydrogen Bond Acceptor Count>
6

>  <Hydrogen Bond Donor Count>
2

>  <Rotatable Bond Count>
5

>  <Topological Polar Surface Area>
103.35

>  <Molecular Formula>
C28H24F3N7O2

>  <InChI>
InChI=1S/C28H24F3N7O2/c1-16-7-9-21(34-25(39)18-5-4-6-20(11-18)28(29,30)31)12-23(16)38-15-19-13-33-26(36-24(19)37(3)27(38)40)35-22-10-8-17(2)32-14-22/h4-14H,15H2,1-3H3,(H,34,39)(H,33,35,36)

>  <InChI Key>
SZNYUUZOQHNEKB-UHFFFAOYSA-N

>  <BindingDB>
50323777

>  <PubChem>
11478363

>  <ChEMBL>
CHEMBL1214141

$$$$
222
Actelion Java MolfileCreator 2.0

  0  0  0  0  0  0              0 V3000
M  V30 BEGIN CTAB
M  V30 COUNTS 40 44 0 0 0
M  V30 BEGIN ATOM
M  V30 1 F 2.4641 2.5 0.0 0
M  V30 2 C 3.4641 2.5 0.0 0
M  V30 3 F 3.4641 3.5 0.0 0
M  V30 4 F 4.4641 2.5 0.0 0
M  V30 5 C 3.4641 1.5 0.0 0
M  V30 6 C 2.598 1.0 0.0 0
M  V30 7 C 4.3301 1.0 0.0 0
M  V30 8 C 2.598 0.0 0.0 0
M  V30 9 C 4.3301 0.0 0.0 0
M  V30 10 C 1.732 -0.5 0.0 0
M  V30 11 C 3.4641 -0.4999 0.0 0
M  V30 12 O 1.732 -1.5 0.0 0
M  V30 13 N 0.866 0.0 0.0 0
M  V30 14 C 0.0 -0.5 0.0 0
M  V30 15 C -0.866 0.0 0.0 0
M  V30 16 C 0.0 -1.4999 0.0 0
M  V30 17 C -1.732 -0.4999 0.0 0
M  V30 18 C -0.866 -1.9999 0.0 0
M  V30 19 N -2.598 0.0 0.0 0
M  V30 20 C -1.732 -1.4999 0.0 0
M  V30 21 C -2.598 1.0 0.0 0
M  V30 22 C -3.4641 -0.4999 0.0 0
M  V30 23 C -2.598 -1.9999 0.0 0
M  V30 24 O -1.732 1.5 0.0 0
M  V30 25 N -3.4641 1.5 0.0 0
M  V30 26 C -4.3301 0.0 0.0 0
M  V30 27 C -4.3301 1.0 0.0 0
M  V30 28 C -3.4641 2.5 0.0 0
M  V30 29 C -5.1961 -0.4999 0.0 0
M  V30 30 N -5.1961 1.5 0.0 0
M  V30 31 N -6.0621 0.0 0.0 0
M  V30 32 C -6.0621 1.0 0.0 0
M  V30 33 N -6.9282 1.5 0.0 0
M  V30 34 C -7.7942 1.0 0.0 0
M  V30 35 C -8.6602 1.5 0.0 0
M  V30 36 C -7.7942 0.0 0.0 0
M  V30 37 N -9.5262 1.0 0.0 0
M  V30 38 C -8.6602 -0.4999 0.0 0
M  V30 39 C -9.5262 0.0 0.0 0
M  V30 40 C -10.3923 -0.4999 0.0 0
M  V30 END ATOM
M  V30 BEGIN BOND
M  V30 1 1 1 2
M  V30 2 1 2 3
M  V30 3 1 2 4
M  V30 4 1 2 5
M  V30 5 2 5 6
M  V30 6 1 5 7
M  V30 7 1 6 8
M  V30 8 2 7 9
M  V30 9 1 8 10
M  V30 10 2 8 11
M  V30 11 2 10 12
M  V30 12 1 10 13
M  V30 13 1 13 14
M  V30 14 2 14 15
M  V30 15 1 14 16
M  V30 16 1 15 17
M  V30 17 2 16 18
M  V30 18 1 17 19
M  V30 19 2 17 20
M  V30 20 1 19 21
M  V30 21 1 19 22
M  V30 22 1 20 23
M  V30 23 2 21 24
M  V30 24 1 21 25
M  V30 25 1 22 26
M  V30 26 1 25 27
M  V30 27 1 25 28
M  V30 28 1 26 29
M  V30 29 1 27 30
M  V30 30 2 29 31
M  V30 31 2 30 32
M  V30 32 1 32 33
M  V30 33 1 33 34
M  V30 34 2 34 35
M  V30 35 1 34 36
M  V30 36 1 35 37
M  V30 37 2 36 38
M  V30 38 2 37 39
M  V30 39 1 39 40
M  V30 40 1 9 11
M  V30 41 1 18 20
M  V30 42 2 26 27
M  V30 43 1 31 32
M  V30 44 1 38 39
M  V30 END BOND
M  V30 END CTAB
M  END
>  <Molecule Name>
Compound 784

>  <Molecule Name 2>
Compound 784

>  <Compound ID>
222

>  <Name>
GNF-7

>  <Uniprot>
Q14289

>  <Target>
PTK2B

>  <Smiles>
CC1=CC=C(NC2=NC=C3CN(C4=CC(NC(=O)C5=CC=CC(C(F)(F)F)=C5)=CC=C4C)C(=O)N(C)C3=N2)C=N1

>  <Kd (nM)>


>  <Assay (Kd)>


>  <Ki (nM)>


>  <Assay (Ki)>


>  <IC50 (nM)>


>  <Assay (IC50)>


>  <EC50 (nM)>


>  <Assay (EC50)>


>  <Article DOI>


>  <Molecular Weight>
547.541

>  <Exact Mass>
547.1943577

>  <XLogP3>
4.33

>  <Heavy Atom Count>
40

>  <Ring Count>
5

>  <Hydrogen Bond Acceptor Count>
6

>  <Hydrogen Bond Donor Count>
2

>  <Rotatable Bond Count>
5

>  <Topological Polar Surface Area>
103.35

>  <Molecular Formula>
C28H24F3N7O2

>  <InChI>
InChI=1S/C28H24F3N7O2/c1-16-7-9-21(34-25(39)18-5-4-6-20(11-18)28(29,30)31)12-23(16)38-15-19-13-33-26(36-24(19)37(3)27(38)40)35-22-10-8-17(2)32-14-22/h4-14H,15H2,1-3H3,(H,34,39)(H,33,35,36)

>  <InChI Key>
SZNYUUZOQHNEKB-UHFFFAOYSA-N

>  <BindingDB>
50323777

>  <PubChem>
11478363

>  <ChEMBL>
CHEMBL1214141

$$$$
222
Actelion Java MolfileCreator 2.0

  0  0  0  0  0  0              0 V3000
M  V30 BEGIN CTAB
M  V30 COUNTS 40 44 0 0 0
M  V30 BEGIN ATOM
M  V30 1 F 2.4641 2.5 0.0 0
M  V30 2 C 3.4641 2.5 0.0 0
M  V30 3 F 3.4641 3.5 0.0 0
M  V30 4 F 4.4641 2.5 0.0 0
M  V30 5 C 3.4641 1.5 0.0 0
M  V30 6 C 2.598 1.0 0.0 0
M  V30 7 C 4.3301 1.0 0.0 0
M  V30 8 C 2.598 0.0 0.0 0
M  V30 9 C 4.3301 0.0 0.0 0
M  V30 10 C 1.732 -0.5 0.0 0
M  V30 11 C 3.4641 -0.4999 0.0 0
M  V30 12 O 1.732 -1.5 0.0 0
M  V30 13 N 0.866 0.0 0.0 0
M  V30 14 C 0.0 -0.5 0.0 0
M  V30 15 C -0.866 0.0 0.0 0
M  V30 16 C 0.0 -1.4999 0.0 0
M  V30 17 C -1.732 -0.4999 0.0 0
M  V30 18 C -0.866 -1.9999 0.0 0
M  V30 19 N -2.598 0.0 0.0 0
M  V30 20 C -1.732 -1.4999 0.0 0
M  V30 21 C -2.598 1.0 0.0 0
M  V30 22 C -3.4641 -0.4999 0.0 0
M  V30 23 C -2.598 -1.9999 0.0 0
M  V30 24 O -1.732 1.5 0.0 0
M  V30 25 N -3.4641 1.5 0.0 0
M  V30 26 C -4.3301 0.0 0.0 0
M  V30 27 C -4.3301 1.0 0.0 0
M  V30 28 C -3.4641 2.5 0.0 0
M  V30 29 C -5.1961 -0.4999 0.0 0
M  V30 30 N -5.1961 1.5 0.0 0
M  V30 31 N -6.0621 0.0 0.0 0
M  V30 32 C -6.0621 1.0 0.0 0
M  V30 33 N -6.9282 1.5 0.0 0
M  V30 34 C -7.7942 1.0 0.0 0
M  V30 35 C -8.6602 1.5 0.0 0
M  V30 36 C -7.7942 0.0 0.0 0
M  V30 37 N -9.5262 1.0 0.0 0
M  V30 38 C -8.6602 -0.4999 0.0 0
M  V30 39 C -9.5262 0.0 0.0 0
M  V30 40 C -10.3923 -0.4999 0.0 0
M  V30 END ATOM
M  V30 BEGIN BOND
M  V30 1 1 1 2
M  V30 2 1 2 3
M  V30 3 1 2 4
M  V30 4 1 2 5
M  V30 5 2 5 6
M  V30 6 1 5 7
M  V30 7 1 6 8
M  V30 8 2 7 9
M  V30 9 1 8 10
M  V30 10 2 8 11
M  V30 11 2 10 12
M  V30 12 1 10 13
M  V30 13 1 13 14
M  V30 14 2 14 15
M  V30 15 1 14 16
M  V30 16 1 15 17
M  V30 17 2 16 18
M  V30 18 1 17 19
M  V30 19 2 17 20
M  V30 20 1 19 21
M  V30 21 1 19 22
M  V30 22 1 20 23
M  V30 23 2 21 24
M  V30 24 1 21 25
M  V30 25 1 22 26
M  V30 26 1 25 27
M  V30 27 1 25 28
M  V30 28 1 26 29
M  V30 29 1 27 30
M  V30 30 2 29 31
M  V30 31 2 30 32
M  V30 32 1 32 33
M  V30 33 1 33 34
M  V30 34 2 34 35
M  V30 35 1 34 36
M  V30 36 1 35 37
M  V30 37 2 36 38
M  V30 38 2 37 39
M  V30 39 1 39 40
M  V30 40 1 9 11
M  V30 41 1 18 20
M  V30 42 2 26 27
M  V30 43 1 31 32
M  V30 44 1 38 39
M  V30 END BOND
M  V30 END CTAB
M  END
>  <Molecule Name>
Compound 785

>  <Molecule Name 2>
Compound 785

>  <Compound ID>
222

>  <Name>
GNF-7

>  <Uniprot>
Q13546

>  <Target>
RIPK1

>  <Smiles>
CC1=CC=C(NC2=NC=C3CN(C4=CC(NC(=O)C5=CC=CC(C(F)(F)F)=C5)=CC=C4C)C(=O)N(C)C3=N2)C=N1

>  <Kd (nM)>


>  <Assay (Kd)>


>  <Ki (nM)>


>  <Assay (Ki)>


>  <IC50 (nM)>


>  <Assay (IC50)>


>  <EC50 (nM)>


>  <Assay (EC50)>


>  <Article DOI>


>  <Molecular Weight>
547.541

>  <Exact Mass>
547.1943577

>  <XLogP3>
4.33

>  <Heavy Atom Count>
40

>  <Ring Count>
5

>  <Hydrogen Bond Acceptor Count>
6

>  <Hydrogen Bond Donor Count>
2

>  <Rotatable Bond Count>
5

>  <Topological Polar Surface Area>
103.35

>  <Molecular Formula>
C28H24F3N7O2

>  <InChI>
InChI=1S/C28H24F3N7O2/c1-16-7-9-21(34-25(39)18-5-4-6-20(11-18)28(29,30)31)12-23(16)38-15-19-13-33-26(36-24(19)37(3)27(38)40)35-22-10-8-17(2)32-14-22/h4-14H,15H2,1-3H3,(H,34,39)(H,33,35,36)

>  <InChI Key>
SZNYUUZOQHNEKB-UHFFFAOYSA-N

>  <BindingDB>
50323777

>  <PubChem>
11478363

>  <ChEMBL>
CHEMBL1214141

$$$$
222
Actelion Java MolfileCreator 2.0

  0  0  0  0  0  0              0 V3000
M  V30 BEGIN CTAB
M  V30 COUNTS 40 44 0 0 0
M  V30 BEGIN ATOM
M  V30 1 F 2.4641 2.5 0.0 0
M  V30 2 C 3.4641 2.5 0.0 0
M  V30 3 F 3.4641 3.5 0.0 0
M  V30 4 F 4.4641 2.5 0.0 0
M  V30 5 C 3.4641 1.5 0.0 0
M  V30 6 C 2.598 1.0 0.0 0
M  V30 7 C 4.3301 1.0 0.0 0
M  V30 8 C 2.598 0.0 0.0 0
M  V30 9 C 4.3301 0.0 0.0 0
M  V30 10 C 1.732 -0.5 0.0 0
M  V30 11 C 3.4641 -0.4999 0.0 0
M  V30 12 O 1.732 -1.5 0.0 0
M  V30 13 N 0.866 0.0 0.0 0
M  V30 14 C 0.0 -0.5 0.0 0
M  V30 15 C -0.866 0.0 0.0 0
M  V30 16 C 0.0 -1.4999 0.0 0
M  V30 17 C -1.732 -0.4999 0.0 0
M  V30 18 C -0.866 -1.9999 0.0 0
M  V30 19 N -2.598 0.0 0.0 0
M  V30 20 C -1.732 -1.4999 0.0 0
M  V30 21 C -2.598 1.0 0.0 0
M  V30 22 C -3.4641 -0.4999 0.0 0
M  V30 23 C -2.598 -1.9999 0.0 0
M  V30 24 O -1.732 1.5 0.0 0
M  V30 25 N -3.4641 1.5 0.0 0
M  V30 26 C -4.3301 0.0 0.0 0
M  V30 27 C -4.3301 1.0 0.0 0
M  V30 28 C -3.4641 2.5 0.0 0
M  V30 29 C -5.1961 -0.4999 0.0 0
M  V30 30 N -5.1961 1.5 0.0 0
M  V30 31 N -6.0621 0.0 0.0 0
M  V30 32 C -6.0621 1.0 0.0 0
M  V30 33 N -6.9282 1.5 0.0 0
M  V30 34 C -7.7942 1.0 0.0 0
M  V30 35 C -8.6602 1.5 0.0 0
M  V30 36 C -7.7942 0.0 0.0 0
M  V30 37 N -9.5262 1.0 0.0 0
M  V30 38 C -8.6602 -0.4999 0.0 0
M  V30 39 C -9.5262 0.0 0.0 0
M  V30 40 C -10.3923 -0.4999 0.0 0
M  V30 END ATOM
M  V30 BEGIN BOND
M  V30 1 1 1 2
M  V30 2 1 2 3
M  V30 3 1 2 4
M  V30 4 1 2 5
M  V30 5 2 5 6
M  V30 6 1 5 7
M  V30 7 1 6 8
M  V30 8 2 7 9
M  V30 9 1 8 10
M  V30 10 2 8 11
M  V30 11 2 10 12
M  V30 12 1 10 13
M  V30 13 1 13 14
M  V30 14 2 14 15
M  V30 15 1 14 16
M  V30 16 1 15 17
M  V30 17 2 16 18
M  V30 18 1 17 19
M  V30 19 2 17 20
M  V30 20 1 19 21
M  V30 21 1 19 22
M  V30 22 1 20 23
M  V30 23 2 21 24
M  V30 24 1 21 25
M  V30 25 1 22 26
M  V30 26 1 25 27
M  V30 27 1 25 28
M  V30 28 1 26 29
M  V30 29 1 27 30
M  V30 30 2 29 31
M  V30 31 2 30 32
M  V30 32 1 32 33
M  V30 33 1 33 34
M  V30 34 2 34 35
M  V30 35 1 34 36
M  V30 36 1 35 37
M  V30 37 2 36 38
M  V30 38 2 37 39
M  V30 39 1 39 40
M  V30 40 1 9 11
M  V30 41 1 18 20
M  V30 42 2 26 27
M  V30 43 1 31 32
M  V30 44 1 38 39
M  V30 END BOND
M  V30 END CTAB
M  END
>  <Molecule Name>
Compound 786

>  <Molecule Name 2>
Compound 786

>  <Compound ID>
222

>  <Name>
GNF-7

>  <Uniprot>
O43353

>  <Target>
RIPK2

>  <Smiles>
CC1=CC=C(NC2=NC=C3CN(C4=CC(NC(=O)C5=CC=CC(C(F)(F)F)=C5)=CC=C4C)C(=O)N(C)C3=N2)C=N1

>  <Kd (nM)>


>  <Assay (Kd)>


>  <Ki (nM)>


>  <Assay (Ki)>


>  <IC50 (nM)>


>  <Assay (IC50)>


>  <EC50 (nM)>


>  <Assay (EC50)>


>  <Article DOI>


>  <Molecular Weight>
547.541

>  <Exact Mass>
547.1943577

>  <XLogP3>
4.33

>  <Heavy Atom Count>
40

>  <Ring Count>
5

>  <Hydrogen Bond Acceptor Count>
6

>  <Hydrogen Bond Donor Count>
2

>  <Rotatable Bond Count>
5

>  <Topological Polar Surface Area>
103.35

>  <Molecular Formula>
C28H24F3N7O2

>  <InChI>
InChI=1S/C28H24F3N7O2/c1-16-7-9-21(34-25(39)18-5-4-6-20(11-18)28(29,30)31)12-23(16)38-15-19-13-33-26(36-24(19)37(3)27(38)40)35-22-10-8-17(2)32-14-22/h4-14H,15H2,1-3H3,(H,34,39)(H,33,35,36)

>  <InChI Key>
SZNYUUZOQHNEKB-UHFFFAOYSA-N

>  <BindingDB>
50323777

>  <PubChem>
11478363

>  <ChEMBL>
CHEMBL1214141

$$$$
222
Actelion Java MolfileCreator 2.0

  0  0  0  0  0  0              0 V3000
M  V30 BEGIN CTAB
M  V30 COUNTS 40 44 0 0 0
M  V30 BEGIN ATOM
M  V30 1 F 2.4641 2.5 0.0 0
M  V30 2 C 3.4641 2.5 0.0 0
M  V30 3 F 3.4641 3.5 0.0 0
M  V30 4 F 4.4641 2.5 0.0 0
M  V30 5 C 3.4641 1.5 0.0 0
M  V30 6 C 2.598 1.0 0.0 0
M  V30 7 C 4.3301 1.0 0.0 0
M  V30 8 C 2.598 0.0 0.0 0
M  V30 9 C 4.3301 0.0 0.0 0
M  V30 10 C 1.732 -0.5 0.0 0
M  V30 11 C 3.4641 -0.4999 0.0 0
M  V30 12 O 1.732 -1.5 0.0 0
M  V30 13 N 0.866 0.0 0.0 0
M  V30 14 C 0.0 -0.5 0.0 0
M  V30 15 C -0.866 0.0 0.0 0
M  V30 16 C 0.0 -1.4999 0.0 0
M  V30 17 C -1.732 -0.4999 0.0 0
M  V30 18 C -0.866 -1.9999 0.0 0
M  V30 19 N -2.598 0.0 0.0 0
M  V30 20 C -1.732 -1.4999 0.0 0
M  V30 21 C -2.598 1.0 0.0 0
M  V30 22 C -3.4641 -0.4999 0.0 0
M  V30 23 C -2.598 -1.9999 0.0 0
M  V30 24 O -1.732 1.5 0.0 0
M  V30 25 N -3.4641 1.5 0.0 0
M  V30 26 C -4.3301 0.0 0.0 0
M  V30 27 C -4.3301 1.0 0.0 0
M  V30 28 C -3.4641 2.5 0.0 0
M  V30 29 C -5.1961 -0.4999 0.0 0
M  V30 30 N -5.1961 1.5 0.0 0
M  V30 31 N -6.0621 0.0 0.0 0
M  V30 32 C -6.0621 1.0 0.0 0
M  V30 33 N -6.9282 1.5 0.0 0
M  V30 34 C -7.7942 1.0 0.0 0
M  V30 35 C -8.6602 1.5 0.0 0
M  V30 36 C -7.7942 0.0 0.0 0
M  V30 37 N -9.5262 1.0 0.0 0
M  V30 38 C -8.6602 -0.4999 0.0 0
M  V30 39 C -9.5262 0.0 0.0 0
M  V30 40 C -10.3923 -0.4999 0.0 0
M  V30 END ATOM
M  V30 BEGIN BOND
M  V30 1 1 1 2
M  V30 2 1 2 3
M  V30 3 1 2 4
M  V30 4 1 2 5
M  V30 5 2 5 6
M  V30 6 1 5 7
M  V30 7 1 6 8
M  V30 8 2 7 9
M  V30 9 1 8 10
M  V30 10 2 8 11
M  V30 11 2 10 12
M  V30 12 1 10 13
M  V30 13 1 13 14
M  V30 14 2 14 15
M  V30 15 1 14 16
M  V30 16 1 15 17
M  V30 17 2 16 18
M  V30 18 1 17 19
M  V30 19 2 17 20
M  V30 20 1 19 21
M  V30 21 1 19 22
M  V30 22 1 20 23
M  V30 23 2 21 24
M  V30 24 1 21 25
M  V30 25 1 22 26
M  V30 26 1 25 27
M  V30 27 1 25 28
M  V30 28 1 26 29
M  V30 29 1 27 30
M  V30 30 2 29 31
M  V30 31 2 30 32
M  V30 32 1 32 33
M  V30 33 1 33 34
M  V30 34 2 34 35
M  V30 35 1 34 36
M  V30 36 1 35 37
M  V30 37 2 36 38
M  V30 38 2 37 39
M  V30 39 1 39 40
M  V30 40 1 9 11
M  V30 41 1 18 20
M  V30 42 2 26 27
M  V30 43 1 31 32
M  V30 44 1 38 39
M  V30 END BOND
M  V30 END CTAB
M  END
>  <Molecule Name>
Compound 787

>  <Molecule Name 2>
Compound 787

>  <Compound ID>
222

>  <Name>
GNF-7

>  <Uniprot>
Q15418

>  <Target>
RPS6KA1

>  <Smiles>
CC1=CC=C(NC2=NC=C3CN(C4=CC(NC(=O)C5=CC=CC(C(F)(F)F)=C5)=CC=C4C)C(=O)N(C)C3=N2)C=N1

>  <Kd (nM)>


>  <Assay (Kd)>


>  <Ki (nM)>


>  <Assay (Ki)>


>  <IC50 (nM)>


>  <Assay (IC50)>


>  <EC50 (nM)>


>  <Assay (EC50)>


>  <Article DOI>


>  <Molecular Weight>
547.541

>  <Exact Mass>
547.1943577

>  <XLogP3>
4.33

>  <Heavy Atom Count>
40

>  <Ring Count>
5

>  <Hydrogen Bond Acceptor Count>
6

>  <Hydrogen Bond Donor Count>
2

>  <Rotatable Bond Count>
5

>  <Topological Polar Surface Area>
103.35

>  <Molecular Formula>
C28H24F3N7O2

>  <InChI>
InChI=1S/C28H24F3N7O2/c1-16-7-9-21(34-25(39)18-5-4-6-20(11-18)28(29,30)31)12-23(16)38-15-19-13-33-26(36-24(19)37(3)27(38)40)35-22-10-8-17(2)32-14-22/h4-14H,15H2,1-3H3,(H,34,39)(H,33,35,36)

>  <InChI Key>
SZNYUUZOQHNEKB-UHFFFAOYSA-N

>  <BindingDB>
50323777

>  <PubChem>
11478363

>  <ChEMBL>
CHEMBL1214141

$$$$
222
Actelion Java MolfileCreator 2.0

  0  0  0  0  0  0              0 V3000
M  V30 BEGIN CTAB
M  V30 COUNTS 40 44 0 0 0
M  V30 BEGIN ATOM
M  V30 1 F 2.4641 2.5 0.0 0
M  V30 2 C 3.4641 2.5 0.0 0
M  V30 3 F 3.4641 3.5 0.0 0
M  V30 4 F 4.4641 2.5 0.0 0
M  V30 5 C 3.4641 1.5 0.0 0
M  V30 6 C 2.598 1.0 0.0 0
M  V30 7 C 4.3301 1.0 0.0 0
M  V30 8 C 2.598 0.0 0.0 0
M  V30 9 C 4.3301 0.0 0.0 0
M  V30 10 C 1.732 -0.5 0.0 0
M  V30 11 C 3.4641 -0.4999 0.0 0
M  V30 12 O 1.732 -1.5 0.0 0
M  V30 13 N 0.866 0.0 0.0 0
M  V30 14 C 0.0 -0.5 0.0 0
M  V30 15 C -0.866 0.0 0.0 0
M  V30 16 C 0.0 -1.4999 0.0 0
M  V30 17 C -1.732 -0.4999 0.0 0
M  V30 18 C -0.866 -1.9999 0.0 0
M  V30 19 N -2.598 0.0 0.0 0
M  V30 20 C -1.732 -1.4999 0.0 0
M  V30 21 C -2.598 1.0 0.0 0
M  V30 22 C -3.4641 -0.4999 0.0 0
M  V30 23 C -2.598 -1.9999 0.0 0
M  V30 24 O -1.732 1.5 0.0 0
M  V30 25 N -3.4641 1.5 0.0 0
M  V30 26 C -4.3301 0.0 0.0 0
M  V30 27 C -4.3301 1.0 0.0 0
M  V30 28 C -3.4641 2.5 0.0 0
M  V30 29 C -5.1961 -0.4999 0.0 0
M  V30 30 N -5.1961 1.5 0.0 0
M  V30 31 N -6.0621 0.0 0.0 0
M  V30 32 C -6.0621 1.0 0.0 0
M  V30 33 N -6.9282 1.5 0.0 0
M  V30 34 C -7.7942 1.0 0.0 0
M  V30 35 C -8.6602 1.5 0.0 0
M  V30 36 C -7.7942 0.0 0.0 0
M  V30 37 N -9.5262 1.0 0.0 0
M  V30 38 C -8.6602 -0.4999 0.0 0
M  V30 39 C -9.5262 0.0 0.0 0
M  V30 40 C -10.3923 -0.4999 0.0 0
M  V30 END ATOM
M  V30 BEGIN BOND
M  V30 1 1 1 2
M  V30 2 1 2 3
M  V30 3 1 2 4
M  V30 4 1 2 5
M  V30 5 2 5 6
M  V30 6 1 5 7
M  V30 7 1 6 8
M  V30 8 2 7 9
M  V30 9 1 8 10
M  V30 10 2 8 11
M  V30 11 2 10 12
M  V30 12 1 10 13
M  V30 13 1 13 14
M  V30 14 2 14 15
M  V30 15 1 14 16
M  V30 16 1 15 17
M  V30 17 2 16 18
M  V30 18 1 17 19
M  V30 19 2 17 20
M  V30 20 1 19 21
M  V30 21 1 19 22
M  V30 22 1 20 23
M  V30 23 2 21 24
M  V30 24 1 21 25
M  V30 25 1 22 26
M  V30 26 1 25 27
M  V30 27 1 25 28
M  V30 28 1 26 29
M  V30 29 1 27 30
M  V30 30 2 29 31
M  V30 31 2 30 32
M  V30 32 1 32 33
M  V30 33 1 33 34
M  V30 34 2 34 35
M  V30 35 1 34 36
M  V30 36 1 35 37
M  V30 37 2 36 38
M  V30 38 2 37 39
M  V30 39 1 39 40
M  V30 40 1 9 11
M  V30 41 1 18 20
M  V30 42 2 26 27
M  V30 43 1 31 32
M  V30 44 1 38 39
M  V30 END BOND
M  V30 END CTAB
M  END
>  <Molecule Name>
Compound 788

>  <Molecule Name 2>
Compound 788

>  <Compound ID>
222

>  <Name>
GNF-7

>  <Uniprot>
P51812

>  <Target>
RPS6KA3

>  <Smiles>
CC1=CC=C(NC2=NC=C3CN(C4=CC(NC(=O)C5=CC=CC(C(F)(F)F)=C5)=CC=C4C)C(=O)N(C)C3=N2)C=N1

>  <Kd (nM)>


>  <Assay (Kd)>


>  <Ki (nM)>


>  <Assay (Ki)>


>  <IC50 (nM)>


>  <Assay (IC50)>


>  <EC50 (nM)>


>  <Assay (EC50)>


>  <Article DOI>


>  <Molecular Weight>
547.541

>  <Exact Mass>
547.1943577

>  <XLogP3>
4.33

>  <Heavy Atom Count>
40

>  <Ring Count>
5

>  <Hydrogen Bond Acceptor Count>
6

>  <Hydrogen Bond Donor Count>
2

>  <Rotatable Bond Count>
5

>  <Topological Polar Surface Area>
103.35

>  <Molecular Formula>
C28H24F3N7O2

>  <InChI>
InChI=1S/C28H24F3N7O2/c1-16-7-9-21(34-25(39)18-5-4-6-20(11-18)28(29,30)31)12-23(16)38-15-19-13-33-26(36-24(19)37(3)27(38)40)35-22-10-8-17(2)32-14-22/h4-14H,15H2,1-3H3,(H,34,39)(H,33,35,36)

>  <InChI Key>
SZNYUUZOQHNEKB-UHFFFAOYSA-N

>  <BindingDB>
50323777

>  <PubChem>
11478363

>  <ChEMBL>
CHEMBL1214141

$$$$
222
Actelion Java MolfileCreator 2.0

  0  0  0  0  0  0              0 V3000
M  V30 BEGIN CTAB
M  V30 COUNTS 40 44 0 0 0
M  V30 BEGIN ATOM
M  V30 1 F 2.4641 2.5 0.0 0
M  V30 2 C 3.4641 2.5 0.0 0
M  V30 3 F 3.4641 3.5 0.0 0
M  V30 4 F 4.4641 2.5 0.0 0
M  V30 5 C 3.4641 1.5 0.0 0
M  V30 6 C 2.598 1.0 0.0 0
M  V30 7 C 4.3301 1.0 0.0 0
M  V30 8 C 2.598 0.0 0.0 0
M  V30 9 C 4.3301 0.0 0.0 0
M  V30 10 C 1.732 -0.5 0.0 0
M  V30 11 C 3.4641 -0.4999 0.0 0
M  V30 12 O 1.732 -1.5 0.0 0
M  V30 13 N 0.866 0.0 0.0 0
M  V30 14 C 0.0 -0.5 0.0 0
M  V30 15 C -0.866 0.0 0.0 0
M  V30 16 C 0.0 -1.4999 0.0 0
M  V30 17 C -1.732 -0.4999 0.0 0
M  V30 18 C -0.866 -1.9999 0.0 0
M  V30 19 N -2.598 0.0 0.0 0
M  V30 20 C -1.732 -1.4999 0.0 0
M  V30 21 C -2.598 1.0 0.0 0
M  V30 22 C -3.4641 -0.4999 0.0 0
M  V30 23 C -2.598 -1.9999 0.0 0
M  V30 24 O -1.732 1.5 0.0 0
M  V30 25 N -3.4641 1.5 0.0 0
M  V30 26 C -4.3301 0.0 0.0 0
M  V30 27 C -4.3301 1.0 0.0 0
M  V30 28 C -3.4641 2.5 0.0 0
M  V30 29 C -5.1961 -0.4999 0.0 0
M  V30 30 N -5.1961 1.5 0.0 0
M  V30 31 N -6.0621 0.0 0.0 0
M  V30 32 C -6.0621 1.0 0.0 0
M  V30 33 N -6.9282 1.5 0.0 0
M  V30 34 C -7.7942 1.0 0.0 0
M  V30 35 C -8.6602 1.5 0.0 0
M  V30 36 C -7.7942 0.0 0.0 0
M  V30 37 N -9.5262 1.0 0.0 0
M  V30 38 C -8.6602 -0.4999 0.0 0
M  V30 39 C -9.5262 0.0 0.0 0
M  V30 40 C -10.3923 -0.4999 0.0 0
M  V30 END ATOM
M  V30 BEGIN BOND
M  V30 1 1 1 2
M  V30 2 1 2 3
M  V30 3 1 2 4
M  V30 4 1 2 5
M  V30 5 2 5 6
M  V30 6 1 5 7
M  V30 7 1 6 8
M  V30 8 2 7 9
M  V30 9 1 8 10
M  V30 10 2 8 11
M  V30 11 2 10 12
M  V30 12 1 10 13
M  V30 13 1 13 14
M  V30 14 2 14 15
M  V30 15 1 14 16
M  V30 16 1 15 17
M  V30 17 2 16 18
M  V30 18 1 17 19
M  V30 19 2 17 20
M  V30 20 1 19 21
M  V30 21 1 19 22
M  V30 22 1 20 23
M  V30 23 2 21 24
M  V30 24 1 21 25
M  V30 25 1 22 26
M  V30 26 1 25 27
M  V30 27 1 25 28
M  V30 28 1 26 29
M  V30 29 1 27 30
M  V30 30 2 29 31
M  V30 31 2 30 32
M  V30 32 1 32 33
M  V30 33 1 33 34
M  V30 34 2 34 35
M  V30 35 1 34 36
M  V30 36 1 35 37
M  V30 37 2 36 38
M  V30 38 2 37 39
M  V30 39 1 39 40
M  V30 40 1 9 11
M  V30 41 1 18 20
M  V30 42 2 26 27
M  V30 43 1 31 32
M  V30 44 1 38 39
M  V30 END BOND
M  V30 END CTAB
M  END
>  <Molecule Name>
Compound 789

>  <Molecule Name 2>
Compound 789

>  <Compound ID>
222

>  <Name>
GNF-7

>  <Uniprot>
Q9H0K1

>  <Target>
SIK2

>  <Smiles>
CC1=CC=C(NC2=NC=C3CN(C4=CC(NC(=O)C5=CC=CC(C(F)(F)F)=C5)=CC=C4C)C(=O)N(C)C3=N2)C=N1

>  <Kd (nM)>


>  <Assay (Kd)>


>  <Ki (nM)>


>  <Assay (Ki)>


>  <IC50 (nM)>


>  <Assay (IC50)>


>  <EC50 (nM)>


>  <Assay (EC50)>


>  <Article DOI>


>  <Molecular Weight>
547.541

>  <Exact Mass>
547.1943577

>  <XLogP3>
4.33

>  <Heavy Atom Count>
40

>  <Ring Count>
5

>  <Hydrogen Bond Acceptor Count>
6

>  <Hydrogen Bond Donor Count>
2

>  <Rotatable Bond Count>
5

>  <Topological Polar Surface Area>
103.35

>  <Molecular Formula>
C28H24F3N7O2

>  <InChI>
InChI=1S/C28H24F3N7O2/c1-16-7-9-21(34-25(39)18-5-4-6-20(11-18)28(29,30)31)12-23(16)38-15-19-13-33-26(36-24(19)37(3)27(38)40)35-22-10-8-17(2)32-14-22/h4-14H,15H2,1-3H3,(H,34,39)(H,33,35,36)

>  <InChI Key>
SZNYUUZOQHNEKB-UHFFFAOYSA-N

>  <BindingDB>
50323777

>  <PubChem>
11478363

>  <ChEMBL>
CHEMBL1214141

$$$$
222
Actelion Java MolfileCreator 2.0

  0  0  0  0  0  0              0 V3000
M  V30 BEGIN CTAB
M  V30 COUNTS 40 44 0 0 0
M  V30 BEGIN ATOM
M  V30 1 F 2.4641 2.5 0.0 0
M  V30 2 C 3.4641 2.5 0.0 0
M  V30 3 F 3.4641 3.5 0.0 0
M  V30 4 F 4.4641 2.5 0.0 0
M  V30 5 C 3.4641 1.5 0.0 0
M  V30 6 C 2.598 1.0 0.0 0
M  V30 7 C 4.3301 1.0 0.0 0
M  V30 8 C 2.598 0.0 0.0 0
M  V30 9 C 4.3301 0.0 0.0 0
M  V30 10 C 1.732 -0.5 0.0 0
M  V30 11 C 3.4641 -0.4999 0.0 0
M  V30 12 O 1.732 -1.5 0.0 0
M  V30 13 N 0.866 0.0 0.0 0
M  V30 14 C 0.0 -0.5 0.0 0
M  V30 15 C -0.866 0.0 0.0 0
M  V30 16 C 0.0 -1.4999 0.0 0
M  V30 17 C -1.732 -0.4999 0.0 0
M  V30 18 C -0.866 -1.9999 0.0 0
M  V30 19 N -2.598 0.0 0.0 0
M  V30 20 C -1.732 -1.4999 0.0 0
M  V30 21 C -2.598 1.0 0.0 0
M  V30 22 C -3.4641 -0.4999 0.0 0
M  V30 23 C -2.598 -1.9999 0.0 0
M  V30 24 O -1.732 1.5 0.0 0
M  V30 25 N -3.4641 1.5 0.0 0
M  V30 26 C -4.3301 0.0 0.0 0
M  V30 27 C -4.3301 1.0 0.0 0
M  V30 28 C -3.4641 2.5 0.0 0
M  V30 29 C -5.1961 -0.4999 0.0 0
M  V30 30 N -5.1961 1.5 0.0 0
M  V30 31 N -6.0621 0.0 0.0 0
M  V30 32 C -6.0621 1.0 0.0 0
M  V30 33 N -6.9282 1.5 0.0 0
M  V30 34 C -7.7942 1.0 0.0 0
M  V30 35 C -8.6602 1.5 0.0 0
M  V30 36 C -7.7942 0.0 0.0 0
M  V30 37 N -9.5262 1.0 0.0 0
M  V30 38 C -8.6602 -0.4999 0.0 0
M  V30 39 C -9.5262 0.0 0.0 0
M  V30 40 C -10.3923 -0.4999 0.0 0
M  V30 END ATOM
M  V30 BEGIN BOND
M  V30 1 1 1 2
M  V30 2 1 2 3
M  V30 3 1 2 4
M  V30 4 1 2 5
M  V30 5 2 5 6
M  V30 6 1 5 7
M  V30 7 1 6 8
M  V30 8 2 7 9
M  V30 9 1 8 10
M  V30 10 2 8 11
M  V30 11 2 10 12
M  V30 12 1 10 13
M  V30 13 1 13 14
M  V30 14 2 14 15
M  V30 15 1 14 16
M  V30 16 1 15 17
M  V30 17 2 16 18
M  V30 18 1 17 19
M  V30 19 2 17 20
M  V30 20 1 19 21
M  V30 21 1 19 22
M  V30 22 1 20 23
M  V30 23 2 21 24
M  V30 24 1 21 25
M  V30 25 1 22 26
M  V30 26 1 25 27
M  V30 27 1 25 28
M  V30 28 1 26 29
M  V30 29 1 27 30
M  V30 30 2 29 31
M  V30 31 2 30 32
M  V30 32 1 32 33
M  V30 33 1 33 34
M  V30 34 2 34 35
M  V30 35 1 34 36
M  V30 36 1 35 37
M  V30 37 2 36 38
M  V30 38 2 37 39
M  V30 39 1 39 40
M  V30 40 1 9 11
M  V30 41 1 18 20
M  V30 42 2 26 27
M  V30 43 1 31 32
M  V30 44 1 38 39
M  V30 END BOND
M  V30 END CTAB
M  END
>  <Molecule Name>
Compound 790

>  <Molecule Name 2>
Compound 790

>  <Compound ID>
222

>  <Name>
GNF-7

>  <Uniprot>
Q9Y2K2

>  <Target>
SIK3

>  <Smiles>
CC1=CC=C(NC2=NC=C3CN(C4=CC(NC(=O)C5=CC=CC(C(F)(F)F)=C5)=CC=C4C)C(=O)N(C)C3=N2)C=N1

>  <Kd (nM)>


>  <Assay (Kd)>


>  <Ki (nM)>


>  <Assay (Ki)>


>  <IC50 (nM)>


>  <Assay (IC50)>


>  <EC50 (nM)>


>  <Assay (EC50)>


>  <Article DOI>


>  <Molecular Weight>
547.541

>  <Exact Mass>
547.1943577

>  <XLogP3>
4.33

>  <Heavy Atom Count>
40

>  <Ring Count>
5

>  <Hydrogen Bond Acceptor Count>
6

>  <Hydrogen Bond Donor Count>
2

>  <Rotatable Bond Count>
5

>  <Topological Polar Surface Area>
103.35

>  <Molecular Formula>
C28H24F3N7O2

>  <InChI>
InChI=1S/C28H24F3N7O2/c1-16-7-9-21(34-25(39)18-5-4-6-20(11-18)28(29,30)31)12-23(16)38-15-19-13-33-26(36-24(19)37(3)27(38)40)35-22-10-8-17(2)32-14-22/h4-14H,15H2,1-3H3,(H,34,39)(H,33,35,36)

>  <InChI Key>
SZNYUUZOQHNEKB-UHFFFAOYSA-N

>  <BindingDB>
50323777

>  <PubChem>
11478363

>  <ChEMBL>
CHEMBL1214141

$$$$
222
Actelion Java MolfileCreator 2.0

  0  0  0  0  0  0              0 V3000
M  V30 BEGIN CTAB
M  V30 COUNTS 40 44 0 0 0
M  V30 BEGIN ATOM
M  V30 1 F 2.4641 2.5 0.0 0
M  V30 2 C 3.4641 2.5 0.0 0
M  V30 3 F 3.4641 3.5 0.0 0
M  V30 4 F 4.4641 2.5 0.0 0
M  V30 5 C 3.4641 1.5 0.0 0
M  V30 6 C 2.598 1.0 0.0 0
M  V30 7 C 4.3301 1.0 0.0 0
M  V30 8 C 2.598 0.0 0.0 0
M  V30 9 C 4.3301 0.0 0.0 0
M  V30 10 C 1.732 -0.5 0.0 0
M  V30 11 C 3.4641 -0.4999 0.0 0
M  V30 12 O 1.732 -1.5 0.0 0
M  V30 13 N 0.866 0.0 0.0 0
M  V30 14 C 0.0 -0.5 0.0 0
M  V30 15 C -0.866 0.0 0.0 0
M  V30 16 C 0.0 -1.4999 0.0 0
M  V30 17 C -1.732 -0.4999 0.0 0
M  V30 18 C -0.866 -1.9999 0.0 0
M  V30 19 N -2.598 0.0 0.0 0
M  V30 20 C -1.732 -1.4999 0.0 0
M  V30 21 C -2.598 1.0 0.0 0
M  V30 22 C -3.4641 -0.4999 0.0 0
M  V30 23 C -2.598 -1.9999 0.0 0
M  V30 24 O -1.732 1.5 0.0 0
M  V30 25 N -3.4641 1.5 0.0 0
M  V30 26 C -4.3301 0.0 0.0 0
M  V30 27 C -4.3301 1.0 0.0 0
M  V30 28 C -3.4641 2.5 0.0 0
M  V30 29 C -5.1961 -0.4999 0.0 0
M  V30 30 N -5.1961 1.5 0.0 0
M  V30 31 N -6.0621 0.0 0.0 0
M  V30 32 C -6.0621 1.0 0.0 0
M  V30 33 N -6.9282 1.5 0.0 0
M  V30 34 C -7.7942 1.0 0.0 0
M  V30 35 C -8.6602 1.5 0.0 0
M  V30 36 C -7.7942 0.0 0.0 0
M  V30 37 N -9.5262 1.0 0.0 0
M  V30 38 C -8.6602 -0.4999 0.0 0
M  V30 39 C -9.5262 0.0 0.0 0
M  V30 40 C -10.3923 -0.4999 0.0 0
M  V30 END ATOM
M  V30 BEGIN BOND
M  V30 1 1 1 2
M  V30 2 1 2 3
M  V30 3 1 2 4
M  V30 4 1 2 5
M  V30 5 2 5 6
M  V30 6 1 5 7
M  V30 7 1 6 8
M  V30 8 2 7 9
M  V30 9 1 8 10
M  V30 10 2 8 11
M  V30 11 2 10 12
M  V30 12 1 10 13
M  V30 13 1 13 14
M  V30 14 2 14 15
M  V30 15 1 14 16
M  V30 16 1 15 17
M  V30 17 2 16 18
M  V30 18 1 17 19
M  V30 19 2 17 20
M  V30 20 1 19 21
M  V30 21 1 19 22
M  V30 22 1 20 23
M  V30 23 2 21 24
M  V30 24 1 21 25
M  V30 25 1 22 26
M  V30 26 1 25 27
M  V30 27 1 25 28
M  V30 28 1 26 29
M  V30 29 1 27 30
M  V30 30 2 29 31
M  V30 31 2 30 32
M  V30 32 1 32 33
M  V30 33 1 33 34
M  V30 34 2 34 35
M  V30 35 1 34 36
M  V30 36 1 35 37
M  V30 37 2 36 38
M  V30 38 2 37 39
M  V30 39 1 39 40
M  V30 40 1 9 11
M  V30 41 1 18 20
M  V30 42 2 26 27
M  V30 43 1 31 32
M  V30 44 1 38 39
M  V30 END BOND
M  V30 END CTAB
M  END
>  <Molecule Name>
Compound 791

>  <Molecule Name 2>
Compound 791

>  <Compound ID>
222

>  <Name>
GNF-7

>  <Uniprot>
P12931

>  <Target>
Src

>  <Smiles>
CC1=CC=C(NC2=NC=C3CN(C4=CC(NC(=O)C5=CC=CC(C(F)(F)F)=C5)=CC=C4C)C(=O)N(C)C3=N2)C=N1

>  <Kd (nM)>


>  <Assay (Kd)>


>  <Ki (nM)>


>  <Assay (Ki)>


>  <IC50 (nM)>


>  <Assay (IC50)>


>  <EC50 (nM)>


>  <Assay (EC50)>


>  <Article DOI>


>  <Molecular Weight>
547.541

>  <Exact Mass>
547.1943577

>  <XLogP3>
4.33

>  <Heavy Atom Count>
40

>  <Ring Count>
5

>  <Hydrogen Bond Acceptor Count>
6

>  <Hydrogen Bond Donor Count>
2

>  <Rotatable Bond Count>
5

>  <Topological Polar Surface Area>
103.35

>  <Molecular Formula>
C28H24F3N7O2

>  <InChI>
InChI=1S/C28H24F3N7O2/c1-16-7-9-21(34-25(39)18-5-4-6-20(11-18)28(29,30)31)12-23(16)38-15-19-13-33-26(36-24(19)37(3)27(38)40)35-22-10-8-17(2)32-14-22/h4-14H,15H2,1-3H3,(H,34,39)(H,33,35,36)

>  <InChI Key>
SZNYUUZOQHNEKB-UHFFFAOYSA-N

>  <BindingDB>
50323777

>  <PubChem>
11478363

>  <ChEMBL>
CHEMBL1214141

$$$$
222
Actelion Java MolfileCreator 2.0

  0  0  0  0  0  0              0 V3000
M  V30 BEGIN CTAB
M  V30 COUNTS 40 44 0 0 0
M  V30 BEGIN ATOM
M  V30 1 F 2.4641 2.5 0.0 0
M  V30 2 C 3.4641 2.5 0.0 0
M  V30 3 F 3.4641 3.5 0.0 0
M  V30 4 F 4.4641 2.5 0.0 0
M  V30 5 C 3.4641 1.5 0.0 0
M  V30 6 C 2.598 1.0 0.0 0
M  V30 7 C 4.3301 1.0 0.0 0
M  V30 8 C 2.598 0.0 0.0 0
M  V30 9 C 4.3301 0.0 0.0 0
M  V30 10 C 1.732 -0.5 0.0 0
M  V30 11 C 3.4641 -0.4999 0.0 0
M  V30 12 O 1.732 -1.5 0.0 0
M  V30 13 N 0.866 0.0 0.0 0
M  V30 14 C 0.0 -0.5 0.0 0
M  V30 15 C -0.866 0.0 0.0 0
M  V30 16 C 0.0 -1.4999 0.0 0
M  V30 17 C -1.732 -0.4999 0.0 0
M  V30 18 C -0.866 -1.9999 0.0 0
M  V30 19 N -2.598 0.0 0.0 0
M  V30 20 C -1.732 -1.4999 0.0 0
M  V30 21 C -2.598 1.0 0.0 0
M  V30 22 C -3.4641 -0.4999 0.0 0
M  V30 23 C -2.598 -1.9999 0.0 0
M  V30 24 O -1.732 1.5 0.0 0
M  V30 25 N -3.4641 1.5 0.0 0
M  V30 26 C -4.3301 0.0 0.0 0
M  V30 27 C -4.3301 1.0 0.0 0
M  V30 28 C -3.4641 2.5 0.0 0
M  V30 29 C -5.1961 -0.4999 0.0 0
M  V30 30 N -5.1961 1.5 0.0 0
M  V30 31 N -6.0621 0.0 0.0 0
M  V30 32 C -6.0621 1.0 0.0 0
M  V30 33 N -6.9282 1.5 0.0 0
M  V30 34 C -7.7942 1.0 0.0 0
M  V30 35 C -8.6602 1.5 0.0 0
M  V30 36 C -7.7942 0.0 0.0 0
M  V30 37 N -9.5262 1.0 0.0 0
M  V30 38 C -8.6602 -0.4999 0.0 0
M  V30 39 C -9.5262 0.0 0.0 0
M  V30 40 C -10.3923 -0.4999 0.0 0
M  V30 END ATOM
M  V30 BEGIN BOND
M  V30 1 1 1 2
M  V30 2 1 2 3
M  V30 3 1 2 4
M  V30 4 1 2 5
M  V30 5 2 5 6
M  V30 6 1 5 7
M  V30 7 1 6 8
M  V30 8 2 7 9
M  V30 9 1 8 10
M  V30 10 2 8 11
M  V30 11 2 10 12
M  V30 12 1 10 13
M  V30 13 1 13 14
M  V30 14 2 14 15
M  V30 15 1 14 16
M  V30 16 1 15 17
M  V30 17 2 16 18
M  V30 18 1 17 19
M  V30 19 2 17 20
M  V30 20 1 19 21
M  V30 21 1 19 22
M  V30 22 1 20 23
M  V30 23 2 21 24
M  V30 24 1 21 25
M  V30 25 1 22 26
M  V30 26 1 25 27
M  V30 27 1 25 28
M  V30 28 1 26 29
M  V30 29 1 27 30
M  V30 30 2 29 31
M  V30 31 2 30 32
M  V30 32 1 32 33
M  V30 33 1 33 34
M  V30 34 2 34 35
M  V30 35 1 34 36
M  V30 36 1 35 37
M  V30 37 2 36 38
M  V30 38 2 37 39
M  V30 39 1 39 40
M  V30 40 1 9 11
M  V30 41 1 18 20
M  V30 42 2 26 27
M  V30 43 1 31 32
M  V30 44 1 38 39
M  V30 END BOND
M  V30 END CTAB
M  END
>  <Molecule Name>
Compound 792

>  <Molecule Name 2>
Compound 792

>  <Compound ID>
222

>  <Name>
GNF-7

>  <Uniprot>
Q9UEE5

>  <Target>
STK17A

>  <Smiles>
CC1=CC=C(NC2=NC=C3CN(C4=CC(NC(=O)C5=CC=CC(C(F)(F)F)=C5)=CC=C4C)C(=O)N(C)C3=N2)C=N1

>  <Kd (nM)>


>  <Assay (Kd)>


>  <Ki (nM)>


>  <Assay (Ki)>


>  <IC50 (nM)>


>  <Assay (IC50)>


>  <EC50 (nM)>


>  <Assay (EC50)>


>  <Article DOI>


>  <Molecular Weight>
547.541

>  <Exact Mass>
547.1943577

>  <XLogP3>
4.33

>  <Heavy Atom Count>
40

>  <Ring Count>
5

>  <Hydrogen Bond Acceptor Count>
6

>  <Hydrogen Bond Donor Count>
2

>  <Rotatable Bond Count>
5

>  <Topological Polar Surface Area>
103.35

>  <Molecular Formula>
C28H24F3N7O2

>  <InChI>
InChI=1S/C28H24F3N7O2/c1-16-7-9-21(34-25(39)18-5-4-6-20(11-18)28(29,30)31)12-23(16)38-15-19-13-33-26(36-24(19)37(3)27(38)40)35-22-10-8-17(2)32-14-22/h4-14H,15H2,1-3H3,(H,34,39)(H,33,35,36)

>  <InChI Key>
SZNYUUZOQHNEKB-UHFFFAOYSA-N

>  <BindingDB>
50323777

>  <PubChem>
11478363

>  <ChEMBL>
CHEMBL1214141

$$$$
222
Actelion Java MolfileCreator 2.0

  0  0  0  0  0  0              0 V3000
M  V30 BEGIN CTAB
M  V30 COUNTS 40 44 0 0 0
M  V30 BEGIN ATOM
M  V30 1 F 2.4641 2.5 0.0 0
M  V30 2 C 3.4641 2.5 0.0 0
M  V30 3 F 3.4641 3.5 0.0 0
M  V30 4 F 4.4641 2.5 0.0 0
M  V30 5 C 3.4641 1.5 0.0 0
M  V30 6 C 2.598 1.0 0.0 0
M  V30 7 C 4.3301 1.0 0.0 0
M  V30 8 C 2.598 0.0 0.0 0
M  V30 9 C 4.3301 0.0 0.0 0
M  V30 10 C 1.732 -0.5 0.0 0
M  V30 11 C 3.4641 -0.4999 0.0 0
M  V30 12 O 1.732 -1.5 0.0 0
M  V30 13 N 0.866 0.0 0.0 0
M  V30 14 C 0.0 -0.5 0.0 0
M  V30 15 C -0.866 0.0 0.0 0
M  V30 16 C 0.0 -1.4999 0.0 0
M  V30 17 C -1.732 -0.4999 0.0 0
M  V30 18 C -0.866 -1.9999 0.0 0
M  V30 19 N -2.598 0.0 0.0 0
M  V30 20 C -1.732 -1.4999 0.0 0
M  V30 21 C -2.598 1.0 0.0 0
M  V30 22 C -3.4641 -0.4999 0.0 0
M  V30 23 C -2.598 -1.9999 0.0 0
M  V30 24 O -1.732 1.5 0.0 0
M  V30 25 N -3.4641 1.5 0.0 0
M  V30 26 C -4.3301 0.0 0.0 0
M  V30 27 C -4.3301 1.0 0.0 0
M  V30 28 C -3.4641 2.5 0.0 0
M  V30 29 C -5.1961 -0.4999 0.0 0
M  V30 30 N -5.1961 1.5 0.0 0
M  V30 31 N -6.0621 0.0 0.0 0
M  V30 32 C -6.0621 1.0 0.0 0
M  V30 33 N -6.9282 1.5 0.0 0
M  V30 34 C -7.7942 1.0 0.0 0
M  V30 35 C -8.6602 1.5 0.0 0
M  V30 36 C -7.7942 0.0 0.0 0
M  V30 37 N -9.5262 1.0 0.0 0
M  V30 38 C -8.6602 -0.4999 0.0 0
M  V30 39 C -9.5262 0.0 0.0 0
M  V30 40 C -10.3923 -0.4999 0.0 0
M  V30 END ATOM
M  V30 BEGIN BOND
M  V30 1 1 1 2
M  V30 2 1 2 3
M  V30 3 1 2 4
M  V30 4 1 2 5
M  V30 5 2 5 6
M  V30 6 1 5 7
M  V30 7 1 6 8
M  V30 8 2 7 9
M  V30 9 1 8 10
M  V30 10 2 8 11
M  V30 11 2 10 12
M  V30 12 1 10 13
M  V30 13 1 13 14
M  V30 14 2 14 15
M  V30 15 1 14 16
M  V30 16 1 15 17
M  V30 17 2 16 18
M  V30 18 1 17 19
M  V30 19 2 17 20
M  V30 20 1 19 21
M  V30 21 1 19 22
M  V30 22 1 20 23
M  V30 23 2 21 24
M  V30 24 1 21 25
M  V30 25 1 22 26
M  V30 26 1 25 27
M  V30 27 1 25 28
M  V30 28 1 26 29
M  V30 29 1 27 30
M  V30 30 2 29 31
M  V30 31 2 30 32
M  V30 32 1 32 33
M  V30 33 1 33 34
M  V30 34 2 34 35
M  V30 35 1 34 36
M  V30 36 1 35 37
M  V30 37 2 36 38
M  V30 38 2 37 39
M  V30 39 1 39 40
M  V30 40 1 9 11
M  V30 41 1 18 20
M  V30 42 2 26 27
M  V30 43 1 31 32
M  V30 44 1 38 39
M  V30 END BOND
M  V30 END CTAB
M  END
>  <Molecule Name>
Compound 793

>  <Molecule Name 2>
Compound 793

>  <Compound ID>
222

>  <Name>
GNF-7

>  <Uniprot>
Q8TDR2

>  <Target>
STK35

>  <Smiles>
CC1=CC=C(NC2=NC=C3CN(C4=CC(NC(=O)C5=CC=CC(C(F)(F)F)=C5)=CC=C4C)C(=O)N(C)C3=N2)C=N1

>  <Kd (nM)>


>  <Assay (Kd)>


>  <Ki (nM)>


>  <Assay (Ki)>


>  <IC50 (nM)>


>  <Assay (IC50)>


>  <EC50 (nM)>


>  <Assay (EC50)>


>  <Article DOI>


>  <Molecular Weight>
547.541

>  <Exact Mass>
547.1943577

>  <XLogP3>
4.33

>  <Heavy Atom Count>
40

>  <Ring Count>
5

>  <Hydrogen Bond Acceptor Count>
6

>  <Hydrogen Bond Donor Count>
2

>  <Rotatable Bond Count>
5

>  <Topological Polar Surface Area>
103.35

>  <Molecular Formula>
C28H24F3N7O2

>  <InChI>
InChI=1S/C28H24F3N7O2/c1-16-7-9-21(34-25(39)18-5-4-6-20(11-18)28(29,30)31)12-23(16)38-15-19-13-33-26(36-24(19)37(3)27(38)40)35-22-10-8-17(2)32-14-22/h4-14H,15H2,1-3H3,(H,34,39)(H,33,35,36)

>  <InChI Key>
SZNYUUZOQHNEKB-UHFFFAOYSA-N

>  <BindingDB>
50323777

>  <PubChem>
11478363

>  <ChEMBL>
CHEMBL1214141

$$$$
222
Actelion Java MolfileCreator 2.0

  0  0  0  0  0  0              0 V3000
M  V30 BEGIN CTAB
M  V30 COUNTS 40 44 0 0 0
M  V30 BEGIN ATOM
M  V30 1 F 2.4641 2.5 0.0 0
M  V30 2 C 3.4641 2.5 0.0 0
M  V30 3 F 3.4641 3.5 0.0 0
M  V30 4 F 4.4641 2.5 0.0 0
M  V30 5 C 3.4641 1.5 0.0 0
M  V30 6 C 2.598 1.0 0.0 0
M  V30 7 C 4.3301 1.0 0.0 0
M  V30 8 C 2.598 0.0 0.0 0
M  V30 9 C 4.3301 0.0 0.0 0
M  V30 10 C 1.732 -0.5 0.0 0
M  V30 11 C 3.4641 -0.4999 0.0 0
M  V30 12 O 1.732 -1.5 0.0 0
M  V30 13 N 0.866 0.0 0.0 0
M  V30 14 C 0.0 -0.5 0.0 0
M  V30 15 C -0.866 0.0 0.0 0
M  V30 16 C 0.0 -1.4999 0.0 0
M  V30 17 C -1.732 -0.4999 0.0 0
M  V30 18 C -0.866 -1.9999 0.0 0
M  V30 19 N -2.598 0.0 0.0 0
M  V30 20 C -1.732 -1.4999 0.0 0
M  V30 21 C -2.598 1.0 0.0 0
M  V30 22 C -3.4641 -0.4999 0.0 0
M  V30 23 C -2.598 -1.9999 0.0 0
M  V30 24 O -1.732 1.5 0.0 0
M  V30 25 N -3.4641 1.5 0.0 0
M  V30 26 C -4.3301 0.0 0.0 0
M  V30 27 C -4.3301 1.0 0.0 0
M  V30 28 C -3.4641 2.5 0.0 0
M  V30 29 C -5.1961 -0.4999 0.0 0
M  V30 30 N -5.1961 1.5 0.0 0
M  V30 31 N -6.0621 0.0 0.0 0
M  V30 32 C -6.0621 1.0 0.0 0
M  V30 33 N -6.9282 1.5 0.0 0
M  V30 34 C -7.7942 1.0 0.0 0
M  V30 35 C -8.6602 1.5 0.0 0
M  V30 36 C -7.7942 0.0 0.0 0
M  V30 37 N -9.5262 1.0 0.0 0
M  V30 38 C -8.6602 -0.4999 0.0 0
M  V30 39 C -9.5262 0.0 0.0 0
M  V30 40 C -10.3923 -0.4999 0.0 0
M  V30 END ATOM
M  V30 BEGIN BOND
M  V30 1 1 1 2
M  V30 2 1 2 3
M  V30 3 1 2 4
M  V30 4 1 2 5
M  V30 5 2 5 6
M  V30 6 1 5 7
M  V30 7 1 6 8
M  V30 8 2 7 9
M  V30 9 1 8 10
M  V30 10 2 8 11
M  V30 11 2 10 12
M  V30 12 1 10 13
M  V30 13 1 13 14
M  V30 14 2 14 15
M  V30 15 1 14 16
M  V30 16 1 15 17
M  V30 17 2 16 18
M  V30 18 1 17 19
M  V30 19 2 17 20
M  V30 20 1 19 21
M  V30 21 1 19 22
M  V30 22 1 20 23
M  V30 23 2 21 24
M  V30 24 1 21 25
M  V30 25 1 22 26
M  V30 26 1 25 27
M  V30 27 1 25 28
M  V30 28 1 26 29
M  V30 29 1 27 30
M  V30 30 2 29 31
M  V30 31 2 30 32
M  V30 32 1 32 33
M  V30 33 1 33 34
M  V30 34 2 34 35
M  V30 35 1 34 36
M  V30 36 1 35 37
M  V30 37 2 36 38
M  V30 38 2 37 39
M  V30 39 1 39 40
M  V30 40 1 9 11
M  V30 41 1 18 20
M  V30 42 2 26 27
M  V30 43 1 31 32
M  V30 44 1 38 39
M  V30 END BOND
M  V30 END CTAB
M  END
>  <Molecule Name>
Compound 794

>  <Molecule Name 2>
Compound 794

>  <Compound ID>
222

>  <Name>
GNF-7

>  <Uniprot>
Q9UL54

>  <Target>
TAOK2

>  <Smiles>
CC1=CC=C(NC2=NC=C3CN(C4=CC(NC(=O)C5=CC=CC(C(F)(F)F)=C5)=CC=C4C)C(=O)N(C)C3=N2)C=N1

>  <Kd (nM)>


>  <Assay (Kd)>


>  <Ki (nM)>


>  <Assay (Ki)>


>  <IC50 (nM)>


>  <Assay (IC50)>


>  <EC50 (nM)>


>  <Assay (EC50)>


>  <Article DOI>


>  <Molecular Weight>
547.541

>  <Exact Mass>
547.1943577

>  <XLogP3>
4.33

>  <Heavy Atom Count>
40

>  <Ring Count>
5

>  <Hydrogen Bond Acceptor Count>
6

>  <Hydrogen Bond Donor Count>
2

>  <Rotatable Bond Count>
5

>  <Topological Polar Surface Area>
103.35

>  <Molecular Formula>
C28H24F3N7O2

>  <InChI>
InChI=1S/C28H24F3N7O2/c1-16-7-9-21(34-25(39)18-5-4-6-20(11-18)28(29,30)31)12-23(16)38-15-19-13-33-26(36-24(19)37(3)27(38)40)35-22-10-8-17(2)32-14-22/h4-14H,15H2,1-3H3,(H,34,39)(H,33,35,36)

>  <InChI Key>
SZNYUUZOQHNEKB-UHFFFAOYSA-N

>  <BindingDB>
50323777

>  <PubChem>
11478363

>  <ChEMBL>
CHEMBL1214141

$$$$
222
Actelion Java MolfileCreator 2.0

  0  0  0  0  0  0              0 V3000
M  V30 BEGIN CTAB
M  V30 COUNTS 40 44 0 0 0
M  V30 BEGIN ATOM
M  V30 1 F 2.4641 2.5 0.0 0
M  V30 2 C 3.4641 2.5 0.0 0
M  V30 3 F 3.4641 3.5 0.0 0
M  V30 4 F 4.4641 2.5 0.0 0
M  V30 5 C 3.4641 1.5 0.0 0
M  V30 6 C 2.598 1.0 0.0 0
M  V30 7 C 4.3301 1.0 0.0 0
M  V30 8 C 2.598 0.0 0.0 0
M  V30 9 C 4.3301 0.0 0.0 0
M  V30 10 C 1.732 -0.5 0.0 0
M  V30 11 C 3.4641 -0.4999 0.0 0
M  V30 12 O 1.732 -1.5 0.0 0
M  V30 13 N 0.866 0.0 0.0 0
M  V30 14 C 0.0 -0.5 0.0 0
M  V30 15 C -0.866 0.0 0.0 0
M  V30 16 C 0.0 -1.4999 0.0 0
M  V30 17 C -1.732 -0.4999 0.0 0
M  V30 18 C -0.866 -1.9999 0.0 0
M  V30 19 N -2.598 0.0 0.0 0
M  V30 20 C -1.732 -1.4999 0.0 0
M  V30 21 C -2.598 1.0 0.0 0
M  V30 22 C -3.4641 -0.4999 0.0 0
M  V30 23 C -2.598 -1.9999 0.0 0
M  V30 24 O -1.732 1.5 0.0 0
M  V30 25 N -3.4641 1.5 0.0 0
M  V30 26 C -4.3301 0.0 0.0 0
M  V30 27 C -4.3301 1.0 0.0 0
M  V30 28 C -3.4641 2.5 0.0 0
M  V30 29 C -5.1961 -0.4999 0.0 0
M  V30 30 N -5.1961 1.5 0.0 0
M  V30 31 N -6.0621 0.0 0.0 0
M  V30 32 C -6.0621 1.0 0.0 0
M  V30 33 N -6.9282 1.5 0.0 0
M  V30 34 C -7.7942 1.0 0.0 0
M  V30 35 C -8.6602 1.5 0.0 0
M  V30 36 C -7.7942 0.0 0.0 0
M  V30 37 N -9.5262 1.0 0.0 0
M  V30 38 C -8.6602 -0.4999 0.0 0
M  V30 39 C -9.5262 0.0 0.0 0
M  V30 40 C -10.3923 -0.4999 0.0 0
M  V30 END ATOM
M  V30 BEGIN BOND
M  V30 1 1 1 2
M  V30 2 1 2 3
M  V30 3 1 2 4
M  V30 4 1 2 5
M  V30 5 2 5 6
M  V30 6 1 5 7
M  V30 7 1 6 8
M  V30 8 2 7 9
M  V30 9 1 8 10
M  V30 10 2 8 11
M  V30 11 2 10 12
M  V30 12 1 10 13
M  V30 13 1 13 14
M  V30 14 2 14 15
M  V30 15 1 14 16
M  V30 16 1 15 17
M  V30 17 2 16 18
M  V30 18 1 17 19
M  V30 19 2 17 20
M  V30 20 1 19 21
M  V30 21 1 19 22
M  V30 22 1 20 23
M  V30 23 2 21 24
M  V30 24 1 21 25
M  V30 25 1 22 26
M  V30 26 1 25 27
M  V30 27 1 25 28
M  V30 28 1 26 29
M  V30 29 1 27 30
M  V30 30 2 29 31
M  V30 31 2 30 32
M  V30 32 1 32 33
M  V30 33 1 33 34
M  V30 34 2 34 35
M  V30 35 1 34 36
M  V30 36 1 35 37
M  V30 37 2 36 38
M  V30 38 2 37 39
M  V30 39 1 39 40
M  V30 40 1 9 11
M  V30 41 1 18 20
M  V30 42 2 26 27
M  V30 43 1 31 32
M  V30 44 1 38 39
M  V30 END BOND
M  V30 END CTAB
M  END
>  <Molecule Name>
Compound 795

>  <Molecule Name 2>
Compound 795

>  <Compound ID>
222

>  <Name>
GNF-7

>  <Uniprot>
P42680

>  <Target>
TEC

>  <Smiles>
CC1=CC=C(NC2=NC=C3CN(C4=CC(NC(=O)C5=CC=CC(C(F)(F)F)=C5)=CC=C4C)C(=O)N(C)C3=N2)C=N1

>  <Kd (nM)>


>  <Assay (Kd)>


>  <Ki (nM)>


>  <Assay (Ki)>


>  <IC50 (nM)>


>  <Assay (IC50)>


>  <EC50 (nM)>


>  <Assay (EC50)>


>  <Article DOI>


>  <Molecular Weight>
547.541

>  <Exact Mass>
547.1943577

>  <XLogP3>
4.33

>  <Heavy Atom Count>
40

>  <Ring Count>
5

>  <Hydrogen Bond Acceptor Count>
6

>  <Hydrogen Bond Donor Count>
2

>  <Rotatable Bond Count>
5

>  <Topological Polar Surface Area>
103.35

>  <Molecular Formula>
C28H24F3N7O2

>  <InChI>
InChI=1S/C28H24F3N7O2/c1-16-7-9-21(34-25(39)18-5-4-6-20(11-18)28(29,30)31)12-23(16)38-15-19-13-33-26(36-24(19)37(3)27(38)40)35-22-10-8-17(2)32-14-22/h4-14H,15H2,1-3H3,(H,34,39)(H,33,35,36)

>  <InChI Key>
SZNYUUZOQHNEKB-UHFFFAOYSA-N

>  <BindingDB>
50323777

>  <PubChem>
11478363

>  <ChEMBL>
CHEMBL1214141

$$$$
222
Actelion Java MolfileCreator 2.0

  0  0  0  0  0  0              0 V3000
M  V30 BEGIN CTAB
M  V30 COUNTS 40 44 0 0 0
M  V30 BEGIN ATOM
M  V30 1 F 2.4641 2.5 0.0 0
M  V30 2 C 3.4641 2.5 0.0 0
M  V30 3 F 3.4641 3.5 0.0 0
M  V30 4 F 4.4641 2.5 0.0 0
M  V30 5 C 3.4641 1.5 0.0 0
M  V30 6 C 2.598 1.0 0.0 0
M  V30 7 C 4.3301 1.0 0.0 0
M  V30 8 C 2.598 0.0 0.0 0
M  V30 9 C 4.3301 0.0 0.0 0
M  V30 10 C 1.732 -0.5 0.0 0
M  V30 11 C 3.4641 -0.4999 0.0 0
M  V30 12 O 1.732 -1.5 0.0 0
M  V30 13 N 0.866 0.0 0.0 0
M  V30 14 C 0.0 -0.5 0.0 0
M  V30 15 C -0.866 0.0 0.0 0
M  V30 16 C 0.0 -1.4999 0.0 0
M  V30 17 C -1.732 -0.4999 0.0 0
M  V30 18 C -0.866 -1.9999 0.0 0
M  V30 19 N -2.598 0.0 0.0 0
M  V30 20 C -1.732 -1.4999 0.0 0
M  V30 21 C -2.598 1.0 0.0 0
M  V30 22 C -3.4641 -0.4999 0.0 0
M  V30 23 C -2.598 -1.9999 0.0 0
M  V30 24 O -1.732 1.5 0.0 0
M  V30 25 N -3.4641 1.5 0.0 0
M  V30 26 C -4.3301 0.0 0.0 0
M  V30 27 C -4.3301 1.0 0.0 0
M  V30 28 C -3.4641 2.5 0.0 0
M  V30 29 C -5.1961 -0.4999 0.0 0
M  V30 30 N -5.1961 1.5 0.0 0
M  V30 31 N -6.0621 0.0 0.0 0
M  V30 32 C -6.0621 1.0 0.0 0
M  V30 33 N -6.9282 1.5 0.0 0
M  V30 34 C -7.7942 1.0 0.0 0
M  V30 35 C -8.6602 1.5 0.0 0
M  V30 36 C -7.7942 0.0 0.0 0
M  V30 37 N -9.5262 1.0 0.0 0
M  V30 38 C -8.6602 -0.4999 0.0 0
M  V30 39 C -9.5262 0.0 0.0 0
M  V30 40 C -10.3923 -0.4999 0.0 0
M  V30 END ATOM
M  V30 BEGIN BOND
M  V30 1 1 1 2
M  V30 2 1 2 3
M  V30 3 1 2 4
M  V30 4 1 2 5
M  V30 5 2 5 6
M  V30 6 1 5 7
M  V30 7 1 6 8
M  V30 8 2 7 9
M  V30 9 1 8 10
M  V30 10 2 8 11
M  V30 11 2 10 12
M  V30 12 1 10 13
M  V30 13 1 13 14
M  V30 14 2 14 15
M  V30 15 1 14 16
M  V30 16 1 15 17
M  V30 17 2 16 18
M  V30 18 1 17 19
M  V30 19 2 17 20
M  V30 20 1 19 21
M  V30 21 1 19 22
M  V30 22 1 20 23
M  V30 23 2 21 24
M  V30 24 1 21 25
M  V30 25 1 22 26
M  V30 26 1 25 27
M  V30 27 1 25 28
M  V30 28 1 26 29
M  V30 29 1 27 30
M  V30 30 2 29 31
M  V30 31 2 30 32
M  V30 32 1 32 33
M  V30 33 1 33 34
M  V30 34 2 34 35
M  V30 35 1 34 36
M  V30 36 1 35 37
M  V30 37 2 36 38
M  V30 38 2 37 39
M  V30 39 1 39 40
M  V30 40 1 9 11
M  V30 41 1 18 20
M  V30 42 2 26 27
M  V30 43 1 31 32
M  V30 44 1 38 39
M  V30 END BOND
M  V30 END CTAB
M  END
>  <Molecule Name>
Compound 796

>  <Molecule Name 2>
Compound 796

>  <Compound ID>
222

>  <Name>
GNF-7

>  <Uniprot>
Q07912

>  <Target>
TNK2

>  <Smiles>
CC1=CC=C(NC2=NC=C3CN(C4=CC(NC(=O)C5=CC=CC(C(F)(F)F)=C5)=CC=C4C)C(=O)N(C)C3=N2)C=N1

>  <Kd (nM)>


>  <Assay (Kd)>


>  <Ki (nM)>


>  <Assay (Ki)>


>  <IC50 (nM)>
25

>  <Assay (IC50)>
IC50 was assessed by radiometric biochemical kinase assay

>  <EC50 (nM)>


>  <Assay (EC50)>


>  <Article DOI>
10.1021/acs.jmedchem.8b00882

>  <Molecular Weight>
547.541

>  <Exact Mass>
547.1943577

>  <XLogP3>
4.33

>  <Heavy Atom Count>
40

>  <Ring Count>
5

>  <Hydrogen Bond Acceptor Count>
6

>  <Hydrogen Bond Donor Count>
2

>  <Rotatable Bond Count>
5

>  <Topological Polar Surface Area>
103.35

>  <Molecular Formula>
C28H24F3N7O2

>  <InChI>
InChI=1S/C28H24F3N7O2/c1-16-7-9-21(34-25(39)18-5-4-6-20(11-18)28(29,30)31)12-23(16)38-15-19-13-33-26(36-24(19)37(3)27(38)40)35-22-10-8-17(2)32-14-22/h4-14H,15H2,1-3H3,(H,34,39)(H,33,35,36)

>  <InChI Key>
SZNYUUZOQHNEKB-UHFFFAOYSA-N

>  <BindingDB>
50323777

>  <PubChem>
11478363

>  <ChEMBL>
CHEMBL1214141

$$$$
222
Actelion Java MolfileCreator 2.0

  0  0  0  0  0  0              0 V3000
M  V30 BEGIN CTAB
M  V30 COUNTS 40 44 0 0 0
M  V30 BEGIN ATOM
M  V30 1 F 2.4641 2.5 0.0 0
M  V30 2 C 3.4641 2.5 0.0 0
M  V30 3 F 3.4641 3.5 0.0 0
M  V30 4 F 4.4641 2.5 0.0 0
M  V30 5 C 3.4641 1.5 0.0 0
M  V30 6 C 2.598 1.0 0.0 0
M  V30 7 C 4.3301 1.0 0.0 0
M  V30 8 C 2.598 0.0 0.0 0
M  V30 9 C 4.3301 0.0 0.0 0
M  V30 10 C 1.732 -0.5 0.0 0
M  V30 11 C 3.4641 -0.4999 0.0 0
M  V30 12 O 1.732 -1.5 0.0 0
M  V30 13 N 0.866 0.0 0.0 0
M  V30 14 C 0.0 -0.5 0.0 0
M  V30 15 C -0.866 0.0 0.0 0
M  V30 16 C 0.0 -1.4999 0.0 0
M  V30 17 C -1.732 -0.4999 0.0 0
M  V30 18 C -0.866 -1.9999 0.0 0
M  V30 19 N -2.598 0.0 0.0 0
M  V30 20 C -1.732 -1.4999 0.0 0
M  V30 21 C -2.598 1.0 0.0 0
M  V30 22 C -3.4641 -0.4999 0.0 0
M  V30 23 C -2.598 -1.9999 0.0 0
M  V30 24 O -1.732 1.5 0.0 0
M  V30 25 N -3.4641 1.5 0.0 0
M  V30 26 C -4.3301 0.0 0.0 0
M  V30 27 C -4.3301 1.0 0.0 0
M  V30 28 C -3.4641 2.5 0.0 0
M  V30 29 C -5.1961 -0.4999 0.0 0
M  V30 30 N -5.1961 1.5 0.0 0
M  V30 31 N -6.0621 0.0 0.0 0
M  V30 32 C -6.0621 1.0 0.0 0
M  V30 33 N -6.9282 1.5 0.0 0
M  V30 34 C -7.7942 1.0 0.0 0
M  V30 35 C -8.6602 1.5 0.0 0
M  V30 36 C -7.7942 0.0 0.0 0
M  V30 37 N -9.5262 1.0 0.0 0
M  V30 38 C -8.6602 -0.4999 0.0 0
M  V30 39 C -9.5262 0.0 0.0 0
M  V30 40 C -10.3923 -0.4999 0.0 0
M  V30 END ATOM
M  V30 BEGIN BOND
M  V30 1 1 1 2
M  V30 2 1 2 3
M  V30 3 1 2 4
M  V30 4 1 2 5
M  V30 5 2 5 6
M  V30 6 1 5 7
M  V30 7 1 6 8
M  V30 8 2 7 9
M  V30 9 1 8 10
M  V30 10 2 8 11
M  V30 11 2 10 12
M  V30 12 1 10 13
M  V30 13 1 13 14
M  V30 14 2 14 15
M  V30 15 1 14 16
M  V30 16 1 15 17
M  V30 17 2 16 18
M  V30 18 1 17 19
M  V30 19 2 17 20
M  V30 20 1 19 21
M  V30 21 1 19 22
M  V30 22 1 20 23
M  V30 23 2 21 24
M  V30 24 1 21 25
M  V30 25 1 22 26
M  V30 26 1 25 27
M  V30 27 1 25 28
M  V30 28 1 26 29
M  V30 29 1 27 30
M  V30 30 2 29 31
M  V30 31 2 30 32
M  V30 32 1 32 33
M  V30 33 1 33 34
M  V30 34 2 34 35
M  V30 35 1 34 36
M  V30 36 1 35 37
M  V30 37 2 36 38
M  V30 38 2 37 39
M  V30 39 1 39 40
M  V30 40 1 9 11
M  V30 41 1 18 20
M  V30 42 2 26 27
M  V30 43 1 31 32
M  V30 44 1 38 39
M  V30 END BOND
M  V30 END CTAB
M  END
>  <Molecule Name>
Compound 797

>  <Molecule Name 2>
Compound 797

>  <Compound ID>
222

>  <Name>
GNF-7

>  <Uniprot>
P33981

>  <Target>
TTK

>  <Smiles>
CC1=CC=C(NC2=NC=C3CN(C4=CC(NC(=O)C5=CC=CC(C(F)(F)F)=C5)=CC=C4C)C(=O)N(C)C3=N2)C=N1

>  <Kd (nM)>


>  <Assay (Kd)>


>  <Ki (nM)>


>  <Assay (Ki)>


>  <IC50 (nM)>


>  <Assay (IC50)>


>  <EC50 (nM)>


>  <Assay (EC50)>


>  <Article DOI>


>  <Molecular Weight>
547.541

>  <Exact Mass>
547.1943577

>  <XLogP3>
4.33

>  <Heavy Atom Count>
40

>  <Ring Count>
5

>  <Hydrogen Bond Acceptor Count>
6

>  <Hydrogen Bond Donor Count>
2

>  <Rotatable Bond Count>
5

>  <Topological Polar Surface Area>
103.35

>  <Molecular Formula>
C28H24F3N7O2

>  <InChI>
InChI=1S/C28H24F3N7O2/c1-16-7-9-21(34-25(39)18-5-4-6-20(11-18)28(29,30)31)12-23(16)38-15-19-13-33-26(36-24(19)37(3)27(38)40)35-22-10-8-17(2)32-14-22/h4-14H,15H2,1-3H3,(H,34,39)(H,33,35,36)

>  <InChI Key>
SZNYUUZOQHNEKB-UHFFFAOYSA-N

>  <BindingDB>
50323777

>  <PubChem>
11478363

>  <ChEMBL>
CHEMBL1214141

$$$$
222
Actelion Java MolfileCreator 2.0

  0  0  0  0  0  0              0 V3000
M  V30 BEGIN CTAB
M  V30 COUNTS 40 44 0 0 0
M  V30 BEGIN ATOM
M  V30 1 F 2.4641 2.5 0.0 0
M  V30 2 C 3.4641 2.5 0.0 0
M  V30 3 F 3.4641 3.5 0.0 0
M  V30 4 F 4.4641 2.5 0.0 0
M  V30 5 C 3.4641 1.5 0.0 0
M  V30 6 C 2.598 1.0 0.0 0
M  V30 7 C 4.3301 1.0 0.0 0
M  V30 8 C 2.598 0.0 0.0 0
M  V30 9 C 4.3301 0.0 0.0 0
M  V30 10 C 1.732 -0.5 0.0 0
M  V30 11 C 3.4641 -0.4999 0.0 0
M  V30 12 O 1.732 -1.5 0.0 0
M  V30 13 N 0.866 0.0 0.0 0
M  V30 14 C 0.0 -0.5 0.0 0
M  V30 15 C -0.866 0.0 0.0 0
M  V30 16 C 0.0 -1.4999 0.0 0
M  V30 17 C -1.732 -0.4999 0.0 0
M  V30 18 C -0.866 -1.9999 0.0 0
M  V30 19 N -2.598 0.0 0.0 0
M  V30 20 C -1.732 -1.4999 0.0 0
M  V30 21 C -2.598 1.0 0.0 0
M  V30 22 C -3.4641 -0.4999 0.0 0
M  V30 23 C -2.598 -1.9999 0.0 0
M  V30 24 O -1.732 1.5 0.0 0
M  V30 25 N -3.4641 1.5 0.0 0
M  V30 26 C -4.3301 0.0 0.0 0
M  V30 27 C -4.3301 1.0 0.0 0
M  V30 28 C -3.4641 2.5 0.0 0
M  V30 29 C -5.1961 -0.4999 0.0 0
M  V30 30 N -5.1961 1.5 0.0 0
M  V30 31 N -6.0621 0.0 0.0 0
M  V30 32 C -6.0621 1.0 0.0 0
M  V30 33 N -6.9282 1.5 0.0 0
M  V30 34 C -7.7942 1.0 0.0 0
M  V30 35 C -8.6602 1.5 0.0 0
M  V30 36 C -7.7942 0.0 0.0 0
M  V30 37 N -9.5262 1.0 0.0 0
M  V30 38 C -8.6602 -0.4999 0.0 0
M  V30 39 C -9.5262 0.0 0.0 0
M  V30 40 C -10.3923 -0.4999 0.0 0
M  V30 END ATOM
M  V30 BEGIN BOND
M  V30 1 1 1 2
M  V30 2 1 2 3
M  V30 3 1 2 4
M  V30 4 1 2 5
M  V30 5 2 5 6
M  V30 6 1 5 7
M  V30 7 1 6 8
M  V30 8 2 7 9
M  V30 9 1 8 10
M  V30 10 2 8 11
M  V30 11 2 10 12
M  V30 12 1 10 13
M  V30 13 1 13 14
M  V30 14 2 14 15
M  V30 15 1 14 16
M  V30 16 1 15 17
M  V30 17 2 16 18
M  V30 18 1 17 19
M  V30 19 2 17 20
M  V30 20 1 19 21
M  V30 21 1 19 22
M  V30 22 1 20 23
M  V30 23 2 21 24
M  V30 24 1 21 25
M  V30 25 1 22 26
M  V30 26 1 25 27
M  V30 27 1 25 28
M  V30 28 1 26 29
M  V30 29 1 27 30
M  V30 30 2 29 31
M  V30 31 2 30 32
M  V30 32 1 32 33
M  V30 33 1 33 34
M  V30 34 2 34 35
M  V30 35 1 34 36
M  V30 36 1 35 37
M  V30 37 2 36 38
M  V30 38 2 37 39
M  V30 39 1 39 40
M  V30 40 1 9 11
M  V30 41 1 18 20
M  V30 42 2 26 27
M  V30 43 1 31 32
M  V30 44 1 38 39
M  V30 END BOND
M  V30 END CTAB
M  END
>  <Molecule Name>
Compound 798

>  <Molecule Name 2>
Compound 798

>  <Compound ID>
222

>  <Name>
GNF-7

>  <Uniprot>
Q8TAS1

>  <Target>
UHMK1

>  <Smiles>
CC1=CC=C(NC2=NC=C3CN(C4=CC(NC(=O)C5=CC=CC(C(F)(F)F)=C5)=CC=C4C)C(=O)N(C)C3=N2)C=N1

>  <Kd (nM)>


>  <Assay (Kd)>


>  <Ki (nM)>


>  <Assay (Ki)>


>  <IC50 (nM)>


>  <Assay (IC50)>


>  <EC50 (nM)>


>  <Assay (EC50)>


>  <Article DOI>


>  <Molecular Weight>
547.541

>  <Exact Mass>
547.1943577

>  <XLogP3>
4.33

>  <Heavy Atom Count>
40

>  <Ring Count>
5

>  <Hydrogen Bond Acceptor Count>
6

>  <Hydrogen Bond Donor Count>
2

>  <Rotatable Bond Count>
5

>  <Topological Polar Surface Area>
103.35

>  <Molecular Formula>
C28H24F3N7O2

>  <InChI>
InChI=1S/C28H24F3N7O2/c1-16-7-9-21(34-25(39)18-5-4-6-20(11-18)28(29,30)31)12-23(16)38-15-19-13-33-26(36-24(19)37(3)27(38)40)35-22-10-8-17(2)32-14-22/h4-14H,15H2,1-3H3,(H,34,39)(H,33,35,36)

>  <InChI Key>
SZNYUUZOQHNEKB-UHFFFAOYSA-N

>  <BindingDB>
50323777

>  <PubChem>
11478363

>  <ChEMBL>
CHEMBL1214141

$$$$
222
Actelion Java MolfileCreator 2.0

  0  0  0  0  0  0              0 V3000
M  V30 BEGIN CTAB
M  V30 COUNTS 40 44 0 0 0
M  V30 BEGIN ATOM
M  V30 1 F 2.4641 2.5 0.0 0
M  V30 2 C 3.4641 2.5 0.0 0
M  V30 3 F 3.4641 3.5 0.0 0
M  V30 4 F 4.4641 2.5 0.0 0
M  V30 5 C 3.4641 1.5 0.0 0
M  V30 6 C 2.598 1.0 0.0 0
M  V30 7 C 4.3301 1.0 0.0 0
M  V30 8 C 2.598 0.0 0.0 0
M  V30 9 C 4.3301 0.0 0.0 0
M  V30 10 C 1.732 -0.5 0.0 0
M  V30 11 C 3.4641 -0.4999 0.0 0
M  V30 12 O 1.732 -1.5 0.0 0
M  V30 13 N 0.866 0.0 0.0 0
M  V30 14 C 0.0 -0.5 0.0 0
M  V30 15 C -0.866 0.0 0.0 0
M  V30 16 C 0.0 -1.4999 0.0 0
M  V30 17 C -1.732 -0.4999 0.0 0
M  V30 18 C -0.866 -1.9999 0.0 0
M  V30 19 N -2.598 0.0 0.0 0
M  V30 20 C -1.732 -1.4999 0.0 0
M  V30 21 C -2.598 1.0 0.0 0
M  V30 22 C -3.4641 -0.4999 0.0 0
M  V30 23 C -2.598 -1.9999 0.0 0
M  V30 24 O -1.732 1.5 0.0 0
M  V30 25 N -3.4641 1.5 0.0 0
M  V30 26 C -4.3301 0.0 0.0 0
M  V30 27 C -4.3301 1.0 0.0 0
M  V30 28 C -3.4641 2.5 0.0 0
M  V30 29 C -5.1961 -0.4999 0.0 0
M  V30 30 N -5.1961 1.5 0.0 0
M  V30 31 N -6.0621 0.0 0.0 0
M  V30 32 C -6.0621 1.0 0.0 0
M  V30 33 N -6.9282 1.5 0.0 0
M  V30 34 C -7.7942 1.0 0.0 0
M  V30 35 C -8.6602 1.5 0.0 0
M  V30 36 C -7.7942 0.0 0.0 0
M  V30 37 N -9.5262 1.0 0.0 0
M  V30 38 C -8.6602 -0.4999 0.0 0
M  V30 39 C -9.5262 0.0 0.0 0
M  V30 40 C -10.3923 -0.4999 0.0 0
M  V30 END ATOM
M  V30 BEGIN BOND
M  V30 1 1 1 2
M  V30 2 1 2 3
M  V30 3 1 2 4
M  V30 4 1 2 5
M  V30 5 2 5 6
M  V30 6 1 5 7
M  V30 7 1 6 8
M  V30 8 2 7 9
M  V30 9 1 8 10
M  V30 10 2 8 11
M  V30 11 2 10 12
M  V30 12 1 10 13
M  V30 13 1 13 14
M  V30 14 2 14 15
M  V30 15 1 14 16
M  V30 16 1 15 17
M  V30 17 2 16 18
M  V30 18 1 17 19
M  V30 19 2 17 20
M  V30 20 1 19 21
M  V30 21 1 19 22
M  V30 22 1 20 23
M  V30 23 2 21 24
M  V30 24 1 21 25
M  V30 25 1 22 26
M  V30 26 1 25 27
M  V30 27 1 25 28
M  V30 28 1 26 29
M  V30 29 1 27 30
M  V30 30 2 29 31
M  V30 31 2 30 32
M  V30 32 1 32 33
M  V30 33 1 33 34
M  V30 34 2 34 35
M  V30 35 1 34 36
M  V30 36 1 35 37
M  V30 37 2 36 38
M  V30 38 2 37 39
M  V30 39 1 39 40
M  V30 40 1 9 11
M  V30 41 1 18 20
M  V30 42 2 26 27
M  V30 43 1 31 32
M  V30 44 1 38 39
M  V30 END BOND
M  V30 END CTAB
M  END
>  <Molecule Name>
Compound 799

>  <Molecule Name 2>
Compound 799

>  <Compound ID>
222

>  <Name>
GNF-7

>  <Uniprot>
O75385

>  <Target>
ULK1

>  <Smiles>
CC1=CC=C(NC2=NC=C3CN(C4=CC(NC(=O)C5=CC=CC(C(F)(F)F)=C5)=CC=C4C)C(=O)N(C)C3=N2)C=N1

>  <Kd (nM)>


>  <Assay (Kd)>


>  <Ki (nM)>


>  <Assay (Ki)>


>  <IC50 (nM)>


>  <Assay (IC50)>


>  <EC50 (nM)>


>  <Assay (EC50)>


>  <Article DOI>


>  <Molecular Weight>
547.541

>  <Exact Mass>
547.1943577

>  <XLogP3>
4.33

>  <Heavy Atom Count>
40

>  <Ring Count>
5

>  <Hydrogen Bond Acceptor Count>
6

>  <Hydrogen Bond Donor Count>
2

>  <Rotatable Bond Count>
5

>  <Topological Polar Surface Area>
103.35

>  <Molecular Formula>
C28H24F3N7O2

>  <InChI>
InChI=1S/C28H24F3N7O2/c1-16-7-9-21(34-25(39)18-5-4-6-20(11-18)28(29,30)31)12-23(16)38-15-19-13-33-26(36-24(19)37(3)27(38)40)35-22-10-8-17(2)32-14-22/h4-14H,15H2,1-3H3,(H,34,39)(H,33,35,36)

>  <InChI Key>
SZNYUUZOQHNEKB-UHFFFAOYSA-N

>  <BindingDB>
50323777

>  <PubChem>
11478363

>  <ChEMBL>
CHEMBL1214141

$$$$
222
Actelion Java MolfileCreator 2.0

  0  0  0  0  0  0              0 V3000
M  V30 BEGIN CTAB
M  V30 COUNTS 40 44 0 0 0
M  V30 BEGIN ATOM
M  V30 1 F 2.4641 2.5 0.0 0
M  V30 2 C 3.4641 2.5 0.0 0
M  V30 3 F 3.4641 3.5 0.0 0
M  V30 4 F 4.4641 2.5 0.0 0
M  V30 5 C 3.4641 1.5 0.0 0
M  V30 6 C 2.598 1.0 0.0 0
M  V30 7 C 4.3301 1.0 0.0 0
M  V30 8 C 2.598 0.0 0.0 0
M  V30 9 C 4.3301 0.0 0.0 0
M  V30 10 C 1.732 -0.5 0.0 0
M  V30 11 C 3.4641 -0.4999 0.0 0
M  V30 12 O 1.732 -1.5 0.0 0
M  V30 13 N 0.866 0.0 0.0 0
M  V30 14 C 0.0 -0.5 0.0 0
M  V30 15 C -0.866 0.0 0.0 0
M  V30 16 C 0.0 -1.4999 0.0 0
M  V30 17 C -1.732 -0.4999 0.0 0
M  V30 18 C -0.866 -1.9999 0.0 0
M  V30 19 N -2.598 0.0 0.0 0
M  V30 20 C -1.732 -1.4999 0.0 0
M  V30 21 C -2.598 1.0 0.0 0
M  V30 22 C -3.4641 -0.4999 0.0 0
M  V30 23 C -2.598 -1.9999 0.0 0
M  V30 24 O -1.732 1.5 0.0 0
M  V30 25 N -3.4641 1.5 0.0 0
M  V30 26 C -4.3301 0.0 0.0 0
M  V30 27 C -4.3301 1.0 0.0 0
M  V30 28 C -3.4641 2.5 0.0 0
M  V30 29 C -5.1961 -0.4999 0.0 0
M  V30 30 N -5.1961 1.5 0.0 0
M  V30 31 N -6.0621 0.0 0.0 0
M  V30 32 C -6.0621 1.0 0.0 0
M  V30 33 N -6.9282 1.5 0.0 0
M  V30 34 C -7.7942 1.0 0.0 0
M  V30 35 C -8.6602 1.5 0.0 0
M  V30 36 C -7.7942 0.0 0.0 0
M  V30 37 N -9.5262 1.0 0.0 0
M  V30 38 C -8.6602 -0.4999 0.0 0
M  V30 39 C -9.5262 0.0 0.0 0
M  V30 40 C -10.3923 -0.4999 0.0 0
M  V30 END ATOM
M  V30 BEGIN BOND
M  V30 1 1 1 2
M  V30 2 1 2 3
M  V30 3 1 2 4
M  V30 4 1 2 5
M  V30 5 2 5 6
M  V30 6 1 5 7
M  V30 7 1 6 8
M  V30 8 2 7 9
M  V30 9 1 8 10
M  V30 10 2 8 11
M  V30 11 2 10 12
M  V30 12 1 10 13
M  V30 13 1 13 14
M  V30 14 2 14 15
M  V30 15 1 14 16
M  V30 16 1 15 17
M  V30 17 2 16 18
M  V30 18 1 17 19
M  V30 19 2 17 20
M  V30 20 1 19 21
M  V30 21 1 19 22
M  V30 22 1 20 23
M  V30 23 2 21 24
M  V30 24 1 21 25
M  V30 25 1 22 26
M  V30 26 1 25 27
M  V30 27 1 25 28
M  V30 28 1 26 29
M  V30 29 1 27 30
M  V30 30 2 29 31
M  V30 31 2 30 32
M  V30 32 1 32 33
M  V30 33 1 33 34
M  V30 34 2 34 35
M  V30 35 1 34 36
M  V30 36 1 35 37
M  V30 37 2 36 38
M  V30 38 2 37 39
M  V30 39 1 39 40
M  V30 40 1 9 11
M  V30 41 1 18 20
M  V30 42 2 26 27
M  V30 43 1 31 32
M  V30 44 1 38 39
M  V30 END BOND
M  V30 END CTAB
M  END
>  <Molecule Name>
Compound 800

>  <Molecule Name 2>
Compound 800

>  <Compound ID>
222

>  <Name>
GNF-7

>  <Uniprot>
P30291

>  <Target>
Wee1

>  <Smiles>
CC1=CC=C(NC2=NC=C3CN(C4=CC(NC(=O)C5=CC=CC(C(F)(F)F)=C5)=CC=C4C)C(=O)N(C)C3=N2)C=N1

>  <Kd (nM)>


>  <Assay (Kd)>


>  <Ki (nM)>


>  <Assay (Ki)>


>  <IC50 (nM)>


>  <Assay (IC50)>


>  <EC50 (nM)>


>  <Assay (EC50)>


>  <Article DOI>


>  <Molecular Weight>
547.541

>  <Exact Mass>
547.1943577

>  <XLogP3>
4.33

>  <Heavy Atom Count>
40

>  <Ring Count>
5

>  <Hydrogen Bond Acceptor Count>
6

>  <Hydrogen Bond Donor Count>
2

>  <Rotatable Bond Count>
5

>  <Topological Polar Surface Area>
103.35

>  <Molecular Formula>
C28H24F3N7O2

>  <InChI>
InChI=1S/C28H24F3N7O2/c1-16-7-9-21(34-25(39)18-5-4-6-20(11-18)28(29,30)31)12-23(16)38-15-19-13-33-26(36-24(19)37(3)27(38)40)35-22-10-8-17(2)32-14-22/h4-14H,15H2,1-3H3,(H,34,39)(H,33,35,36)

>  <InChI Key>
SZNYUUZOQHNEKB-UHFFFAOYSA-N

>  <BindingDB>
50323777

>  <PubChem>
11478363

>  <ChEMBL>
CHEMBL1214141

$$$$
222
Actelion Java MolfileCreator 2.0

  0  0  0  0  0  0              0 V3000
M  V30 BEGIN CTAB
M  V30 COUNTS 40 44 0 0 0
M  V30 BEGIN ATOM
M  V30 1 F 2.4641 2.5 0.0 0
M  V30 2 C 3.4641 2.5 0.0 0
M  V30 3 F 3.4641 3.5 0.0 0
M  V30 4 F 4.4641 2.5 0.0 0
M  V30 5 C 3.4641 1.5 0.0 0
M  V30 6 C 2.598 1.0 0.0 0
M  V30 7 C 4.3301 1.0 0.0 0
M  V30 8 C 2.598 0.0 0.0 0
M  V30 9 C 4.3301 0.0 0.0 0
M  V30 10 C 1.732 -0.5 0.0 0
M  V30 11 C 3.4641 -0.4999 0.0 0
M  V30 12 O 1.732 -1.5 0.0 0
M  V30 13 N 0.866 0.0 0.0 0
M  V30 14 C 0.0 -0.5 0.0 0
M  V30 15 C -0.866 0.0 0.0 0
M  V30 16 C 0.0 -1.4999 0.0 0
M  V30 17 C -1.732 -0.4999 0.0 0
M  V30 18 C -0.866 -1.9999 0.0 0
M  V30 19 N -2.598 0.0 0.0 0
M  V30 20 C -1.732 -1.4999 0.0 0
M  V30 21 C -2.598 1.0 0.0 0
M  V30 22 C -3.4641 -0.4999 0.0 0
M  V30 23 C -2.598 -1.9999 0.0 0
M  V30 24 O -1.732 1.5 0.0 0
M  V30 25 N -3.4641 1.5 0.0 0
M  V30 26 C -4.3301 0.0 0.0 0
M  V30 27 C -4.3301 1.0 0.0 0
M  V30 28 C -3.4641 2.5 0.0 0
M  V30 29 C -5.1961 -0.4999 0.0 0
M  V30 30 N -5.1961 1.5 0.0 0
M  V30 31 N -6.0621 0.0 0.0 0
M  V30 32 C -6.0621 1.0 0.0 0
M  V30 33 N -6.9282 1.5 0.0 0
M  V30 34 C -7.7942 1.0 0.0 0
M  V30 35 C -8.6602 1.5 0.0 0
M  V30 36 C -7.7942 0.0 0.0 0
M  V30 37 N -9.5262 1.0 0.0 0
M  V30 38 C -8.6602 -0.4999 0.0 0
M  V30 39 C -9.5262 0.0 0.0 0
M  V30 40 C -10.3923 -0.4999 0.0 0
M  V30 END ATOM
M  V30 BEGIN BOND
M  V30 1 1 1 2
M  V30 2 1 2 3
M  V30 3 1 2 4
M  V30 4 1 2 5
M  V30 5 2 5 6
M  V30 6 1 5 7
M  V30 7 1 6 8
M  V30 8 2 7 9
M  V30 9 1 8 10
M  V30 10 2 8 11
M  V30 11 2 10 12
M  V30 12 1 10 13
M  V30 13 1 13 14
M  V30 14 2 14 15
M  V30 15 1 14 16
M  V30 16 1 15 17
M  V30 17 2 16 18
M  V30 18 1 17 19
M  V30 19 2 17 20
M  V30 20 1 19 21
M  V30 21 1 19 22
M  V30 22 1 20 23
M  V30 23 2 21 24
M  V30 24 1 21 25
M  V30 25 1 22 26
M  V30 26 1 25 27
M  V30 27 1 25 28
M  V30 28 1 26 29
M  V30 29 1 27 30
M  V30 30 2 29 31
M  V30 31 2 30 32
M  V30 32 1 32 33
M  V30 33 1 33 34
M  V30 34 2 34 35
M  V30 35 1 34 36
M  V30 36 1 35 37
M  V30 37 2 36 38
M  V30 38 2 37 39
M  V30 39 1 39 40
M  V30 40 1 9 11
M  V30 41 1 18 20
M  V30 42 2 26 27
M  V30 43 1 31 32
M  V30 44 1 38 39
M  V30 END BOND
M  V30 END CTAB
M  END
>  <Molecule Name>
Compound 801

>  <Molecule Name 2>
Compound 801

>  <Compound ID>
222

>  <Name>
GNF-7

>  <Uniprot>
P07947

>  <Target>
YES1

>  <Smiles>
CC1=CC=C(NC2=NC=C3CN(C4=CC(NC(=O)C5=CC=CC(C(F)(F)F)=C5)=CC=C4C)C(=O)N(C)C3=N2)C=N1

>  <Kd (nM)>


>  <Assay (Kd)>


>  <Ki (nM)>


>  <Assay (Ki)>


>  <IC50 (nM)>


>  <Assay (IC50)>


>  <EC50 (nM)>


>  <Assay (EC50)>


>  <Article DOI>


>  <Molecular Weight>
547.541

>  <Exact Mass>
547.1943577

>  <XLogP3>
4.33

>  <Heavy Atom Count>
40

>  <Ring Count>
5

>  <Hydrogen Bond Acceptor Count>
6

>  <Hydrogen Bond Donor Count>
2

>  <Rotatable Bond Count>
5

>  <Topological Polar Surface Area>
103.35

>  <Molecular Formula>
C28H24F3N7O2

>  <InChI>
InChI=1S/C28H24F3N7O2/c1-16-7-9-21(34-25(39)18-5-4-6-20(11-18)28(29,30)31)12-23(16)38-15-19-13-33-26(36-24(19)37(3)27(38)40)35-22-10-8-17(2)32-14-22/h4-14H,15H2,1-3H3,(H,34,39)(H,33,35,36)

>  <InChI Key>
SZNYUUZOQHNEKB-UHFFFAOYSA-N

>  <BindingDB>
50323777

>  <PubChem>
11478363

>  <ChEMBL>
CHEMBL1214141

$$$$
223
Actelion Java MolfileCreator 2.0

  0  0  0  0  0  0              0 V3000
M  V30 BEGIN CTAB
M  V30 COUNTS 34 37 0 0 0
M  V30 BEGIN ATOM
M  V30 1 O 3.8971 -4.5 0.0 0
M  V30 2 C 5.1961 -5.25 0.0 0
M  V30 3 N 5.1961 -6.75 0.0 0
M  V30 4 C 6.4951 -4.5 0.0 0
M  V30 5 C 6.4951 -7.5 0.0 0
M  V30 6 C 3.8971 -7.5 0.0 0
M  V30 7 C 7.7942 -5.25 0.0 0
M  V30 8 C 6.4951 -3.0 0.0 0
M  V30 9 N 7.7942 -6.75 0.0 0
M  V30 10 C 9.0932 -4.5 0.0 0
M  V30 11 C 7.7942 -2.25 0.0 0
M  V30 12 C 9.0932 -3.0 0.0 0
M  V30 13 N 7.7942 -0.75 0.0 0
M  V30 14 C 6.4951 0.0 0.0 0
M  V30 15 C 6.4951 1.5 0.0 0
M  V30 16 C 5.1961 -0.75 0.0 0
M  V30 17 C 5.1961 2.25 0.0 0
M  V30 18 C 7.7942 2.25 0.0 0
M  V30 19 C 3.8971 0.0 0.0 0
M  V30 20 C 3.8971 1.5 0.0 0
M  V30 21 N 2.598 -0.75 0.0 0
M  V30 22 C 1.299 0.0 0.0 0
M  V30 23 O 1.299 1.5 0.0 0
M  V30 24 C 0.0 -0.75 0.0 0
M  V30 25 C -1.299 0.0 0.0 0
M  V30 26 C 0.0 -2.25 0.0 0
M  V30 27 C -2.598 -0.75 0.0 0
M  V30 28 C -1.299 -3.0 0.0 0
M  V30 29 C -2.598 -2.25 0.0 0
M  V30 30 C -3.8971 0.0 0.0 0
M  V30 31 C -2.8364 1.0606 0.0 0
M  V30 32 C -5.3459 -0.3881 0.0 0
M  V30 33 C -4.2853 -1.4488 0.0 0
M  V30 34 N -1.7757 2.1213 0.0 0
M  V30 END ATOM
M  V30 BEGIN BOND
M  V30 1 2 1 2
M  V30 2 1 2 3
M  V30 3 1 2 4
M  V30 4 1 3 5
M  V30 5 1 3 6
M  V30 6 2 4 7
M  V30 7 1 4 8
M  V30 8 2 5 9
M  V30 9 1 7 10
M  V30 10 2 8 11
M  V30 11 2 10 12
M  V30 12 1 11 13
M  V30 13 1 13 14
M  V30 14 2 14 15
M  V30 15 1 14 16
M  V30 16 1 15 17
M  V30 17 1 15 18
M  V30 18 2 16 19
M  V30 19 2 17 20
M  V30 20 1 19 21
M  V30 21 1 21 22
M  V30 22 2 22 23
M  V30 23 1 22 24
M  V30 24 2 24 25
M  V30 25 1 24 26
M  V30 26 1 25 27
M  V30 27 2 26 28
M  V30 28 2 27 29
M  V30 29 1 27 30
M  V30 30 1 30 31
M  V30 31 1 30 32
M  V30 32 1 30 33
M  V30 33 3 31 34
M  V30 34 1 7 9
M  V30 35 1 11 12
M  V30 36 1 19 20
M  V30 37 1 28 29
M  V30 END BOND
M  V30 END CTAB
M  END
>  <Molecule Name>
Compound 802

>  <Molecule Name 2>
Compound 802

>  <Compound ID>
223

>  <Name>
AZ628

>  <Uniprot>
Q16539

>  <Target>
p38alpha

>  <Smiles>
CC1=CC=C(NC(=O)C2=CC=CC(C(C)(C)C#N)=C2)C=C1NC1=CC=C2N=CN(C)C(=O)C2=C1

>  <Kd (nM)>


>  <Assay (Kd)>


>  <Ki (nM)>


>  <Assay (Ki)>


>  <IC50 (nM)>


>  <Assay (IC50)>


>  <EC50 (nM)>


>  <Assay (EC50)>


>  <Article DOI>
10.1016/j.cell.2020.10.038

>  <Molecular Weight>
451.53

>  <Exact Mass>
451.200825

>  <XLogP3>
4.22

>  <Heavy Atom Count>
34

>  <Ring Count>
4

>  <Hydrogen Bond Acceptor Count>
6

>  <Hydrogen Bond Donor Count>
2

>  <Rotatable Bond Count>
5

>  <Topological Polar Surface Area>
99.81

>  <Molecular Formula>
C27H25N5O2

>  <InChI>
InChI=1S/C27H25N5O2/c1-17-8-9-21(31-25(33)18-6-5-7-19(12-18)27(2,3)15-28)14-24(17)30-20-10-11-23-22(13-20)26(34)32(4)16-29-23/h5-14,16,30H,1-4H3,(H,31,33)

>  <InChI Key>
ZGBGPEDJXCYQPH-UHFFFAOYSA-N

>  <BindingDB>
50430022

>  <PubChem>
11676786

>  <ChEMBL>
CHEMBL2144069

$$$$
224
Actelion Java MolfileCreator 2.0

  0  0  0  0  0  0              0 V3000
M  V30 BEGIN CTAB
M  V30 COUNTS 23 25 0 0 0
M  V30 BEGIN ATOM
M  V30 1 O 1.732 -0.5 0.0 0
M  V30 2 C 0.866 0.0 0.0 0
M  V30 3 N 0.866 1.0 0.0 0
M  V30 4 C 0.0 -0.5 0.0 0
M  V30 5 N -0.9135 -0.0932 0.0 0
M  V30 6 C -0.1045 -1.4945 0.0 0
M  V30 7 N -1.2225 0.8577 0.0 0
M  V30 8 C -1.5826 -0.8364 0.0 0
M  V30 9 N -1.0826 -1.7024 0.0 0
M  V30 10 C -2.2007 1.0657 0.0 0
M  V30 11 C -2.5608 -0.6284 0.0 0
M  V30 12 N -2.5097 2.0167 0.0 0
M  V30 13 C -2.8698 0.3225 0.0 0
M  V30 14 N -3.2299 -1.3716 0.0 0
M  V30 15 C -3.4878 2.2246 0.0 0
M  V30 16 C -2.9209 -2.3226 0.0 0
M  V30 17 C -3.7968 3.1757 0.0 0
M  V30 18 C -4.157 1.4815 0.0 0
M  V30 19 C -4.775 3.3836 0.0 0
M  V30 20 C -5.1351 1.6894 0.0 0
M  V30 21 C -5.4441 2.6404 0.0 0
M  V30 22 C -5.084 4.3346 0.0 0
M  V30 23 C -5.8042 0.9462 0.0 0
M  V30 END ATOM
M  V30 BEGIN BOND
M  V30 1 2 1 2
M  V30 2 1 2 3
M  V30 3 1 2 4
M  V30 4 1 4 5
M  V30 5 2 4 6
M  V30 6 1 5 7
M  V30 7 1 5 8
M  V30 8 1 6 9
M  V30 9 2 7 10
M  V30 10 1 8 11
M  V30 11 1 10 12
M  V30 12 1 10 13
M  V30 13 1 11 14
M  V30 14 1 12 15
M  V30 15 1 14 16
M  V30 16 2 15 17
M  V30 17 1 15 18
M  V30 18 1 17 19
M  V30 19 2 18 20
M  V30 20 2 19 21
M  V30 21 1 19 22
M  V30 22 1 20 23
M  V30 23 2 8 9
M  V30 24 2 11 13
M  V30 25 1 20 21
M  V30 END BOND
M  V30 END CTAB
M  END
>  <Molecule Name>
Compound 803

>  <Molecule Name 2>
Compound 803

>  <Compound ID>
224

>  <Name>
TYK2-IN-2

>  <Uniprot>
P31749

>  <Target>
AKT1

>  <Smiles>
CNC1=CC(NC2=CC(C)=CC(C)=C2)=NN2C(C(N)=O)=CN=C12

>  <Kd (nM)>


>  <Assay (Kd)>


>  <Ki (nM)>


>  <Assay (Ki)>


>  <IC50 (nM)>


>  <Assay (IC50)>


>  <EC50 (nM)>


>  <Assay (EC50)>


>  <Article DOI>
10.1016/j.cell.2020.10.038

>  <Molecular Weight>
310.361

>  <Exact Mass>
310.1542092

>  <XLogP3>
2.12

>  <Heavy Atom Count>
23

>  <Ring Count>
3

>  <Hydrogen Bond Acceptor Count>
6

>  <Hydrogen Bond Donor Count>
3

>  <Rotatable Bond Count>
4

>  <Topological Polar Surface Area>
97.34

>  <Molecular Formula>
C16H18N6O

>  <InChI>
InChI=1S/C16H18N6O/c1-9-4-10(2)6-11(5-9)20-14-7-12(18-3)16-19-8-13(15(17)23)22(16)21-14/h4-8,18H,1-3H3,(H2,17,23)(H,20,21)

>  <InChI Key>
SNVFFECYFQEWTL-UHFFFAOYSA-N

>  <BindingDB>


>  <PubChem>
129626433

>  <ChEMBL>
CHEMBL4279157

$$$$
224
Actelion Java MolfileCreator 2.0

  0  0  0  0  0  0              0 V3000
M  V30 BEGIN CTAB
M  V30 COUNTS 23 25 0 0 0
M  V30 BEGIN ATOM
M  V30 1 O 1.732 -0.5 0.0 0
M  V30 2 C 0.866 0.0 0.0 0
M  V30 3 N 0.866 1.0 0.0 0
M  V30 4 C 0.0 -0.5 0.0 0
M  V30 5 N -0.9135 -0.0932 0.0 0
M  V30 6 C -0.1045 -1.4945 0.0 0
M  V30 7 N -1.2225 0.8577 0.0 0
M  V30 8 C -1.5826 -0.8364 0.0 0
M  V30 9 N -1.0826 -1.7024 0.0 0
M  V30 10 C -2.2007 1.0657 0.0 0
M  V30 11 C -2.5608 -0.6284 0.0 0
M  V30 12 N -2.5097 2.0167 0.0 0
M  V30 13 C -2.8698 0.3225 0.0 0
M  V30 14 N -3.2299 -1.3716 0.0 0
M  V30 15 C -3.4878 2.2246 0.0 0
M  V30 16 C -2.9209 -2.3226 0.0 0
M  V30 17 C -3.7968 3.1757 0.0 0
M  V30 18 C -4.157 1.4815 0.0 0
M  V30 19 C -4.775 3.3836 0.0 0
M  V30 20 C -5.1351 1.6894 0.0 0
M  V30 21 C -5.4441 2.6404 0.0 0
M  V30 22 C -5.084 4.3346 0.0 0
M  V30 23 C -5.8042 0.9462 0.0 0
M  V30 END ATOM
M  V30 BEGIN BOND
M  V30 1 2 1 2
M  V30 2 1 2 3
M  V30 3 1 2 4
M  V30 4 1 4 5
M  V30 5 2 4 6
M  V30 6 1 5 7
M  V30 7 1 5 8
M  V30 8 1 6 9
M  V30 9 2 7 10
M  V30 10 1 8 11
M  V30 11 1 10 12
M  V30 12 1 10 13
M  V30 13 1 11 14
M  V30 14 1 12 15
M  V30 15 1 14 16
M  V30 16 2 15 17
M  V30 17 1 15 18
M  V30 18 1 17 19
M  V30 19 2 18 20
M  V30 20 2 19 21
M  V30 21 1 19 22
M  V30 22 1 20 23
M  V30 23 2 8 9
M  V30 24 2 11 13
M  V30 25 1 20 21
M  V30 END BOND
M  V30 END CTAB
M  END
>  <Molecule Name>
Compound 804

>  <Molecule Name 2>
Compound 804

>  <Compound ID>
224

>  <Name>
TYK2-IN-2

>  <Uniprot>
P31751

>  <Target>
AKT2

>  <Smiles>
CNC1=CC(NC2=CC(C)=CC(C)=C2)=NN2C(C(N)=O)=CN=C12

>  <Kd (nM)>


>  <Assay (Kd)>


>  <Ki (nM)>


>  <Assay (Ki)>


>  <IC50 (nM)>


>  <Assay (IC50)>


>  <EC50 (nM)>


>  <Assay (EC50)>


>  <Article DOI>
10.1016/j.cell.2020.10.038

>  <Molecular Weight>
310.361

>  <Exact Mass>
310.1542092

>  <XLogP3>
2.12

>  <Heavy Atom Count>
23

>  <Ring Count>
3

>  <Hydrogen Bond Acceptor Count>
6

>  <Hydrogen Bond Donor Count>
3

>  <Rotatable Bond Count>
4

>  <Topological Polar Surface Area>
97.34

>  <Molecular Formula>
C16H18N6O

>  <InChI>
InChI=1S/C16H18N6O/c1-9-4-10(2)6-11(5-9)20-14-7-12(18-3)16-19-8-13(15(17)23)22(16)21-14/h4-8,18H,1-3H3,(H2,17,23)(H,20,21)

>  <InChI Key>
SNVFFECYFQEWTL-UHFFFAOYSA-N

>  <BindingDB>


>  <PubChem>
129626433

>  <ChEMBL>
CHEMBL4279157

$$$$
224
Actelion Java MolfileCreator 2.0

  0  0  0  0  0  0              0 V3000
M  V30 BEGIN CTAB
M  V30 COUNTS 23 25 0 0 0
M  V30 BEGIN ATOM
M  V30 1 O 1.732 -0.5 0.0 0
M  V30 2 C 0.866 0.0 0.0 0
M  V30 3 N 0.866 1.0 0.0 0
M  V30 4 C 0.0 -0.5 0.0 0
M  V30 5 N -0.9135 -0.0932 0.0 0
M  V30 6 C -0.1045 -1.4945 0.0 0
M  V30 7 N -1.2225 0.8577 0.0 0
M  V30 8 C -1.5826 -0.8364 0.0 0
M  V30 9 N -1.0826 -1.7024 0.0 0
M  V30 10 C -2.2007 1.0657 0.0 0
M  V30 11 C -2.5608 -0.6284 0.0 0
M  V30 12 N -2.5097 2.0167 0.0 0
M  V30 13 C -2.8698 0.3225 0.0 0
M  V30 14 N -3.2299 -1.3716 0.0 0
M  V30 15 C -3.4878 2.2246 0.0 0
M  V30 16 C -2.9209 -2.3226 0.0 0
M  V30 17 C -3.7968 3.1757 0.0 0
M  V30 18 C -4.157 1.4815 0.0 0
M  V30 19 C -4.775 3.3836 0.0 0
M  V30 20 C -5.1351 1.6894 0.0 0
M  V30 21 C -5.4441 2.6404 0.0 0
M  V30 22 C -5.084 4.3346 0.0 0
M  V30 23 C -5.8042 0.9462 0.0 0
M  V30 END ATOM
M  V30 BEGIN BOND
M  V30 1 2 1 2
M  V30 2 1 2 3
M  V30 3 1 2 4
M  V30 4 1 4 5
M  V30 5 2 4 6
M  V30 6 1 5 7
M  V30 7 1 5 8
M  V30 8 1 6 9
M  V30 9 2 7 10
M  V30 10 1 8 11
M  V30 11 1 10 12
M  V30 12 1 10 13
M  V30 13 1 11 14
M  V30 14 1 12 15
M  V30 15 1 14 16
M  V30 16 2 15 17
M  V30 17 1 15 18
M  V30 18 1 17 19
M  V30 19 2 18 20
M  V30 20 2 19 21
M  V30 21 1 19 22
M  V30 22 1 20 23
M  V30 23 2 8 9
M  V30 24 2 11 13
M  V30 25 1 20 21
M  V30 END BOND
M  V30 END CTAB
M  END
>  <Molecule Name>
Compound 805

>  <Molecule Name 2>
Compound 805

>  <Compound ID>
224

>  <Name>
TYK2-IN-2

>  <Uniprot>
Q9Y243

>  <Target>
AKT3

>  <Smiles>
CNC1=CC(NC2=CC(C)=CC(C)=C2)=NN2C(C(N)=O)=CN=C12

>  <Kd (nM)>


>  <Assay (Kd)>


>  <Ki (nM)>


>  <Assay (Ki)>


>  <IC50 (nM)>


>  <Assay (IC50)>


>  <EC50 (nM)>


>  <Assay (EC50)>


>  <Article DOI>
10.1016/j.cell.2020.10.038

>  <Molecular Weight>
310.361

>  <Exact Mass>
310.1542092

>  <XLogP3>
2.12

>  <Heavy Atom Count>
23

>  <Ring Count>
3

>  <Hydrogen Bond Acceptor Count>
6

>  <Hydrogen Bond Donor Count>
3

>  <Rotatable Bond Count>
4

>  <Topological Polar Surface Area>
97.34

>  <Molecular Formula>
C16H18N6O

>  <InChI>
InChI=1S/C16H18N6O/c1-9-4-10(2)6-11(5-9)20-14-7-12(18-3)16-19-8-13(15(17)23)22(16)21-14/h4-8,18H,1-3H3,(H2,17,23)(H,20,21)

>  <InChI Key>
SNVFFECYFQEWTL-UHFFFAOYSA-N

>  <BindingDB>


>  <PubChem>
129626433

>  <ChEMBL>
CHEMBL4279157

$$$$
225
Actelion Java MolfileCreator 2.0

  0  0  0  0  0  0              0 V3000
M  V30 BEGIN CTAB
M  V30 COUNTS 28 31 0 0 0
M  V30 BEGIN ATOM
M  V30 1 F 4.3301 0.9999 0.0 0
M  V30 2 C 4.3301 0.0 0.0 0
M  V30 3 C 3.4641 -0.5 0.0 0
M  V30 4 C 5.1961 -0.5 0.0 0
M  V30 5 N 2.598 0.0 0.0 0
M  V30 6 C 3.4641 -1.5 0.0 0
M  V30 7 C 5.1961 -1.5 0.0 0
M  V30 8 C 1.732 -0.5 0.0 0
M  V30 9 C 4.3301 -2.0 0.0 0
M  V30 10 O 1.732 -1.5 0.0 0
M  V30 11 N 0.866 0.0 0.0 0
M  V30 12 C 4.3301 -3.0 0.0 0
M  V30 13 C 0.0 -0.5 0.0 0
M  V30 14 C -0.866 0.0 0.0 0
M  V30 15 C 0.0 -1.4999 0.0 0
M  V30 16 C -1.732 -0.4999 0.0 0
M  V30 17 C -0.866 -1.9999 0.0 0
M  V30 18 C -1.732 -1.4999 0.0 0
M  V30 19 C -2.598 -1.9999 0.0 0
M  V30 20 C -3.4641 -1.4999 0.0 0
M  V30 21 C -2.598 -2.9999 0.0 0
M  V30 22 C -3.672 -0.5218 0.0 0
M  V30 23 C -4.3301 -1.9999 0.0 0
M  V30 24 C -3.4641 -3.4999 0.0 0
M  V30 25 N -4.6665 -0.4173 0.0 0
M  V30 26 N -3.0028 0.2212 0.0 0
M  V30 27 N -5.0732 -1.3308 0.0 0
M  V30 28 C -4.3301 -2.9999 0.0 0
M  V30 END ATOM
M  V30 BEGIN BOND
M  V30 1 1 1 2
M  V30 2 2 2 3
M  V30 3 1 2 4
M  V30 4 1 3 5
M  V30 5 1 3 6
M  V30 6 2 4 7
M  V30 7 1 5 8
M  V30 8 2 6 9
M  V30 9 2 8 10
M  V30 10 1 8 11
M  V30 11 1 9 12
M  V30 12 1 11 13
M  V30 13 2 13 14
M  V30 14 1 13 15
M  V30 15 1 14 16
M  V30 16 2 15 17
M  V30 17 2 16 18
M  V30 18 1 18 19
M  V30 19 2 19 20
M  V30 20 1 19 21
M  V30 21 1 20 22
M  V30 22 1 20 23
M  V30 23 2 21 24
M  V30 24 2 22 25
M  V30 25 1 22 26
M  V30 26 1 23 27
M  V30 27 2 23 28
M  V30 28 1 7 9
M  V30 29 1 17 18
M  V30 30 1 24 28
M  V30 31 1 25 27
M  V30 END BOND
M  V30 END CTAB
M  END
>  <Molecule Name>
Compound 806

>  <Molecule Name 2>
Compound 806

>  <Compound ID>
225

>  <Name>
Linifanib

>  <Uniprot>
P35968

>  <Target>
VEGFR-2

>  <Smiles>
CC1=CC=C(F)C(NC(=O)NC2=CC=C(C3=CC=CC4=C3C(N)=N[NH]4)C=C2)=C1

>  <Kd (nM)>


>  <Assay (Kd)>


>  <Ki (nM)>


>  <Assay (Ki)>


>  <IC50 (nM)>
8.404

>  <Assay (IC50)>
IC50 was assessed by ADP-Glo Kinase Assay Kit

>  <EC50 (nM)>


>  <Assay (EC50)>


>  <Article DOI>
10.1016/j.ejmech.2020.112654

>  <Molecular Weight>
375.407

>  <Exact Mass>
375.1495384

>  <XLogP3>
3.86

>  <Heavy Atom Count>
28

>  <Ring Count>
4

>  <Hydrogen Bond Acceptor Count>
3

>  <Hydrogen Bond Donor Count>
4

>  <Rotatable Bond Count>
3

>  <Topological Polar Surface Area>
95.83

>  <Molecular Formula>
C21H18FN5O

>  <InChI>
InChI=1S/C21H18FN5O/c1-12-5-10-16(22)18(11-12)25-21(28)24-14-8-6-13(7-9-14)15-3-2-4-17-19(15)20(23)27-26-17/h2-11H,1H3,(H3,23,26,27)(H2,24,25,28)

>  <InChI Key>
MPVGZUGXCQEXTM-UHFFFAOYSA-N

>  <BindingDB>
21079

>  <PubChem>
11485656

>  <ChEMBL>
CHEMBL223360

$$$$
226
Actelion Java MolfileCreator 2.0

  0  0  0  0  0  0              0 V3000
M  V30 BEGIN CTAB
M  V30 COUNTS 39 42 0 0 0
M  V30 BEGIN ATOM
M  V30 1 F 0.5 1.6339 0.0 0
M  V30 2 C 0.0 2.4999 0.0 0
M  V30 3 F -0.866 1.9999 0.0 0
M  V30 4 F -0.5 3.366 0.0 0
M  V30 5 C 0.866 2.9999 0.0 0
M  V30 6 C 1.732 2.5 0.0 0
M  V30 7 C 0.866 3.9999 0.0 0
M  V30 8 N 1.732 1.4999 0.0 0
M  V30 9 C 2.598 3.0 0.0 0
M  V30 10 N 1.732 4.5 0.0 0
M  V30 11 C 2.598 1.0 0.0 0
M  V30 12 C 2.598 4.0 0.0 0
M  V30 13 C 2.598 0.0 0.0 0
M  V30 14 C 3.4641 1.4999 0.0 0
M  V30 15 N 3.4641 4.5 0.0 0
M  V30 16 C 1.732 -0.5 0.0 0
M  V30 17 C 3.4641 -0.5 0.0 0
M  V30 18 C 4.3301 1.0 0.0 0
M  V30 19 C 3.4641 5.5 0.0 0
M  V30 20 O 1.732 -1.5 0.0 0
M  V30 21 N 0.866 0.0 0.0 0
M  V30 22 C 4.3301 0.0 0.0 0
M  V30 23 C 4.3301 6.0 0.0 0
M  V30 24 C 2.598 6.0 0.0 0
M  V30 25 C 0.0 -0.5 0.0 0
M  V30 26 O 5.1961 5.5 0.0 0
M  V30 27 C 4.3301 7.0 0.0 0
M  V30 28 C 2.598 7.0 0.0 0
M  V30 29 C 5.1961 4.5 0.0 0
M  V30 30 C 3.4641 7.5 0.0 0
M  V30 31 C 1.732 7.5 0.0 0
M  V30 32 C 4.3301 4.0 0.0 0
M  V30 33 C 6.0621 4.0 0.0 0
M  V30 34 C 3.4641 8.5 0.0 0
M  V30 35 C 4.3301 9.0 0.0 0
M  V30 36 C 2.598 9.0 0.0 0
M  V30 37 C 4.3301 10.0 0.0 0
M  V30 38 C 2.598 10.0 0.0 0
M  V30 39 N 3.4641 10.5 0.0 0
M  V30 END ATOM
M  V30 BEGIN BOND
M  V30 1 1 1 2
M  V30 2 1 2 3
M  V30 3 1 2 4
M  V30 4 1 2 5
M  V30 5 2 5 6
M  V30 6 1 5 7
M  V30 7 1 6 8
M  V30 8 1 6 9
M  V30 9 2 7 10
M  V30 10 1 8 11
M  V30 11 2 9 12
M  V30 12 2 11 13
M  V30 13 1 11 14
M  V30 14 1 12 15
M  V30 15 1 13 16
M  V30 16 1 13 17
M  V30 17 2 14 18
M  V30 18 1 15 19
M  V30 19 2 16 20
M  V30 20 1 16 21
M  V30 21 2 17 22
M  V30 22 2 19 23
M  V30 23 1 19 24
M  V30 24 1 21 25
M  V30 25 1 23 26
M  V30 26 1 23 27
M  V30 27 2 24 28
M  V30 28 1 26 29
M  V30 29 2 27 30
M  V30 30 1 28 31
M  V30 31 1 29 32
M  V30 32 1 29 33
M  V30 33 1 30 34
M  V30 34 1 34 35
M  V30 35 1 34 36
M  V30 36 1 35 37
M  V30 37 1 36 38
M  V30 38 1 37 39
M  V30 39 1 10 12
M  V30 40 1 18 22
M  V30 41 1 28 30
M  V30 42 1 38 39
M  V30 END BOND
M  V30 END CTAB
M  END
>  <Molecule Name>
Compound 807

>  <Molecule Name 2>
Compound 807

>  <Compound ID>
226

>  <Name>


>  <Uniprot>
Q05397

>  <Target>
FAK

>  <Smiles>
CNC(=O)C1=CC=CC=C1NC1=CC(NC2=CC(C)=C(C3CCNCC3)C=C2OC(C)C)=NC=C1C(F)(F)F

>  <Kd (nM)>


>  <Assay (Kd)>


>  <Ki (nM)>


>  <Assay (Ki)>


>  <IC50 (nM)>


>  <Assay (IC50)>


>  <EC50 (nM)>


>  <Assay (EC50)>


>  <Article DOI>


>  <Molecular Weight>
541.618

>  <Exact Mass>
541.26646

>  <XLogP3>
6.23

>  <Heavy Atom Count>
39

>  <Ring Count>
4

>  <Hydrogen Bond Acceptor Count>
6

>  <Hydrogen Bond Donor Count>
4

>  <Rotatable Bond Count>
8

>  <Topological Polar Surface Area>
87.31

>  <Molecular Formula>
C29H34F3N5O2

>  <InChI>
InChI=1S/C29H34F3N5O2/c1-17(2)39-26-14-21(19-9-11-34-12-10-19)18(3)13-25(26)37-27-15-24(22(16-35-27)29(30,31)32)36-23-8-6-5-7-20(23)28(38)33-4/h5-8,13-17,19,34H,9-12H2,1-4H3,(H,33,38)(H2,35,36,37)

>  <InChI Key>
DRSVKEXHFXXQEV-UHFFFAOYSA-N

>  <BindingDB>


>  <PubChem>
153555645

>  <ChEMBL>


$$$$
227
Actelion Java MolfileCreator 2.0

  0  0  0  0  0  0              0 V3000
M  V30 BEGIN CTAB
M  V30 COUNTS 36 39 0 0 0
M  V30 BEGIN ATOM
M  V30 1 S 2.598 -0.75 0.0 0
M  V30 2 O 1.0981 -0.75 0.0 0
M  V30 3 O 1.8481 0.549 0.0 0
M  V30 4 N 2.598 -2.25 0.0 0
M  V30 5 C 3.8971 0.0 0.0 0
M  V30 6 C 1.299 -3.0 0.0 0
M  V30 7 C 5.1961 -0.75 0.0 0
M  V30 8 C 3.8971 1.5 0.0 0
M  V30 9 C 0.549 -1.7009 0.0 0
M  V30 10 C 0.0 -3.75 0.0 0
M  V30 11 C 2.049 -4.299 0.0 0
M  V30 12 C 6.4951 0.0 0.0 0
M  V30 13 C 5.1961 2.25 0.0 0
M  V30 14 N 7.7942 -0.75 0.0 0
M  V30 15 C 6.4951 1.5 0.0 0
M  V30 16 C 9.0932 0.0 0.0 0
M  V30 17 N 10.3923 -0.75 0.0 0
M  V30 18 C 9.0932 1.5 0.0 0
M  V30 19 C 11.6913 0.0 0.0 0
M  V30 20 C 10.3923 2.25 0.0 0
M  V30 21 C 7.7942 2.25 0.0 0
M  V30 22 N 11.6913 1.5 0.0 0
M  V30 23 N 12.9903 -0.75 0.0 0
M  V30 24 C 14.2894 0.0 0.0 0
M  V30 25 C 15.5884 -0.75 0.0 0
M  V30 26 C 14.2894 1.5 0.0 0
M  V30 27 C 16.8875 0.0 0.0 0
M  V30 28 C 15.5884 2.25 0.0 0
M  V30 29 C 16.8875 1.5 0.0 0
M  V30 30 N 18.1865 2.25 0.0 0
M  V30 31 C 19.4855 1.5 0.0 0
M  V30 32 C 18.1865 3.75 0.0 0
M  V30 33 C 20.7846 2.25 0.0 0
M  V30 34 C 19.4855 4.5 0.0 0
M  V30 35 N 20.7846 3.75 0.0 0
M  V30 36 C 22.0836 4.5 0.0 0
M  V30 END ATOM
M  V30 BEGIN BOND
M  V30 1 2 1 2
M  V30 2 2 1 3
M  V30 3 1 1 4
M  V30 4 1 1 5
M  V30 5 1 4 6
M  V30 6 2 5 7
M  V30 7 1 5 8
M  V30 8 1 6 9
M  V30 9 1 6 10
M  V30 10 1 6 11
M  V30 11 1 7 12
M  V30 12 2 8 13
M  V30 13 1 12 14
M  V30 14 2 12 15
M  V30 15 1 14 16
M  V30 16 2 16 17
M  V30 17 1 16 18
M  V30 18 1 17 19
M  V30 19 2 18 20
M  V30 20 1 18 21
M  V30 21 2 19 22
M  V30 22 1 19 23
M  V30 23 1 23 24
M  V30 24 2 24 25
M  V30 25 1 24 26
M  V30 26 1 25 27
M  V30 27 2 26 28
M  V30 28 2 27 29
M  V30 29 1 29 30
M  V30 30 1 30 31
M  V30 31 1 30 32
M  V30 32 1 31 33
M  V30 33 1 32 34
M  V30 34 1 33 35
M  V30 35 1 35 36
M  V30 36 1 13 15
M  V30 37 1 20 22
M  V30 38 1 28 29
M  V30 39 1 34 35
M  V30 END BOND
M  V30 END CTAB
M  END
>  <Molecule Name>
Compound 808

>  <Molecule Name 2>
Compound 808

>  <Compound ID>
227

>  <Name>
TG101209

>  <Uniprot>
Q2M2I8

>  <Target>
AAK1

>  <Smiles>
CC1=CN=C(NC2=CC=C(N3CCN(C)CC3)C=C2)N=C1NC1=CC=CC(S(=O)(=O)NC(C)(C)C)=C1

>  <Kd (nM)>


>  <Assay (Kd)>


>  <Ki (nM)>


>  <Assay (Ki)>


>  <IC50 (nM)>


>  <Assay (IC50)>


>  <EC50 (nM)>


>  <Assay (EC50)>


>  <Article DOI>
10.1016/j.cell.2020.10.038

>  <Molecular Weight>
509.68

>  <Exact Mass>
509.2572944

>  <XLogP3>
4.2

>  <Heavy Atom Count>
36

>  <Ring Count>
4

>  <Hydrogen Bond Acceptor Count>
8

>  <Hydrogen Bond Donor Count>
3

>  <Rotatable Bond Count>
7

>  <Topological Polar Surface Area>
102.49

>  <Molecular Formula>
C26H35N7O2S

>  <InChI>
InChI=1S/C26H35N7O2S/c1-19-18-27-25(29-20-9-11-22(12-10-20)33-15-13-32(5)14-16-33)30-24(19)28-21-7-6-8-23(17-21)36(34,35)31-26(2,3)4/h6-12,17-18,31H,13-16H2,1-5H3,(H2,27,28,29,30)

>  <InChI Key>
JVDOKQYTTYUYDV-UHFFFAOYSA-N

>  <BindingDB>
192755

>  <PubChem>
16722832

>  <ChEMBL>
CHEMBL1995703

$$$$
227
Actelion Java MolfileCreator 2.0

  0  0  0  0  0  0              0 V3000
M  V30 BEGIN CTAB
M  V30 COUNTS 36 39 0 0 0
M  V30 BEGIN ATOM
M  V30 1 S 2.598 -0.75 0.0 0
M  V30 2 O 1.0981 -0.75 0.0 0
M  V30 3 O 1.8481 0.549 0.0 0
M  V30 4 N 2.598 -2.25 0.0 0
M  V30 5 C 3.8971 0.0 0.0 0
M  V30 6 C 1.299 -3.0 0.0 0
M  V30 7 C 5.1961 -0.75 0.0 0
M  V30 8 C 3.8971 1.5 0.0 0
M  V30 9 C 0.549 -1.7009 0.0 0
M  V30 10 C 0.0 -3.75 0.0 0
M  V30 11 C 2.049 -4.299 0.0 0
M  V30 12 C 6.4951 0.0 0.0 0
M  V30 13 C 5.1961 2.25 0.0 0
M  V30 14 N 7.7942 -0.75 0.0 0
M  V30 15 C 6.4951 1.5 0.0 0
M  V30 16 C 9.0932 0.0 0.0 0
M  V30 17 N 10.3923 -0.75 0.0 0
M  V30 18 C 9.0932 1.5 0.0 0
M  V30 19 C 11.6913 0.0 0.0 0
M  V30 20 C 10.3923 2.25 0.0 0
M  V30 21 C 7.7942 2.25 0.0 0
M  V30 22 N 11.6913 1.5 0.0 0
M  V30 23 N 12.9903 -0.75 0.0 0
M  V30 24 C 14.2894 0.0 0.0 0
M  V30 25 C 15.5884 -0.75 0.0 0
M  V30 26 C 14.2894 1.5 0.0 0
M  V30 27 C 16.8875 0.0 0.0 0
M  V30 28 C 15.5884 2.25 0.0 0
M  V30 29 C 16.8875 1.5 0.0 0
M  V30 30 N 18.1865 2.25 0.0 0
M  V30 31 C 19.4855 1.5 0.0 0
M  V30 32 C 18.1865 3.75 0.0 0
M  V30 33 C 20.7846 2.25 0.0 0
M  V30 34 C 19.4855 4.5 0.0 0
M  V30 35 N 20.7846 3.75 0.0 0
M  V30 36 C 22.0836 4.5 0.0 0
M  V30 END ATOM
M  V30 BEGIN BOND
M  V30 1 2 1 2
M  V30 2 2 1 3
M  V30 3 1 1 4
M  V30 4 1 1 5
M  V30 5 1 4 6
M  V30 6 2 5 7
M  V30 7 1 5 8
M  V30 8 1 6 9
M  V30 9 1 6 10
M  V30 10 1 6 11
M  V30 11 1 7 12
M  V30 12 2 8 13
M  V30 13 1 12 14
M  V30 14 2 12 15
M  V30 15 1 14 16
M  V30 16 2 16 17
M  V30 17 1 16 18
M  V30 18 1 17 19
M  V30 19 2 18 20
M  V30 20 1 18 21
M  V30 21 2 19 22
M  V30 22 1 19 23
M  V30 23 1 23 24
M  V30 24 2 24 25
M  V30 25 1 24 26
M  V30 26 1 25 27
M  V30 27 2 26 28
M  V30 28 2 27 29
M  V30 29 1 29 30
M  V30 30 1 30 31
M  V30 31 1 30 32
M  V30 32 1 31 33
M  V30 33 1 32 34
M  V30 34 1 33 35
M  V30 35 1 35 36
M  V30 36 1 13 15
M  V30 37 1 20 22
M  V30 38 1 28 29
M  V30 39 1 34 35
M  V30 END BOND
M  V30 END CTAB
M  END
>  <Molecule Name>
Compound 809

>  <Molecule Name 2>
Compound 809

>  <Compound ID>
227

>  <Name>
TG101209

>  <Uniprot>
O14965

>  <Target>
AURKA

>  <Smiles>
CC1=CN=C(NC2=CC=C(N3CCN(C)CC3)C=C2)N=C1NC1=CC=CC(S(=O)(=O)NC(C)(C)C)=C1

>  <Kd (nM)>


>  <Assay (Kd)>


>  <Ki (nM)>


>  <Assay (Ki)>


>  <IC50 (nM)>


>  <Assay (IC50)>


>  <EC50 (nM)>


>  <Assay (EC50)>


>  <Article DOI>
10.1016/j.cell.2020.10.038

>  <Molecular Weight>
509.68

>  <Exact Mass>
509.2572944

>  <XLogP3>
4.2

>  <Heavy Atom Count>
36

>  <Ring Count>
4

>  <Hydrogen Bond Acceptor Count>
8

>  <Hydrogen Bond Donor Count>
3

>  <Rotatable Bond Count>
7

>  <Topological Polar Surface Area>
102.49

>  <Molecular Formula>
C26H35N7O2S

>  <InChI>
InChI=1S/C26H35N7O2S/c1-19-18-27-25(29-20-9-11-22(12-10-20)33-15-13-32(5)14-16-33)30-24(19)28-21-7-6-8-23(17-21)36(34,35)31-26(2,3)4/h6-12,17-18,31H,13-16H2,1-5H3,(H2,27,28,29,30)

>  <InChI Key>
JVDOKQYTTYUYDV-UHFFFAOYSA-N

>  <BindingDB>
192755

>  <PubChem>
16722832

>  <ChEMBL>
CHEMBL1995703

$$$$
227
Actelion Java MolfileCreator 2.0

  0  0  0  0  0  0              0 V3000
M  V30 BEGIN CTAB
M  V30 COUNTS 36 39 0 0 0
M  V30 BEGIN ATOM
M  V30 1 S 2.598 -0.75 0.0 0
M  V30 2 O 1.0981 -0.75 0.0 0
M  V30 3 O 1.8481 0.549 0.0 0
M  V30 4 N 2.598 -2.25 0.0 0
M  V30 5 C 3.8971 0.0 0.0 0
M  V30 6 C 1.299 -3.0 0.0 0
M  V30 7 C 5.1961 -0.75 0.0 0
M  V30 8 C 3.8971 1.5 0.0 0
M  V30 9 C 0.549 -1.7009 0.0 0
M  V30 10 C 0.0 -3.75 0.0 0
M  V30 11 C 2.049 -4.299 0.0 0
M  V30 12 C 6.4951 0.0 0.0 0
M  V30 13 C 5.1961 2.25 0.0 0
M  V30 14 N 7.7942 -0.75 0.0 0
M  V30 15 C 6.4951 1.5 0.0 0
M  V30 16 C 9.0932 0.0 0.0 0
M  V30 17 N 10.3923 -0.75 0.0 0
M  V30 18 C 9.0932 1.5 0.0 0
M  V30 19 C 11.6913 0.0 0.0 0
M  V30 20 C 10.3923 2.25 0.0 0
M  V30 21 C 7.7942 2.25 0.0 0
M  V30 22 N 11.6913 1.5 0.0 0
M  V30 23 N 12.9903 -0.75 0.0 0
M  V30 24 C 14.2894 0.0 0.0 0
M  V30 25 C 15.5884 -0.75 0.0 0
M  V30 26 C 14.2894 1.5 0.0 0
M  V30 27 C 16.8875 0.0 0.0 0
M  V30 28 C 15.5884 2.25 0.0 0
M  V30 29 C 16.8875 1.5 0.0 0
M  V30 30 N 18.1865 2.25 0.0 0
M  V30 31 C 19.4855 1.5 0.0 0
M  V30 32 C 18.1865 3.75 0.0 0
M  V30 33 C 20.7846 2.25 0.0 0
M  V30 34 C 19.4855 4.5 0.0 0
M  V30 35 N 20.7846 3.75 0.0 0
M  V30 36 C 22.0836 4.5 0.0 0
M  V30 END ATOM
M  V30 BEGIN BOND
M  V30 1 2 1 2
M  V30 2 2 1 3
M  V30 3 1 1 4
M  V30 4 1 1 5
M  V30 5 1 4 6
M  V30 6 2 5 7
M  V30 7 1 5 8
M  V30 8 1 6 9
M  V30 9 1 6 10
M  V30 10 1 6 11
M  V30 11 1 7 12
M  V30 12 2 8 13
M  V30 13 1 12 14
M  V30 14 2 12 15
M  V30 15 1 14 16
M  V30 16 2 16 17
M  V30 17 1 16 18
M  V30 18 1 17 19
M  V30 19 2 18 20
M  V30 20 1 18 21
M  V30 21 2 19 22
M  V30 22 1 19 23
M  V30 23 1 23 24
M  V30 24 2 24 25
M  V30 25 1 24 26
M  V30 26 1 25 27
M  V30 27 2 26 28
M  V30 28 2 27 29
M  V30 29 1 29 30
M  V30 30 1 30 31
M  V30 31 1 30 32
M  V30 32 1 31 33
M  V30 33 1 32 34
M  V30 34 1 33 35
M  V30 35 1 35 36
M  V30 36 1 13 15
M  V30 37 1 20 22
M  V30 38 1 28 29
M  V30 39 1 34 35
M  V30 END BOND
M  V30 END CTAB
M  END
>  <Molecule Name>
Compound 810

>  <Molecule Name 2>
Compound 810

>  <Compound ID>
227

>  <Name>
TG101209

>  <Uniprot>
Q9NSY1

>  <Target>
BMP2K

>  <Smiles>
CC1=CN=C(NC2=CC=C(N3CCN(C)CC3)C=C2)N=C1NC1=CC=CC(S(=O)(=O)NC(C)(C)C)=C1

>  <Kd (nM)>


>  <Assay (Kd)>


>  <Ki (nM)>


>  <Assay (Ki)>


>  <IC50 (nM)>


>  <Assay (IC50)>


>  <EC50 (nM)>


>  <Assay (EC50)>


>  <Article DOI>
10.1016/j.cell.2020.10.038

>  <Molecular Weight>
509.68

>  <Exact Mass>
509.2572944

>  <XLogP3>
4.2

>  <Heavy Atom Count>
36

>  <Ring Count>
4

>  <Hydrogen Bond Acceptor Count>
8

>  <Hydrogen Bond Donor Count>
3

>  <Rotatable Bond Count>
7

>  <Topological Polar Surface Area>
102.49

>  <Molecular Formula>
C26H35N7O2S

>  <InChI>
InChI=1S/C26H35N7O2S/c1-19-18-27-25(29-20-9-11-22(12-10-20)33-15-13-32(5)14-16-33)30-24(19)28-21-7-6-8-23(17-21)36(34,35)31-26(2,3)4/h6-12,17-18,31H,13-16H2,1-5H3,(H2,27,28,29,30)

>  <InChI Key>
JVDOKQYTTYUYDV-UHFFFAOYSA-N

>  <BindingDB>
192755

>  <PubChem>
16722832

>  <ChEMBL>
CHEMBL1995703

$$$$
227
Actelion Java MolfileCreator 2.0

  0  0  0  0  0  0              0 V3000
M  V30 BEGIN CTAB
M  V30 COUNTS 36 39 0 0 0
M  V30 BEGIN ATOM
M  V30 1 S 2.598 -0.75 0.0 0
M  V30 2 O 1.0981 -0.75 0.0 0
M  V30 3 O 1.8481 0.549 0.0 0
M  V30 4 N 2.598 -2.25 0.0 0
M  V30 5 C 3.8971 0.0 0.0 0
M  V30 6 C 1.299 -3.0 0.0 0
M  V30 7 C 5.1961 -0.75 0.0 0
M  V30 8 C 3.8971 1.5 0.0 0
M  V30 9 C 0.549 -1.7009 0.0 0
M  V30 10 C 0.0 -3.75 0.0 0
M  V30 11 C 2.049 -4.299 0.0 0
M  V30 12 C 6.4951 0.0 0.0 0
M  V30 13 C 5.1961 2.25 0.0 0
M  V30 14 N 7.7942 -0.75 0.0 0
M  V30 15 C 6.4951 1.5 0.0 0
M  V30 16 C 9.0932 0.0 0.0 0
M  V30 17 N 10.3923 -0.75 0.0 0
M  V30 18 C 9.0932 1.5 0.0 0
M  V30 19 C 11.6913 0.0 0.0 0
M  V30 20 C 10.3923 2.25 0.0 0
M  V30 21 C 7.7942 2.25 0.0 0
M  V30 22 N 11.6913 1.5 0.0 0
M  V30 23 N 12.9903 -0.75 0.0 0
M  V30 24 C 14.2894 0.0 0.0 0
M  V30 25 C 15.5884 -0.75 0.0 0
M  V30 26 C 14.2894 1.5 0.0 0
M  V30 27 C 16.8875 0.0 0.0 0
M  V30 28 C 15.5884 2.25 0.0 0
M  V30 29 C 16.8875 1.5 0.0 0
M  V30 30 N 18.1865 2.25 0.0 0
M  V30 31 C 19.4855 1.5 0.0 0
M  V30 32 C 18.1865 3.75 0.0 0
M  V30 33 C 20.7846 2.25 0.0 0
M  V30 34 C 19.4855 4.5 0.0 0
M  V30 35 N 20.7846 3.75 0.0 0
M  V30 36 C 22.0836 4.5 0.0 0
M  V30 END ATOM
M  V30 BEGIN BOND
M  V30 1 2 1 2
M  V30 2 2 1 3
M  V30 3 1 1 4
M  V30 4 1 1 5
M  V30 5 1 4 6
M  V30 6 2 5 7
M  V30 7 1 5 8
M  V30 8 1 6 9
M  V30 9 1 6 10
M  V30 10 1 6 11
M  V30 11 1 7 12
M  V30 12 2 8 13
M  V30 13 1 12 14
M  V30 14 2 12 15
M  V30 15 1 14 16
M  V30 16 2 16 17
M  V30 17 1 16 18
M  V30 18 1 17 19
M  V30 19 2 18 20
M  V30 20 1 18 21
M  V30 21 2 19 22
M  V30 22 1 19 23
M  V30 23 1 23 24
M  V30 24 2 24 25
M  V30 25 1 24 26
M  V30 26 1 25 27
M  V30 27 2 26 28
M  V30 28 2 27 29
M  V30 29 1 29 30
M  V30 30 1 30 31
M  V30 31 1 30 32
M  V30 32 1 31 33
M  V30 33 1 32 34
M  V30 34 1 33 35
M  V30 35 1 35 36
M  V30 36 1 13 15
M  V30 37 1 20 22
M  V30 38 1 28 29
M  V30 39 1 34 35
M  V30 END BOND
M  V30 END CTAB
M  END
>  <Molecule Name>
Compound 811

>  <Molecule Name 2>
Compound 811

>  <Compound ID>
227

>  <Name>
TG101209

>  <Uniprot>
Q00536

>  <Target>
CDK16

>  <Smiles>
CC1=CN=C(NC2=CC=C(N3CCN(C)CC3)C=C2)N=C1NC1=CC=CC(S(=O)(=O)NC(C)(C)C)=C1

>  <Kd (nM)>


>  <Assay (Kd)>


>  <Ki (nM)>


>  <Assay (Ki)>


>  <IC50 (nM)>


>  <Assay (IC50)>


>  <EC50 (nM)>


>  <Assay (EC50)>


>  <Article DOI>
10.1016/j.cell.2020.10.038

>  <Molecular Weight>
509.68

>  <Exact Mass>
509.2572944

>  <XLogP3>
4.2

>  <Heavy Atom Count>
36

>  <Ring Count>
4

>  <Hydrogen Bond Acceptor Count>
8

>  <Hydrogen Bond Donor Count>
3

>  <Rotatable Bond Count>
7

>  <Topological Polar Surface Area>
102.49

>  <Molecular Formula>
C26H35N7O2S

>  <InChI>
InChI=1S/C26H35N7O2S/c1-19-18-27-25(29-20-9-11-22(12-10-20)33-15-13-32(5)14-16-33)30-24(19)28-21-7-6-8-23(17-21)36(34,35)31-26(2,3)4/h6-12,17-18,31H,13-16H2,1-5H3,(H2,27,28,29,30)

>  <InChI Key>
JVDOKQYTTYUYDV-UHFFFAOYSA-N

>  <BindingDB>
192755

>  <PubChem>
16722832

>  <ChEMBL>
CHEMBL1995703

$$$$
227
Actelion Java MolfileCreator 2.0

  0  0  0  0  0  0              0 V3000
M  V30 BEGIN CTAB
M  V30 COUNTS 36 39 0 0 0
M  V30 BEGIN ATOM
M  V30 1 S 2.598 -0.75 0.0 0
M  V30 2 O 1.0981 -0.75 0.0 0
M  V30 3 O 1.8481 0.549 0.0 0
M  V30 4 N 2.598 -2.25 0.0 0
M  V30 5 C 3.8971 0.0 0.0 0
M  V30 6 C 1.299 -3.0 0.0 0
M  V30 7 C 5.1961 -0.75 0.0 0
M  V30 8 C 3.8971 1.5 0.0 0
M  V30 9 C 0.549 -1.7009 0.0 0
M  V30 10 C 0.0 -3.75 0.0 0
M  V30 11 C 2.049 -4.299 0.0 0
M  V30 12 C 6.4951 0.0 0.0 0
M  V30 13 C 5.1961 2.25 0.0 0
M  V30 14 N 7.7942 -0.75 0.0 0
M  V30 15 C 6.4951 1.5 0.0 0
M  V30 16 C 9.0932 0.0 0.0 0
M  V30 17 N 10.3923 -0.75 0.0 0
M  V30 18 C 9.0932 1.5 0.0 0
M  V30 19 C 11.6913 0.0 0.0 0
M  V30 20 C 10.3923 2.25 0.0 0
M  V30 21 C 7.7942 2.25 0.0 0
M  V30 22 N 11.6913 1.5 0.0 0
M  V30 23 N 12.9903 -0.75 0.0 0
M  V30 24 C 14.2894 0.0 0.0 0
M  V30 25 C 15.5884 -0.75 0.0 0
M  V30 26 C 14.2894 1.5 0.0 0
M  V30 27 C 16.8875 0.0 0.0 0
M  V30 28 C 15.5884 2.25 0.0 0
M  V30 29 C 16.8875 1.5 0.0 0
M  V30 30 N 18.1865 2.25 0.0 0
M  V30 31 C 19.4855 1.5 0.0 0
M  V30 32 C 18.1865 3.75 0.0 0
M  V30 33 C 20.7846 2.25 0.0 0
M  V30 34 C 19.4855 4.5 0.0 0
M  V30 35 N 20.7846 3.75 0.0 0
M  V30 36 C 22.0836 4.5 0.0 0
M  V30 END ATOM
M  V30 BEGIN BOND
M  V30 1 2 1 2
M  V30 2 2 1 3
M  V30 3 1 1 4
M  V30 4 1 1 5
M  V30 5 1 4 6
M  V30 6 2 5 7
M  V30 7 1 5 8
M  V30 8 1 6 9
M  V30 9 1 6 10
M  V30 10 1 6 11
M  V30 11 1 7 12
M  V30 12 2 8 13
M  V30 13 1 12 14
M  V30 14 2 12 15
M  V30 15 1 14 16
M  V30 16 2 16 17
M  V30 17 1 16 18
M  V30 18 1 17 19
M  V30 19 2 18 20
M  V30 20 1 18 21
M  V30 21 2 19 22
M  V30 22 1 19 23
M  V30 23 1 23 24
M  V30 24 2 24 25
M  V30 25 1 24 26
M  V30 26 1 25 27
M  V30 27 2 26 28
M  V30 28 2 27 29
M  V30 29 1 29 30
M  V30 30 1 30 31
M  V30 31 1 30 32
M  V30 32 1 31 33
M  V30 33 1 32 34
M  V30 34 1 33 35
M  V30 35 1 35 36
M  V30 36 1 13 15
M  V30 37 1 20 22
M  V30 38 1 28 29
M  V30 39 1 34 35
M  V30 END BOND
M  V30 END CTAB
M  END
>  <Molecule Name>
Compound 812

>  <Molecule Name 2>
Compound 812

>  <Compound ID>
227

>  <Name>
TG101209

>  <Uniprot>
O14976

>  <Target>
GAK

>  <Smiles>
CC1=CN=C(NC2=CC=C(N3CCN(C)CC3)C=C2)N=C1NC1=CC=CC(S(=O)(=O)NC(C)(C)C)=C1

>  <Kd (nM)>


>  <Assay (Kd)>


>  <Ki (nM)>


>  <Assay (Ki)>


>  <IC50 (nM)>


>  <Assay (IC50)>


>  <EC50 (nM)>


>  <Assay (EC50)>


>  <Article DOI>
10.1016/j.cell.2020.10.038

>  <Molecular Weight>
509.68

>  <Exact Mass>
509.2572944

>  <XLogP3>
4.2

>  <Heavy Atom Count>
36

>  <Ring Count>
4

>  <Hydrogen Bond Acceptor Count>
8

>  <Hydrogen Bond Donor Count>
3

>  <Rotatable Bond Count>
7

>  <Topological Polar Surface Area>
102.49

>  <Molecular Formula>
C26H35N7O2S

>  <InChI>
InChI=1S/C26H35N7O2S/c1-19-18-27-25(29-20-9-11-22(12-10-20)33-15-13-32(5)14-16-33)30-24(19)28-21-7-6-8-23(17-21)36(34,35)31-26(2,3)4/h6-12,17-18,31H,13-16H2,1-5H3,(H2,27,28,29,30)

>  <InChI Key>
JVDOKQYTTYUYDV-UHFFFAOYSA-N

>  <BindingDB>
192755

>  <PubChem>
16722832

>  <ChEMBL>
CHEMBL1995703

$$$$
227
Actelion Java MolfileCreator 2.0

  0  0  0  0  0  0              0 V3000
M  V30 BEGIN CTAB
M  V30 COUNTS 36 39 0 0 0
M  V30 BEGIN ATOM
M  V30 1 S 2.598 -0.75 0.0 0
M  V30 2 O 1.0981 -0.75 0.0 0
M  V30 3 O 1.8481 0.549 0.0 0
M  V30 4 N 2.598 -2.25 0.0 0
M  V30 5 C 3.8971 0.0 0.0 0
M  V30 6 C 1.299 -3.0 0.0 0
M  V30 7 C 5.1961 -0.75 0.0 0
M  V30 8 C 3.8971 1.5 0.0 0
M  V30 9 C 0.549 -1.7009 0.0 0
M  V30 10 C 0.0 -3.75 0.0 0
M  V30 11 C 2.049 -4.299 0.0 0
M  V30 12 C 6.4951 0.0 0.0 0
M  V30 13 C 5.1961 2.25 0.0 0
M  V30 14 N 7.7942 -0.75 0.0 0
M  V30 15 C 6.4951 1.5 0.0 0
M  V30 16 C 9.0932 0.0 0.0 0
M  V30 17 N 10.3923 -0.75 0.0 0
M  V30 18 C 9.0932 1.5 0.0 0
M  V30 19 C 11.6913 0.0 0.0 0
M  V30 20 C 10.3923 2.25 0.0 0
M  V30 21 C 7.7942 2.25 0.0 0
M  V30 22 N 11.6913 1.5 0.0 0
M  V30 23 N 12.9903 -0.75 0.0 0
M  V30 24 C 14.2894 0.0 0.0 0
M  V30 25 C 15.5884 -0.75 0.0 0
M  V30 26 C 14.2894 1.5 0.0 0
M  V30 27 C 16.8875 0.0 0.0 0
M  V30 28 C 15.5884 2.25 0.0 0
M  V30 29 C 16.8875 1.5 0.0 0
M  V30 30 N 18.1865 2.25 0.0 0
M  V30 31 C 19.4855 1.5 0.0 0
M  V30 32 C 18.1865 3.75 0.0 0
M  V30 33 C 20.7846 2.25 0.0 0
M  V30 34 C 19.4855 4.5 0.0 0
M  V30 35 N 20.7846 3.75 0.0 0
M  V30 36 C 22.0836 4.5 0.0 0
M  V30 END ATOM
M  V30 BEGIN BOND
M  V30 1 2 1 2
M  V30 2 2 1 3
M  V30 3 1 1 4
M  V30 4 1 1 5
M  V30 5 1 4 6
M  V30 6 2 5 7
M  V30 7 1 5 8
M  V30 8 1 6 9
M  V30 9 1 6 10
M  V30 10 1 6 11
M  V30 11 1 7 12
M  V30 12 2 8 13
M  V30 13 1 12 14
M  V30 14 2 12 15
M  V30 15 1 14 16
M  V30 16 2 16 17
M  V30 17 1 16 18
M  V30 18 1 17 19
M  V30 19 2 18 20
M  V30 20 1 18 21
M  V30 21 2 19 22
M  V30 22 1 19 23
M  V30 23 1 23 24
M  V30 24 2 24 25
M  V30 25 1 24 26
M  V30 26 1 25 27
M  V30 27 2 26 28
M  V30 28 2 27 29
M  V30 29 1 29 30
M  V30 30 1 30 31
M  V30 31 1 30 32
M  V30 32 1 31 33
M  V30 33 1 32 34
M  V30 34 1 33 35
M  V30 35 1 35 36
M  V30 36 1 13 15
M  V30 37 1 20 22
M  V30 38 1 28 29
M  V30 39 1 34 35
M  V30 END BOND
M  V30 END CTAB
M  END
>  <Molecule Name>
Compound 813

>  <Molecule Name 2>
Compound 813

>  <Compound ID>
227

>  <Name>
TG101209

>  <Uniprot>
Q96L34

>  <Target>
MARK4

>  <Smiles>
CC1=CN=C(NC2=CC=C(N3CCN(C)CC3)C=C2)N=C1NC1=CC=CC(S(=O)(=O)NC(C)(C)C)=C1

>  <Kd (nM)>


>  <Assay (Kd)>


>  <Ki (nM)>


>  <Assay (Ki)>


>  <IC50 (nM)>


>  <Assay (IC50)>


>  <EC50 (nM)>


>  <Assay (EC50)>


>  <Article DOI>
10.1016/j.cell.2020.10.038

>  <Molecular Weight>
509.68

>  <Exact Mass>
509.2572944

>  <XLogP3>
4.2

>  <Heavy Atom Count>
36

>  <Ring Count>
4

>  <Hydrogen Bond Acceptor Count>
8

>  <Hydrogen Bond Donor Count>
3

>  <Rotatable Bond Count>
7

>  <Topological Polar Surface Area>
102.49

>  <Molecular Formula>
C26H35N7O2S

>  <InChI>
InChI=1S/C26H35N7O2S/c1-19-18-27-25(29-20-9-11-22(12-10-20)33-15-13-32(5)14-16-33)30-24(19)28-21-7-6-8-23(17-21)36(34,35)31-26(2,3)4/h6-12,17-18,31H,13-16H2,1-5H3,(H2,27,28,29,30)

>  <InChI Key>
JVDOKQYTTYUYDV-UHFFFAOYSA-N

>  <BindingDB>
192755

>  <PubChem>
16722832

>  <ChEMBL>
CHEMBL1995703

$$$$
227
Actelion Java MolfileCreator 2.0

  0  0  0  0  0  0              0 V3000
M  V30 BEGIN CTAB
M  V30 COUNTS 36 39 0 0 0
M  V30 BEGIN ATOM
M  V30 1 S 2.598 -0.75 0.0 0
M  V30 2 O 1.0981 -0.75 0.0 0
M  V30 3 O 1.8481 0.549 0.0 0
M  V30 4 N 2.598 -2.25 0.0 0
M  V30 5 C 3.8971 0.0 0.0 0
M  V30 6 C 1.299 -3.0 0.0 0
M  V30 7 C 5.1961 -0.75 0.0 0
M  V30 8 C 3.8971 1.5 0.0 0
M  V30 9 C 0.549 -1.7009 0.0 0
M  V30 10 C 0.0 -3.75 0.0 0
M  V30 11 C 2.049 -4.299 0.0 0
M  V30 12 C 6.4951 0.0 0.0 0
M  V30 13 C 5.1961 2.25 0.0 0
M  V30 14 N 7.7942 -0.75 0.0 0
M  V30 15 C 6.4951 1.5 0.0 0
M  V30 16 C 9.0932 0.0 0.0 0
M  V30 17 N 10.3923 -0.75 0.0 0
M  V30 18 C 9.0932 1.5 0.0 0
M  V30 19 C 11.6913 0.0 0.0 0
M  V30 20 C 10.3923 2.25 0.0 0
M  V30 21 C 7.7942 2.25 0.0 0
M  V30 22 N 11.6913 1.5 0.0 0
M  V30 23 N 12.9903 -0.75 0.0 0
M  V30 24 C 14.2894 0.0 0.0 0
M  V30 25 C 15.5884 -0.75 0.0 0
M  V30 26 C 14.2894 1.5 0.0 0
M  V30 27 C 16.8875 0.0 0.0 0
M  V30 28 C 15.5884 2.25 0.0 0
M  V30 29 C 16.8875 1.5 0.0 0
M  V30 30 N 18.1865 2.25 0.0 0
M  V30 31 C 19.4855 1.5 0.0 0
M  V30 32 C 18.1865 3.75 0.0 0
M  V30 33 C 20.7846 2.25 0.0 0
M  V30 34 C 19.4855 4.5 0.0 0
M  V30 35 N 20.7846 3.75 0.0 0
M  V30 36 C 22.0836 4.5 0.0 0
M  V30 END ATOM
M  V30 BEGIN BOND
M  V30 1 2 1 2
M  V30 2 2 1 3
M  V30 3 1 1 4
M  V30 4 1 1 5
M  V30 5 1 4 6
M  V30 6 2 5 7
M  V30 7 1 5 8
M  V30 8 1 6 9
M  V30 9 1 6 10
M  V30 10 1 6 11
M  V30 11 1 7 12
M  V30 12 2 8 13
M  V30 13 1 12 14
M  V30 14 2 12 15
M  V30 15 1 14 16
M  V30 16 2 16 17
M  V30 17 1 16 18
M  V30 18 1 17 19
M  V30 19 2 18 20
M  V30 20 1 18 21
M  V30 21 2 19 22
M  V30 22 1 19 23
M  V30 23 1 23 24
M  V30 24 2 24 25
M  V30 25 1 24 26
M  V30 26 1 25 27
M  V30 27 2 26 28
M  V30 28 2 27 29
M  V30 29 1 29 30
M  V30 30 1 30 31
M  V30 31 1 30 32
M  V30 32 1 31 33
M  V30 33 1 32 34
M  V30 34 1 33 35
M  V30 35 1 35 36
M  V30 36 1 13 15
M  V30 37 1 20 22
M  V30 38 1 28 29
M  V30 39 1 34 35
M  V30 END BOND
M  V30 END CTAB
M  END
>  <Molecule Name>
Compound 814

>  <Molecule Name 2>
Compound 814

>  <Compound ID>
227

>  <Name>
TG101209

>  <Uniprot>
Q8TD19

>  <Target>
NEK9

>  <Smiles>
CC1=CN=C(NC2=CC=C(N3CCN(C)CC3)C=C2)N=C1NC1=CC=CC(S(=O)(=O)NC(C)(C)C)=C1

>  <Kd (nM)>


>  <Assay (Kd)>


>  <Ki (nM)>


>  <Assay (Ki)>


>  <IC50 (nM)>


>  <Assay (IC50)>


>  <EC50 (nM)>


>  <Assay (EC50)>


>  <Article DOI>
10.1016/j.cell.2020.10.038

>  <Molecular Weight>
509.68

>  <Exact Mass>
509.2572944

>  <XLogP3>
4.2

>  <Heavy Atom Count>
36

>  <Ring Count>
4

>  <Hydrogen Bond Acceptor Count>
8

>  <Hydrogen Bond Donor Count>
3

>  <Rotatable Bond Count>
7

>  <Topological Polar Surface Area>
102.49

>  <Molecular Formula>
C26H35N7O2S

>  <InChI>
InChI=1S/C26H35N7O2S/c1-19-18-27-25(29-20-9-11-22(12-10-20)33-15-13-32(5)14-16-33)30-24(19)28-21-7-6-8-23(17-21)36(34,35)31-26(2,3)4/h6-12,17-18,31H,13-16H2,1-5H3,(H2,27,28,29,30)

>  <InChI Key>
JVDOKQYTTYUYDV-UHFFFAOYSA-N

>  <BindingDB>
192755

>  <PubChem>
16722832

>  <ChEMBL>
CHEMBL1995703

$$$$
227
Actelion Java MolfileCreator 2.0

  0  0  0  0  0  0              0 V3000
M  V30 BEGIN CTAB
M  V30 COUNTS 36 39 0 0 0
M  V30 BEGIN ATOM
M  V30 1 S 2.598 -0.75 0.0 0
M  V30 2 O 1.0981 -0.75 0.0 0
M  V30 3 O 1.8481 0.549 0.0 0
M  V30 4 N 2.598 -2.25 0.0 0
M  V30 5 C 3.8971 0.0 0.0 0
M  V30 6 C 1.299 -3.0 0.0 0
M  V30 7 C 5.1961 -0.75 0.0 0
M  V30 8 C 3.8971 1.5 0.0 0
M  V30 9 C 0.549 -1.7009 0.0 0
M  V30 10 C 0.0 -3.75 0.0 0
M  V30 11 C 2.049 -4.299 0.0 0
M  V30 12 C 6.4951 0.0 0.0 0
M  V30 13 C 5.1961 2.25 0.0 0
M  V30 14 N 7.7942 -0.75 0.0 0
M  V30 15 C 6.4951 1.5 0.0 0
M  V30 16 C 9.0932 0.0 0.0 0
M  V30 17 N 10.3923 -0.75 0.0 0
M  V30 18 C 9.0932 1.5 0.0 0
M  V30 19 C 11.6913 0.0 0.0 0
M  V30 20 C 10.3923 2.25 0.0 0
M  V30 21 C 7.7942 2.25 0.0 0
M  V30 22 N 11.6913 1.5 0.0 0
M  V30 23 N 12.9903 -0.75 0.0 0
M  V30 24 C 14.2894 0.0 0.0 0
M  V30 25 C 15.5884 -0.75 0.0 0
M  V30 26 C 14.2894 1.5 0.0 0
M  V30 27 C 16.8875 0.0 0.0 0
M  V30 28 C 15.5884 2.25 0.0 0
M  V30 29 C 16.8875 1.5 0.0 0
M  V30 30 N 18.1865 2.25 0.0 0
M  V30 31 C 19.4855 1.5 0.0 0
M  V30 32 C 18.1865 3.75 0.0 0
M  V30 33 C 20.7846 2.25 0.0 0
M  V30 34 C 19.4855 4.5 0.0 0
M  V30 35 N 20.7846 3.75 0.0 0
M  V30 36 C 22.0836 4.5 0.0 0
M  V30 END ATOM
M  V30 BEGIN BOND
M  V30 1 2 1 2
M  V30 2 2 1 3
M  V30 3 1 1 4
M  V30 4 1 1 5
M  V30 5 1 4 6
M  V30 6 2 5 7
M  V30 7 1 5 8
M  V30 8 1 6 9
M  V30 9 1 6 10
M  V30 10 1 6 11
M  V30 11 1 7 12
M  V30 12 2 8 13
M  V30 13 1 12 14
M  V30 14 2 12 15
M  V30 15 1 14 16
M  V30 16 2 16 17
M  V30 17 1 16 18
M  V30 18 1 17 19
M  V30 19 2 18 20
M  V30 20 1 18 21
M  V30 21 2 19 22
M  V30 22 1 19 23
M  V30 23 1 23 24
M  V30 24 2 24 25
M  V30 25 1 24 26
M  V30 26 1 25 27
M  V30 27 2 26 28
M  V30 28 2 27 29
M  V30 29 1 29 30
M  V30 30 1 30 31
M  V30 31 1 30 32
M  V30 32 1 31 33
M  V30 33 1 32 34
M  V30 34 1 33 35
M  V30 35 1 35 36
M  V30 36 1 13 15
M  V30 37 1 20 22
M  V30 38 1 28 29
M  V30 39 1 34 35
M  V30 END BOND
M  V30 END CTAB
M  END
>  <Molecule Name>
Compound 815

>  <Molecule Name 2>
Compound 815

>  <Compound ID>
227

>  <Name>
TG101209

>  <Uniprot>
P23443

>  <Target>
RPS6KB1

>  <Smiles>
CC1=CN=C(NC2=CC=C(N3CCN(C)CC3)C=C2)N=C1NC1=CC=CC(S(=O)(=O)NC(C)(C)C)=C1

>  <Kd (nM)>


>  <Assay (Kd)>


>  <Ki (nM)>


>  <Assay (Ki)>


>  <IC50 (nM)>


>  <Assay (IC50)>


>  <EC50 (nM)>


>  <Assay (EC50)>


>  <Article DOI>
10.1016/j.cell.2020.10.038

>  <Molecular Weight>
509.68

>  <Exact Mass>
509.2572944

>  <XLogP3>
4.2

>  <Heavy Atom Count>
36

>  <Ring Count>
4

>  <Hydrogen Bond Acceptor Count>
8

>  <Hydrogen Bond Donor Count>
3

>  <Rotatable Bond Count>
7

>  <Topological Polar Surface Area>
102.49

>  <Molecular Formula>
C26H35N7O2S

>  <InChI>
InChI=1S/C26H35N7O2S/c1-19-18-27-25(29-20-9-11-22(12-10-20)33-15-13-32(5)14-16-33)30-24(19)28-21-7-6-8-23(17-21)36(34,35)31-26(2,3)4/h6-12,17-18,31H,13-16H2,1-5H3,(H2,27,28,29,30)

>  <InChI Key>
JVDOKQYTTYUYDV-UHFFFAOYSA-N

>  <BindingDB>
192755

>  <PubChem>
16722832

>  <ChEMBL>
CHEMBL1995703

$$$$
227
Actelion Java MolfileCreator 2.0

  0  0  0  0  0  0              0 V3000
M  V30 BEGIN CTAB
M  V30 COUNTS 36 39 0 0 0
M  V30 BEGIN ATOM
M  V30 1 S 2.598 -0.75 0.0 0
M  V30 2 O 1.0981 -0.75 0.0 0
M  V30 3 O 1.8481 0.549 0.0 0
M  V30 4 N 2.598 -2.25 0.0 0
M  V30 5 C 3.8971 0.0 0.0 0
M  V30 6 C 1.299 -3.0 0.0 0
M  V30 7 C 5.1961 -0.75 0.0 0
M  V30 8 C 3.8971 1.5 0.0 0
M  V30 9 C 0.549 -1.7009 0.0 0
M  V30 10 C 0.0 -3.75 0.0 0
M  V30 11 C 2.049 -4.299 0.0 0
M  V30 12 C 6.4951 0.0 0.0 0
M  V30 13 C 5.1961 2.25 0.0 0
M  V30 14 N 7.7942 -0.75 0.0 0
M  V30 15 C 6.4951 1.5 0.0 0
M  V30 16 C 9.0932 0.0 0.0 0
M  V30 17 N 10.3923 -0.75 0.0 0
M  V30 18 C 9.0932 1.5 0.0 0
M  V30 19 C 11.6913 0.0 0.0 0
M  V30 20 C 10.3923 2.25 0.0 0
M  V30 21 C 7.7942 2.25 0.0 0
M  V30 22 N 11.6913 1.5 0.0 0
M  V30 23 N 12.9903 -0.75 0.0 0
M  V30 24 C 14.2894 0.0 0.0 0
M  V30 25 C 15.5884 -0.75 0.0 0
M  V30 26 C 14.2894 1.5 0.0 0
M  V30 27 C 16.8875 0.0 0.0 0
M  V30 28 C 15.5884 2.25 0.0 0
M  V30 29 C 16.8875 1.5 0.0 0
M  V30 30 N 18.1865 2.25 0.0 0
M  V30 31 C 19.4855 1.5 0.0 0
M  V30 32 C 18.1865 3.75 0.0 0
M  V30 33 C 20.7846 2.25 0.0 0
M  V30 34 C 19.4855 4.5 0.0 0
M  V30 35 N 20.7846 3.75 0.0 0
M  V30 36 C 22.0836 4.5 0.0 0
M  V30 END ATOM
M  V30 BEGIN BOND
M  V30 1 2 1 2
M  V30 2 2 1 3
M  V30 3 1 1 4
M  V30 4 1 1 5
M  V30 5 1 4 6
M  V30 6 2 5 7
M  V30 7 1 5 8
M  V30 8 1 6 9
M  V30 9 1 6 10
M  V30 10 1 6 11
M  V30 11 1 7 12
M  V30 12 2 8 13
M  V30 13 1 12 14
M  V30 14 2 12 15
M  V30 15 1 14 16
M  V30 16 2 16 17
M  V30 17 1 16 18
M  V30 18 1 17 19
M  V30 19 2 18 20
M  V30 20 1 18 21
M  V30 21 2 19 22
M  V30 22 1 19 23
M  V30 23 1 23 24
M  V30 24 2 24 25
M  V30 25 1 24 26
M  V30 26 1 25 27
M  V30 27 2 26 28
M  V30 28 2 27 29
M  V30 29 1 29 30
M  V30 30 1 30 31
M  V30 31 1 30 32
M  V30 32 1 31 33
M  V30 33 1 32 34
M  V30 34 1 33 35
M  V30 35 1 35 36
M  V30 36 1 13 15
M  V30 37 1 20 22
M  V30 38 1 28 29
M  V30 39 1 34 35
M  V30 END BOND
M  V30 END CTAB
M  END
>  <Molecule Name>
Compound 816

>  <Molecule Name 2>
Compound 816

>  <Compound ID>
227

>  <Name>
TG101209

>  <Uniprot>
Q9H0K1

>  <Target>
SIK2

>  <Smiles>
CC1=CN=C(NC2=CC=C(N3CCN(C)CC3)C=C2)N=C1NC1=CC=CC(S(=O)(=O)NC(C)(C)C)=C1

>  <Kd (nM)>


>  <Assay (Kd)>


>  <Ki (nM)>


>  <Assay (Ki)>


>  <IC50 (nM)>


>  <Assay (IC50)>


>  <EC50 (nM)>


>  <Assay (EC50)>


>  <Article DOI>
10.1016/j.cell.2020.10.038

>  <Molecular Weight>
509.68

>  <Exact Mass>
509.2572944

>  <XLogP3>
4.2

>  <Heavy Atom Count>
36

>  <Ring Count>
4

>  <Hydrogen Bond Acceptor Count>
8

>  <Hydrogen Bond Donor Count>
3

>  <Rotatable Bond Count>
7

>  <Topological Polar Surface Area>
102.49

>  <Molecular Formula>
C26H35N7O2S

>  <InChI>
InChI=1S/C26H35N7O2S/c1-19-18-27-25(29-20-9-11-22(12-10-20)33-15-13-32(5)14-16-33)30-24(19)28-21-7-6-8-23(17-21)36(34,35)31-26(2,3)4/h6-12,17-18,31H,13-16H2,1-5H3,(H2,27,28,29,30)

>  <InChI Key>
JVDOKQYTTYUYDV-UHFFFAOYSA-N

>  <BindingDB>
192755

>  <PubChem>
16722832

>  <ChEMBL>
CHEMBL1995703

$$$$
227
Actelion Java MolfileCreator 2.0

  0  0  0  0  0  0              0 V3000
M  V30 BEGIN CTAB
M  V30 COUNTS 36 39 0 0 0
M  V30 BEGIN ATOM
M  V30 1 S 2.598 -0.75 0.0 0
M  V30 2 O 1.0981 -0.75 0.0 0
M  V30 3 O 1.8481 0.549 0.0 0
M  V30 4 N 2.598 -2.25 0.0 0
M  V30 5 C 3.8971 0.0 0.0 0
M  V30 6 C 1.299 -3.0 0.0 0
M  V30 7 C 5.1961 -0.75 0.0 0
M  V30 8 C 3.8971 1.5 0.0 0
M  V30 9 C 0.549 -1.7009 0.0 0
M  V30 10 C 0.0 -3.75 0.0 0
M  V30 11 C 2.049 -4.299 0.0 0
M  V30 12 C 6.4951 0.0 0.0 0
M  V30 13 C 5.1961 2.25 0.0 0
M  V30 14 N 7.7942 -0.75 0.0 0
M  V30 15 C 6.4951 1.5 0.0 0
M  V30 16 C 9.0932 0.0 0.0 0
M  V30 17 N 10.3923 -0.75 0.0 0
M  V30 18 C 9.0932 1.5 0.0 0
M  V30 19 C 11.6913 0.0 0.0 0
M  V30 20 C 10.3923 2.25 0.0 0
M  V30 21 C 7.7942 2.25 0.0 0
M  V30 22 N 11.6913 1.5 0.0 0
M  V30 23 N 12.9903 -0.75 0.0 0
M  V30 24 C 14.2894 0.0 0.0 0
M  V30 25 C 15.5884 -0.75 0.0 0
M  V30 26 C 14.2894 1.5 0.0 0
M  V30 27 C 16.8875 0.0 0.0 0
M  V30 28 C 15.5884 2.25 0.0 0
M  V30 29 C 16.8875 1.5 0.0 0
M  V30 30 N 18.1865 2.25 0.0 0
M  V30 31 C 19.4855 1.5 0.0 0
M  V30 32 C 18.1865 3.75 0.0 0
M  V30 33 C 20.7846 2.25 0.0 0
M  V30 34 C 19.4855 4.5 0.0 0
M  V30 35 N 20.7846 3.75 0.0 0
M  V30 36 C 22.0836 4.5 0.0 0
M  V30 END ATOM
M  V30 BEGIN BOND
M  V30 1 2 1 2
M  V30 2 2 1 3
M  V30 3 1 1 4
M  V30 4 1 1 5
M  V30 5 1 4 6
M  V30 6 2 5 7
M  V30 7 1 5 8
M  V30 8 1 6 9
M  V30 9 1 6 10
M  V30 10 1 6 11
M  V30 11 1 7 12
M  V30 12 2 8 13
M  V30 13 1 12 14
M  V30 14 2 12 15
M  V30 15 1 14 16
M  V30 16 2 16 17
M  V30 17 1 16 18
M  V30 18 1 17 19
M  V30 19 2 18 20
M  V30 20 1 18 21
M  V30 21 2 19 22
M  V30 22 1 19 23
M  V30 23 1 23 24
M  V30 24 2 24 25
M  V30 25 1 24 26
M  V30 26 1 25 27
M  V30 27 2 26 28
M  V30 28 2 27 29
M  V30 29 1 29 30
M  V30 30 1 30 31
M  V30 31 1 30 32
M  V30 32 1 31 33
M  V30 33 1 32 34
M  V30 34 1 33 35
M  V30 35 1 35 36
M  V30 36 1 13 15
M  V30 37 1 20 22
M  V30 38 1 28 29
M  V30 39 1 34 35
M  V30 END BOND
M  V30 END CTAB
M  END
>  <Molecule Name>
Compound 817

>  <Molecule Name 2>
Compound 817

>  <Compound ID>
227

>  <Name>
TG101209

>  <Uniprot>
Q9Y2K2

>  <Target>
SIK3

>  <Smiles>
CC1=CN=C(NC2=CC=C(N3CCN(C)CC3)C=C2)N=C1NC1=CC=CC(S(=O)(=O)NC(C)(C)C)=C1

>  <Kd (nM)>


>  <Assay (Kd)>


>  <Ki (nM)>


>  <Assay (Ki)>


>  <IC50 (nM)>


>  <Assay (IC50)>


>  <EC50 (nM)>


>  <Assay (EC50)>


>  <Article DOI>
10.1016/j.cell.2020.10.038

>  <Molecular Weight>
509.68

>  <Exact Mass>
509.2572944

>  <XLogP3>
4.2

>  <Heavy Atom Count>
36

>  <Ring Count>
4

>  <Hydrogen Bond Acceptor Count>
8

>  <Hydrogen Bond Donor Count>
3

>  <Rotatable Bond Count>
7

>  <Topological Polar Surface Area>
102.49

>  <Molecular Formula>
C26H35N7O2S

>  <InChI>
InChI=1S/C26H35N7O2S/c1-19-18-27-25(29-20-9-11-22(12-10-20)33-15-13-32(5)14-16-33)30-24(19)28-21-7-6-8-23(17-21)36(34,35)31-26(2,3)4/h6-12,17-18,31H,13-16H2,1-5H3,(H2,27,28,29,30)

>  <InChI Key>
JVDOKQYTTYUYDV-UHFFFAOYSA-N

>  <BindingDB>
192755

>  <PubChem>
16722832

>  <ChEMBL>
CHEMBL1995703

$$$$
227
Actelion Java MolfileCreator 2.0

  0  0  0  0  0  0              0 V3000
M  V30 BEGIN CTAB
M  V30 COUNTS 36 39 0 0 0
M  V30 BEGIN ATOM
M  V30 1 S 2.598 -0.75 0.0 0
M  V30 2 O 1.0981 -0.75 0.0 0
M  V30 3 O 1.8481 0.549 0.0 0
M  V30 4 N 2.598 -2.25 0.0 0
M  V30 5 C 3.8971 0.0 0.0 0
M  V30 6 C 1.299 -3.0 0.0 0
M  V30 7 C 5.1961 -0.75 0.0 0
M  V30 8 C 3.8971 1.5 0.0 0
M  V30 9 C 0.549 -1.7009 0.0 0
M  V30 10 C 0.0 -3.75 0.0 0
M  V30 11 C 2.049 -4.299 0.0 0
M  V30 12 C 6.4951 0.0 0.0 0
M  V30 13 C 5.1961 2.25 0.0 0
M  V30 14 N 7.7942 -0.75 0.0 0
M  V30 15 C 6.4951 1.5 0.0 0
M  V30 16 C 9.0932 0.0 0.0 0
M  V30 17 N 10.3923 -0.75 0.0 0
M  V30 18 C 9.0932 1.5 0.0 0
M  V30 19 C 11.6913 0.0 0.0 0
M  V30 20 C 10.3923 2.25 0.0 0
M  V30 21 C 7.7942 2.25 0.0 0
M  V30 22 N 11.6913 1.5 0.0 0
M  V30 23 N 12.9903 -0.75 0.0 0
M  V30 24 C 14.2894 0.0 0.0 0
M  V30 25 C 15.5884 -0.75 0.0 0
M  V30 26 C 14.2894 1.5 0.0 0
M  V30 27 C 16.8875 0.0 0.0 0
M  V30 28 C 15.5884 2.25 0.0 0
M  V30 29 C 16.8875 1.5 0.0 0
M  V30 30 N 18.1865 2.25 0.0 0
M  V30 31 C 19.4855 1.5 0.0 0
M  V30 32 C 18.1865 3.75 0.0 0
M  V30 33 C 20.7846 2.25 0.0 0
M  V30 34 C 19.4855 4.5 0.0 0
M  V30 35 N 20.7846 3.75 0.0 0
M  V30 36 C 22.0836 4.5 0.0 0
M  V30 END ATOM
M  V30 BEGIN BOND
M  V30 1 2 1 2
M  V30 2 2 1 3
M  V30 3 1 1 4
M  V30 4 1 1 5
M  V30 5 1 4 6
M  V30 6 2 5 7
M  V30 7 1 5 8
M  V30 8 1 6 9
M  V30 9 1 6 10
M  V30 10 1 6 11
M  V30 11 1 7 12
M  V30 12 2 8 13
M  V30 13 1 12 14
M  V30 14 2 12 15
M  V30 15 1 14 16
M  V30 16 2 16 17
M  V30 17 1 16 18
M  V30 18 1 17 19
M  V30 19 2 18 20
M  V30 20 1 18 21
M  V30 21 2 19 22
M  V30 22 1 19 23
M  V30 23 1 23 24
M  V30 24 2 24 25
M  V30 25 1 24 26
M  V30 26 1 25 27
M  V30 27 2 26 28
M  V30 28 2 27 29
M  V30 29 1 29 30
M  V30 30 1 30 31
M  V30 31 1 30 32
M  V30 32 1 31 33
M  V30 33 1 32 34
M  V30 34 1 33 35
M  V30 35 1 35 36
M  V30 36 1 13 15
M  V30 37 1 20 22
M  V30 38 1 28 29
M  V30 39 1 34 35
M  V30 END BOND
M  V30 END CTAB
M  END
>  <Molecule Name>
Compound 818

>  <Molecule Name 2>
Compound 818

>  <Compound ID>
227

>  <Name>
TG101209

>  <Uniprot>
Q9NRH2

>  <Target>
SNRK

>  <Smiles>
CC1=CN=C(NC2=CC=C(N3CCN(C)CC3)C=C2)N=C1NC1=CC=CC(S(=O)(=O)NC(C)(C)C)=C1

>  <Kd (nM)>


>  <Assay (Kd)>


>  <Ki (nM)>


>  <Assay (Ki)>


>  <IC50 (nM)>


>  <Assay (IC50)>


>  <EC50 (nM)>


>  <Assay (EC50)>


>  <Article DOI>
10.1016/j.cell.2020.10.038

>  <Molecular Weight>
509.68

>  <Exact Mass>
509.2572944

>  <XLogP3>
4.2

>  <Heavy Atom Count>
36

>  <Ring Count>
4

>  <Hydrogen Bond Acceptor Count>
8

>  <Hydrogen Bond Donor Count>
3

>  <Rotatable Bond Count>
7

>  <Topological Polar Surface Area>
102.49

>  <Molecular Formula>
C26H35N7O2S

>  <InChI>
InChI=1S/C26H35N7O2S/c1-19-18-27-25(29-20-9-11-22(12-10-20)33-15-13-32(5)14-16-33)30-24(19)28-21-7-6-8-23(17-21)36(34,35)31-26(2,3)4/h6-12,17-18,31H,13-16H2,1-5H3,(H2,27,28,29,30)

>  <InChI Key>
JVDOKQYTTYUYDV-UHFFFAOYSA-N

>  <BindingDB>
192755

>  <PubChem>
16722832

>  <ChEMBL>
CHEMBL1995703

$$$$
227
Actelion Java MolfileCreator 2.0

  0  0  0  0  0  0              0 V3000
M  V30 BEGIN CTAB
M  V30 COUNTS 36 39 0 0 0
M  V30 BEGIN ATOM
M  V30 1 S 2.598 -0.75 0.0 0
M  V30 2 O 1.0981 -0.75 0.0 0
M  V30 3 O 1.8481 0.549 0.0 0
M  V30 4 N 2.598 -2.25 0.0 0
M  V30 5 C 3.8971 0.0 0.0 0
M  V30 6 C 1.299 -3.0 0.0 0
M  V30 7 C 5.1961 -0.75 0.0 0
M  V30 8 C 3.8971 1.5 0.0 0
M  V30 9 C 0.549 -1.7009 0.0 0
M  V30 10 C 0.0 -3.75 0.0 0
M  V30 11 C 2.049 -4.299 0.0 0
M  V30 12 C 6.4951 0.0 0.0 0
M  V30 13 C 5.1961 2.25 0.0 0
M  V30 14 N 7.7942 -0.75 0.0 0
M  V30 15 C 6.4951 1.5 0.0 0
M  V30 16 C 9.0932 0.0 0.0 0
M  V30 17 N 10.3923 -0.75 0.0 0
M  V30 18 C 9.0932 1.5 0.0 0
M  V30 19 C 11.6913 0.0 0.0 0
M  V30 20 C 10.3923 2.25 0.0 0
M  V30 21 C 7.7942 2.25 0.0 0
M  V30 22 N 11.6913 1.5 0.0 0
M  V30 23 N 12.9903 -0.75 0.0 0
M  V30 24 C 14.2894 0.0 0.0 0
M  V30 25 C 15.5884 -0.75 0.0 0
M  V30 26 C 14.2894 1.5 0.0 0
M  V30 27 C 16.8875 0.0 0.0 0
M  V30 28 C 15.5884 2.25 0.0 0
M  V30 29 C 16.8875 1.5 0.0 0
M  V30 30 N 18.1865 2.25 0.0 0
M  V30 31 C 19.4855 1.5 0.0 0
M  V30 32 C 18.1865 3.75 0.0 0
M  V30 33 C 20.7846 2.25 0.0 0
M  V30 34 C 19.4855 4.5 0.0 0
M  V30 35 N 20.7846 3.75 0.0 0
M  V30 36 C 22.0836 4.5 0.0 0
M  V30 END ATOM
M  V30 BEGIN BOND
M  V30 1 2 1 2
M  V30 2 2 1 3
M  V30 3 1 1 4
M  V30 4 1 1 5
M  V30 5 1 4 6
M  V30 6 2 5 7
M  V30 7 1 5 8
M  V30 8 1 6 9
M  V30 9 1 6 10
M  V30 10 1 6 11
M  V30 11 1 7 12
M  V30 12 2 8 13
M  V30 13 1 12 14
M  V30 14 2 12 15
M  V30 15 1 14 16
M  V30 16 2 16 17
M  V30 17 1 16 18
M  V30 18 1 17 19
M  V30 19 2 18 20
M  V30 20 1 18 21
M  V30 21 2 19 22
M  V30 22 1 19 23
M  V30 23 1 23 24
M  V30 24 2 24 25
M  V30 25 1 24 26
M  V30 26 1 25 27
M  V30 27 2 26 28
M  V30 28 2 27 29
M  V30 29 1 29 30
M  V30 30 1 30 31
M  V30 31 1 30 32
M  V30 32 1 31 33
M  V30 33 1 32 34
M  V30 34 1 33 35
M  V30 35 1 35 36
M  V30 36 1 13 15
M  V30 37 1 20 22
M  V30 38 1 28 29
M  V30 39 1 34 35
M  V30 END BOND
M  V30 END CTAB
M  END
>  <Molecule Name>
Compound 819

>  <Molecule Name 2>
Compound 819

>  <Compound ID>
227

>  <Name>
TG101209

>  <Uniprot>
Q9UEE5

>  <Target>
STK17A

>  <Smiles>
CC1=CN=C(NC2=CC=C(N3CCN(C)CC3)C=C2)N=C1NC1=CC=CC(S(=O)(=O)NC(C)(C)C)=C1

>  <Kd (nM)>


>  <Assay (Kd)>


>  <Ki (nM)>


>  <Assay (Ki)>


>  <IC50 (nM)>


>  <Assay (IC50)>


>  <EC50 (nM)>


>  <Assay (EC50)>


>  <Article DOI>
10.1016/j.cell.2020.10.038

>  <Molecular Weight>
509.68

>  <Exact Mass>
509.2572944

>  <XLogP3>
4.2

>  <Heavy Atom Count>
36

>  <Ring Count>
4

>  <Hydrogen Bond Acceptor Count>
8

>  <Hydrogen Bond Donor Count>
3

>  <Rotatable Bond Count>
7

>  <Topological Polar Surface Area>
102.49

>  <Molecular Formula>
C26H35N7O2S

>  <InChI>
InChI=1S/C26H35N7O2S/c1-19-18-27-25(29-20-9-11-22(12-10-20)33-15-13-32(5)14-16-33)30-24(19)28-21-7-6-8-23(17-21)36(34,35)31-26(2,3)4/h6-12,17-18,31H,13-16H2,1-5H3,(H2,27,28,29,30)

>  <InChI Key>
JVDOKQYTTYUYDV-UHFFFAOYSA-N

>  <BindingDB>
192755

>  <PubChem>
16722832

>  <ChEMBL>
CHEMBL1995703

$$$$
227
Actelion Java MolfileCreator 2.0

  0  0  0  0  0  0              0 V3000
M  V30 BEGIN CTAB
M  V30 COUNTS 36 39 0 0 0
M  V30 BEGIN ATOM
M  V30 1 S 2.598 -0.75 0.0 0
M  V30 2 O 1.0981 -0.75 0.0 0
M  V30 3 O 1.8481 0.549 0.0 0
M  V30 4 N 2.598 -2.25 0.0 0
M  V30 5 C 3.8971 0.0 0.0 0
M  V30 6 C 1.299 -3.0 0.0 0
M  V30 7 C 5.1961 -0.75 0.0 0
M  V30 8 C 3.8971 1.5 0.0 0
M  V30 9 C 0.549 -1.7009 0.0 0
M  V30 10 C 0.0 -3.75 0.0 0
M  V30 11 C 2.049 -4.299 0.0 0
M  V30 12 C 6.4951 0.0 0.0 0
M  V30 13 C 5.1961 2.25 0.0 0
M  V30 14 N 7.7942 -0.75 0.0 0
M  V30 15 C 6.4951 1.5 0.0 0
M  V30 16 C 9.0932 0.0 0.0 0
M  V30 17 N 10.3923 -0.75 0.0 0
M  V30 18 C 9.0932 1.5 0.0 0
M  V30 19 C 11.6913 0.0 0.0 0
M  V30 20 C 10.3923 2.25 0.0 0
M  V30 21 C 7.7942 2.25 0.0 0
M  V30 22 N 11.6913 1.5 0.0 0
M  V30 23 N 12.9903 -0.75 0.0 0
M  V30 24 C 14.2894 0.0 0.0 0
M  V30 25 C 15.5884 -0.75 0.0 0
M  V30 26 C 14.2894 1.5 0.0 0
M  V30 27 C 16.8875 0.0 0.0 0
M  V30 28 C 15.5884 2.25 0.0 0
M  V30 29 C 16.8875 1.5 0.0 0
M  V30 30 N 18.1865 2.25 0.0 0
M  V30 31 C 19.4855 1.5 0.0 0
M  V30 32 C 18.1865 3.75 0.0 0
M  V30 33 C 20.7846 2.25 0.0 0
M  V30 34 C 19.4855 4.5 0.0 0
M  V30 35 N 20.7846 3.75 0.0 0
M  V30 36 C 22.0836 4.5 0.0 0
M  V30 END ATOM
M  V30 BEGIN BOND
M  V30 1 2 1 2
M  V30 2 2 1 3
M  V30 3 1 1 4
M  V30 4 1 1 5
M  V30 5 1 4 6
M  V30 6 2 5 7
M  V30 7 1 5 8
M  V30 8 1 6 9
M  V30 9 1 6 10
M  V30 10 1 6 11
M  V30 11 1 7 12
M  V30 12 2 8 13
M  V30 13 1 12 14
M  V30 14 2 12 15
M  V30 15 1 14 16
M  V30 16 2 16 17
M  V30 17 1 16 18
M  V30 18 1 17 19
M  V30 19 2 18 20
M  V30 20 1 18 21
M  V30 21 2 19 22
M  V30 22 1 19 23
M  V30 23 1 23 24
M  V30 24 2 24 25
M  V30 25 1 24 26
M  V30 26 1 25 27
M  V30 27 2 26 28
M  V30 28 2 27 29
M  V30 29 1 29 30
M  V30 30 1 30 31
M  V30 31 1 30 32
M  V30 32 1 31 33
M  V30 33 1 32 34
M  V30 34 1 33 35
M  V30 35 1 35 36
M  V30 36 1 13 15
M  V30 37 1 20 22
M  V30 38 1 28 29
M  V30 39 1 34 35
M  V30 END BOND
M  V30 END CTAB
M  END
>  <Molecule Name>
Compound 820

>  <Molecule Name 2>
Compound 820

>  <Compound ID>
227

>  <Name>
TG101209

>  <Uniprot>
O94768

>  <Target>
STK17B

>  <Smiles>
CC1=CN=C(NC2=CC=C(N3CCN(C)CC3)C=C2)N=C1NC1=CC=CC(S(=O)(=O)NC(C)(C)C)=C1

>  <Kd (nM)>


>  <Assay (Kd)>


>  <Ki (nM)>


>  <Assay (Ki)>


>  <IC50 (nM)>


>  <Assay (IC50)>


>  <EC50 (nM)>


>  <Assay (EC50)>


>  <Article DOI>
10.1016/j.cell.2020.10.038

>  <Molecular Weight>
509.68

>  <Exact Mass>
509.2572944

>  <XLogP3>
4.2

>  <Heavy Atom Count>
36

>  <Ring Count>
4

>  <Hydrogen Bond Acceptor Count>
8

>  <Hydrogen Bond Donor Count>
3

>  <Rotatable Bond Count>
7

>  <Topological Polar Surface Area>
102.49

>  <Molecular Formula>
C26H35N7O2S

>  <InChI>
InChI=1S/C26H35N7O2S/c1-19-18-27-25(29-20-9-11-22(12-10-20)33-15-13-32(5)14-16-33)30-24(19)28-21-7-6-8-23(17-21)36(34,35)31-26(2,3)4/h6-12,17-18,31H,13-16H2,1-5H3,(H2,27,28,29,30)

>  <InChI Key>
JVDOKQYTTYUYDV-UHFFFAOYSA-N

>  <BindingDB>
192755

>  <PubChem>
16722832

>  <ChEMBL>
CHEMBL1995703

$$$$
227
Actelion Java MolfileCreator 2.0

  0  0  0  0  0  0              0 V3000
M  V30 BEGIN CTAB
M  V30 COUNTS 36 39 0 0 0
M  V30 BEGIN ATOM
M  V30 1 S 2.598 -0.75 0.0 0
M  V30 2 O 1.0981 -0.75 0.0 0
M  V30 3 O 1.8481 0.549 0.0 0
M  V30 4 N 2.598 -2.25 0.0 0
M  V30 5 C 3.8971 0.0 0.0 0
M  V30 6 C 1.299 -3.0 0.0 0
M  V30 7 C 5.1961 -0.75 0.0 0
M  V30 8 C 3.8971 1.5 0.0 0
M  V30 9 C 0.549 -1.7009 0.0 0
M  V30 10 C 0.0 -3.75 0.0 0
M  V30 11 C 2.049 -4.299 0.0 0
M  V30 12 C 6.4951 0.0 0.0 0
M  V30 13 C 5.1961 2.25 0.0 0
M  V30 14 N 7.7942 -0.75 0.0 0
M  V30 15 C 6.4951 1.5 0.0 0
M  V30 16 C 9.0932 0.0 0.0 0
M  V30 17 N 10.3923 -0.75 0.0 0
M  V30 18 C 9.0932 1.5 0.0 0
M  V30 19 C 11.6913 0.0 0.0 0
M  V30 20 C 10.3923 2.25 0.0 0
M  V30 21 C 7.7942 2.25 0.0 0
M  V30 22 N 11.6913 1.5 0.0 0
M  V30 23 N 12.9903 -0.75 0.0 0
M  V30 24 C 14.2894 0.0 0.0 0
M  V30 25 C 15.5884 -0.75 0.0 0
M  V30 26 C 14.2894 1.5 0.0 0
M  V30 27 C 16.8875 0.0 0.0 0
M  V30 28 C 15.5884 2.25 0.0 0
M  V30 29 C 16.8875 1.5 0.0 0
M  V30 30 N 18.1865 2.25 0.0 0
M  V30 31 C 19.4855 1.5 0.0 0
M  V30 32 C 18.1865 3.75 0.0 0
M  V30 33 C 20.7846 2.25 0.0 0
M  V30 34 C 19.4855 4.5 0.0 0
M  V30 35 N 20.7846 3.75 0.0 0
M  V30 36 C 22.0836 4.5 0.0 0
M  V30 END ATOM
M  V30 BEGIN BOND
M  V30 1 2 1 2
M  V30 2 2 1 3
M  V30 3 1 1 4
M  V30 4 1 1 5
M  V30 5 1 4 6
M  V30 6 2 5 7
M  V30 7 1 5 8
M  V30 8 1 6 9
M  V30 9 1 6 10
M  V30 10 1 6 11
M  V30 11 1 7 12
M  V30 12 2 8 13
M  V30 13 1 12 14
M  V30 14 2 12 15
M  V30 15 1 14 16
M  V30 16 2 16 17
M  V30 17 1 16 18
M  V30 18 1 17 19
M  V30 19 2 18 20
M  V30 20 1 18 21
M  V30 21 2 19 22
M  V30 22 1 19 23
M  V30 23 1 23 24
M  V30 24 2 24 25
M  V30 25 1 24 26
M  V30 26 1 25 27
M  V30 27 2 26 28
M  V30 28 2 27 29
M  V30 29 1 29 30
M  V30 30 1 30 31
M  V30 31 1 30 32
M  V30 32 1 31 33
M  V30 33 1 32 34
M  V30 34 1 33 35
M  V30 35 1 35 36
M  V30 36 1 13 15
M  V30 37 1 20 22
M  V30 38 1 28 29
M  V30 39 1 34 35
M  V30 END BOND
M  V30 END CTAB
M  END
>  <Molecule Name>
Compound 821

>  <Molecule Name 2>
Compound 821

>  <Compound ID>
227

>  <Name>
TG101209

>  <Uniprot>
P30291

>  <Target>
Wee1

>  <Smiles>
CC1=CN=C(NC2=CC=C(N3CCN(C)CC3)C=C2)N=C1NC1=CC=CC(S(=O)(=O)NC(C)(C)C)=C1

>  <Kd (nM)>


>  <Assay (Kd)>


>  <Ki (nM)>
125.89

>  <Assay (Ki)>
Ki of Wee1

>  <IC50 (nM)>


>  <Assay (IC50)>


>  <EC50 (nM)>


>  <Assay (EC50)>


>  <Article DOI>


>  <Molecular Weight>
509.68

>  <Exact Mass>
509.2572944

>  <XLogP3>
4.2

>  <Heavy Atom Count>
36

>  <Ring Count>
4

>  <Hydrogen Bond Acceptor Count>
8

>  <Hydrogen Bond Donor Count>
3

>  <Rotatable Bond Count>
7

>  <Topological Polar Surface Area>
102.49

>  <Molecular Formula>
C26H35N7O2S

>  <InChI>
InChI=1S/C26H35N7O2S/c1-19-18-27-25(29-20-9-11-22(12-10-20)33-15-13-32(5)14-16-33)30-24(19)28-21-7-6-8-23(17-21)36(34,35)31-26(2,3)4/h6-12,17-18,31H,13-16H2,1-5H3,(H2,27,28,29,30)

>  <InChI Key>
JVDOKQYTTYUYDV-UHFFFAOYSA-N

>  <BindingDB>
192755

>  <PubChem>
16722832

>  <ChEMBL>
CHEMBL1995703

$$$$
228
Actelion Java MolfileCreator 2.0

  0  0  0  0  0  0              0 V3000
M  V30 BEGIN CTAB
M  V30 COUNTS 29 32 0 0 0
M  V30 BEGIN ATOM
M  V30 1 O 3.8971 0.0 0.0 0
M  V30 2 C 2.598 -0.75 0.0 0
M  V30 3 C 1.299 0.0 0.0 0
M  V30 4 C 0.0 -0.75 0.0 0 CFG=1
M  V30 5 N -1.299 0.0 0.0 0
M  V30 6 C 0.0 -2.25 0.0 0
M  V30 7 C -1.299 1.5 0.0 0
M  V30 8 C -2.598 -0.7499 0.0 0
M  V30 9 C -1.299 -2.9999 0.0 0
M  V30 10 N -2.598 2.25 0.0 0
M  V30 11 C 0.0 2.25 0.0 0
M  V30 12 C -2.598 -2.2499 0.0 0
M  V30 13 C -2.598 3.75 0.0 0
M  V30 14 C 0.0 3.75 0.0 0
M  V30 15 N -1.299 4.5 0.0 0
M  V30 16 C -3.7127 4.7536 0.0 0
M  V30 17 N 1.299 4.5 0.0 0
M  V30 18 N -1.6109 5.9672 0.0 0
M  V30 19 C -3.1026 6.124 0.0 0
M  V30 20 C -5.18 4.4418 0.0 0
M  V30 21 C 2.598 3.7499 0.0 0
M  V30 22 C -5.6435 3.0152 0.0 0
M  V30 23 C 3.8971 4.4999 0.0 0
M  V30 24 C 5.1961 3.7499 0.0 0
M  V30 25 C 3.8971 5.9999 0.0 0
M  V30 26 N 6.4951 4.4999 0.0 0 CHG=1
M  V30 27 C 5.1961 6.7499 0.0 0
M  V30 28 O 7.7942 3.7499 0.0 0 CHG=-1
M  V30 29 C 6.4951 5.9999 0.0 0
M  V30 END ATOM
M  V30 BEGIN BOND
M  V30 1 1 1 2
M  V30 2 1 2 3
M  V30 3 1 4 3 CFG=3
M  V30 4 1 4 5
M  V30 5 1 4 6
M  V30 6 1 5 7
M  V30 7 1 5 8
M  V30 8 1 6 9
M  V30 9 2 7 10
M  V30 10 1 7 11
M  V30 11 1 8 12
M  V30 12 1 10 13
M  V30 13 2 11 14
M  V30 14 1 13 15
M  V30 15 2 13 16
M  V30 16 1 14 17
M  V30 17 1 15 18
M  V30 18 1 16 19
M  V30 19 1 16 20
M  V30 20 1 17 21
M  V30 21 1 20 22
M  V30 22 1 21 23
M  V30 23 2 23 24
M  V30 24 1 23 25
M  V30 25 1 24 26
M  V30 26 2 25 27
M  V30 27 1 26 28
M  V30 28 2 26 29
M  V30 29 1 9 12
M  V30 30 1 14 15
M  V30 31 2 18 19
M  V30 32 1 27 29
M  V30 END BOND
M  V30 BEGIN COLLECTION
M  V30 MDLV30/STEABS ATOMS=(1 4)
M  V30 END COLLECTION
M  V30 END CTAB
M  END
>  <Molecule Name>
Compound 822

>  <Molecule Name 2>
Compound 822

>  <Compound ID>
228

>  <Name>
Dinaciclib

>  <Uniprot>
O14965

>  <Target>
AURKA

>  <Smiles>
CCC1=C2N=C(N3CCCC[C@H]3CCO)C=C(NCC3=CC=C[N+]([O-])=C3)N2N=C1

>  <Kd (nM)>


>  <Assay (Kd)>


>  <Ki (nM)>


>  <Assay (Ki)>


>  <IC50 (nM)>


>  <Assay (IC50)>


>  <EC50 (nM)>


>  <Assay (EC50)>


>  <Article DOI>
10.1016/j.cell.2020.10.038

>  <Molecular Weight>
396.495

>  <Exact Mass>
396.2273741

>  <XLogP3>
1.91

>  <Heavy Atom Count>
29

>  <Ring Count>
4

>  <Hydrogen Bond Acceptor Count>
7

>  <Hydrogen Bond Donor Count>
2

>  <Rotatable Bond Count>
7

>  <Topological Polar Surface Area>
92.63

>  <Molecular Formula>
C21H28N6O2

>  <InChI>
InChI=1S/C21H28N6O2/c1-2-17-14-23-27-19(22-13-16-6-5-9-25(29)15-16)12-20(24-21(17)27)26-10-4-3-7-18(26)8-11-28/h5-6,9,12,14-15,18,22,28H,2-4,7-8,10-11,13H2,1H3/t18-/m0/s1

>  <InChI Key>
PIMQWRZWLQKKBJ-SFHVURJKSA-N

>  <BindingDB>
50139171

>  <PubChem>
46926350

>  <ChEMBL>
CHEMBL2103840

$$$$
228
Actelion Java MolfileCreator 2.0

  0  0  0  0  0  0              0 V3000
M  V30 BEGIN CTAB
M  V30 COUNTS 29 32 0 0 0
M  V30 BEGIN ATOM
M  V30 1 O 3.8971 0.0 0.0 0
M  V30 2 C 2.598 -0.75 0.0 0
M  V30 3 C 1.299 0.0 0.0 0
M  V30 4 C 0.0 -0.75 0.0 0 CFG=1
M  V30 5 N -1.299 0.0 0.0 0
M  V30 6 C 0.0 -2.25 0.0 0
M  V30 7 C -1.299 1.5 0.0 0
M  V30 8 C -2.598 -0.7499 0.0 0
M  V30 9 C -1.299 -2.9999 0.0 0
M  V30 10 N -2.598 2.25 0.0 0
M  V30 11 C 0.0 2.25 0.0 0
M  V30 12 C -2.598 -2.2499 0.0 0
M  V30 13 C -2.598 3.75 0.0 0
M  V30 14 C 0.0 3.75 0.0 0
M  V30 15 N -1.299 4.5 0.0 0
M  V30 16 C -3.7127 4.7536 0.0 0
M  V30 17 N 1.299 4.5 0.0 0
M  V30 18 N -1.6109 5.9672 0.0 0
M  V30 19 C -3.1026 6.124 0.0 0
M  V30 20 C -5.18 4.4418 0.0 0
M  V30 21 C 2.598 3.7499 0.0 0
M  V30 22 C -5.6435 3.0152 0.0 0
M  V30 23 C 3.8971 4.4999 0.0 0
M  V30 24 C 5.1961 3.7499 0.0 0
M  V30 25 C 3.8971 5.9999 0.0 0
M  V30 26 N 6.4951 4.4999 0.0 0 CHG=1
M  V30 27 C 5.1961 6.7499 0.0 0
M  V30 28 O 7.7942 3.7499 0.0 0 CHG=-1
M  V30 29 C 6.4951 5.9999 0.0 0
M  V30 END ATOM
M  V30 BEGIN BOND
M  V30 1 1 1 2
M  V30 2 1 2 3
M  V30 3 1 4 3 CFG=3
M  V30 4 1 4 5
M  V30 5 1 4 6
M  V30 6 1 5 7
M  V30 7 1 5 8
M  V30 8 1 6 9
M  V30 9 2 7 10
M  V30 10 1 7 11
M  V30 11 1 8 12
M  V30 12 1 10 13
M  V30 13 2 11 14
M  V30 14 1 13 15
M  V30 15 2 13 16
M  V30 16 1 14 17
M  V30 17 1 15 18
M  V30 18 1 16 19
M  V30 19 1 16 20
M  V30 20 1 17 21
M  V30 21 1 20 22
M  V30 22 1 21 23
M  V30 23 2 23 24
M  V30 24 1 23 25
M  V30 25 1 24 26
M  V30 26 2 25 27
M  V30 27 1 26 28
M  V30 28 2 26 29
M  V30 29 1 9 12
M  V30 30 1 14 15
M  V30 31 2 18 19
M  V30 32 1 27 29
M  V30 END BOND
M  V30 BEGIN COLLECTION
M  V30 MDLV30/STEABS ATOMS=(1 4)
M  V30 END COLLECTION
M  V30 END CTAB
M  END
>  <Molecule Name>
Compound 823

>  <Molecule Name 2>
Compound 823

>  <Compound ID>
228

>  <Name>
Dinaciclib

>  <Uniprot>
O60566

>  <Target>
BUB1B

>  <Smiles>
CCC1=C2N=C(N3CCCC[C@H]3CCO)C=C(NCC3=CC=C[N+]([O-])=C3)N2N=C1

>  <Kd (nM)>


>  <Assay (Kd)>


>  <Ki (nM)>


>  <Assay (Ki)>


>  <IC50 (nM)>


>  <Assay (IC50)>


>  <EC50 (nM)>


>  <Assay (EC50)>


>  <Article DOI>
10.1016/j.cell.2020.10.038

>  <Molecular Weight>
396.495

>  <Exact Mass>
396.2273741

>  <XLogP3>
1.91

>  <Heavy Atom Count>
29

>  <Ring Count>
4

>  <Hydrogen Bond Acceptor Count>
7

>  <Hydrogen Bond Donor Count>
2

>  <Rotatable Bond Count>
7

>  <Topological Polar Surface Area>
92.63

>  <Molecular Formula>
C21H28N6O2

>  <InChI>
InChI=1S/C21H28N6O2/c1-2-17-14-23-27-19(22-13-16-6-5-9-25(29)15-16)12-20(24-21(17)27)26-10-4-3-7-18(26)8-11-28/h5-6,9,12,14-15,18,22,28H,2-4,7-8,10-11,13H2,1H3/t18-/m0/s1

>  <InChI Key>
PIMQWRZWLQKKBJ-SFHVURJKSA-N

>  <BindingDB>
50139171

>  <PubChem>
46926350

>  <ChEMBL>
CHEMBL2103840

$$$$
228
Actelion Java MolfileCreator 2.0

  0  0  0  0  0  0              0 V3000
M  V30 BEGIN CTAB
M  V30 COUNTS 29 32 0 0 0
M  V30 BEGIN ATOM
M  V30 1 O 3.8971 0.0 0.0 0
M  V30 2 C 2.598 -0.75 0.0 0
M  V30 3 C 1.299 0.0 0.0 0
M  V30 4 C 0.0 -0.75 0.0 0 CFG=1
M  V30 5 N -1.299 0.0 0.0 0
M  V30 6 C 0.0 -2.25 0.0 0
M  V30 7 C -1.299 1.5 0.0 0
M  V30 8 C -2.598 -0.7499 0.0 0
M  V30 9 C -1.299 -2.9999 0.0 0
M  V30 10 N -2.598 2.25 0.0 0
M  V30 11 C 0.0 2.25 0.0 0
M  V30 12 C -2.598 -2.2499 0.0 0
M  V30 13 C -2.598 3.75 0.0 0
M  V30 14 C 0.0 3.75 0.0 0
M  V30 15 N -1.299 4.5 0.0 0
M  V30 16 C -3.7127 4.7536 0.0 0
M  V30 17 N 1.299 4.5 0.0 0
M  V30 18 N -1.6109 5.9672 0.0 0
M  V30 19 C -3.1026 6.124 0.0 0
M  V30 20 C -5.18 4.4418 0.0 0
M  V30 21 C 2.598 3.7499 0.0 0
M  V30 22 C -5.6435 3.0152 0.0 0
M  V30 23 C 3.8971 4.4999 0.0 0
M  V30 24 C 5.1961 3.7499 0.0 0
M  V30 25 C 3.8971 5.9999 0.0 0
M  V30 26 N 6.4951 4.4999 0.0 0 CHG=1
M  V30 27 C 5.1961 6.7499 0.0 0
M  V30 28 O 7.7942 3.7499 0.0 0 CHG=-1
M  V30 29 C 6.4951 5.9999 0.0 0
M  V30 END ATOM
M  V30 BEGIN BOND
M  V30 1 1 1 2
M  V30 2 1 2 3
M  V30 3 1 4 3 CFG=3
M  V30 4 1 4 5
M  V30 5 1 4 6
M  V30 6 1 5 7
M  V30 7 1 5 8
M  V30 8 1 6 9
M  V30 9 2 7 10
M  V30 10 1 7 11
M  V30 11 1 8 12
M  V30 12 1 10 13
M  V30 13 2 11 14
M  V30 14 1 13 15
M  V30 15 2 13 16
M  V30 16 1 14 17
M  V30 17 1 15 18
M  V30 18 1 16 19
M  V30 19 1 16 20
M  V30 20 1 17 21
M  V30 21 1 20 22
M  V30 22 1 21 23
M  V30 23 2 23 24
M  V30 24 1 23 25
M  V30 25 1 24 26
M  V30 26 2 25 27
M  V30 27 1 26 28
M  V30 28 2 26 29
M  V30 29 1 9 12
M  V30 30 1 14 15
M  V30 31 2 18 19
M  V30 32 1 27 29
M  V30 END BOND
M  V30 BEGIN COLLECTION
M  V30 MDLV30/STEABS ATOMS=(1 4)
M  V30 END COLLECTION
M  V30 END CTAB
M  END
>  <Molecule Name>
Compound 824

>  <Molecule Name 2>
Compound 824

>  <Compound ID>
228

>  <Name>
Dinaciclib

>  <Uniprot>
O43683

>  <Target>
BUB1

>  <Smiles>
CCC1=C2N=C(N3CCCC[C@H]3CCO)C=C(NCC3=CC=C[N+]([O-])=C3)N2N=C1

>  <Kd (nM)>
>30000

>  <Assay (Kd)>
Kd apparent of BUB1A

>  <Ki (nM)>


>  <Assay (Ki)>


>  <IC50 (nM)>


>  <Assay (IC50)>


>  <EC50 (nM)>


>  <Assay (EC50)>


>  <Article DOI>
10.1126/science.aan4368

>  <Molecular Weight>
396.495

>  <Exact Mass>
396.2273741

>  <XLogP3>
1.91

>  <Heavy Atom Count>
29

>  <Ring Count>
4

>  <Hydrogen Bond Acceptor Count>
7

>  <Hydrogen Bond Donor Count>
2

>  <Rotatable Bond Count>
7

>  <Topological Polar Surface Area>
92.63

>  <Molecular Formula>
C21H28N6O2

>  <InChI>
InChI=1S/C21H28N6O2/c1-2-17-14-23-27-19(22-13-16-6-5-9-25(29)15-16)12-20(24-21(17)27)26-10-4-3-7-18(26)8-11-28/h5-6,9,12,14-15,18,22,28H,2-4,7-8,10-11,13H2,1H3/t18-/m0/s1

>  <InChI Key>
PIMQWRZWLQKKBJ-SFHVURJKSA-N

>  <BindingDB>
50139171

>  <PubChem>
46926350

>  <ChEMBL>
CHEMBL2103840

$$$$
228
Actelion Java MolfileCreator 2.0

  0  0  0  0  0  0              0 V3000
M  V30 BEGIN CTAB
M  V30 COUNTS 29 32 0 0 0
M  V30 BEGIN ATOM
M  V30 1 O 3.8971 0.0 0.0 0
M  V30 2 C 2.598 -0.75 0.0 0
M  V30 3 C 1.299 0.0 0.0 0
M  V30 4 C 0.0 -0.75 0.0 0 CFG=1
M  V30 5 N -1.299 0.0 0.0 0
M  V30 6 C 0.0 -2.25 0.0 0
M  V30 7 C -1.299 1.5 0.0 0
M  V30 8 C -2.598 -0.7499 0.0 0
M  V30 9 C -1.299 -2.9999 0.0 0
M  V30 10 N -2.598 2.25 0.0 0
M  V30 11 C 0.0 2.25 0.0 0
M  V30 12 C -2.598 -2.2499 0.0 0
M  V30 13 C -2.598 3.75 0.0 0
M  V30 14 C 0.0 3.75 0.0 0
M  V30 15 N -1.299 4.5 0.0 0
M  V30 16 C -3.7127 4.7536 0.0 0
M  V30 17 N 1.299 4.5 0.0 0
M  V30 18 N -1.6109 5.9672 0.0 0
M  V30 19 C -3.1026 6.124 0.0 0
M  V30 20 C -5.18 4.4418 0.0 0
M  V30 21 C 2.598 3.7499 0.0 0
M  V30 22 C -5.6435 3.0152 0.0 0
M  V30 23 C 3.8971 4.4999 0.0 0
M  V30 24 C 5.1961 3.7499 0.0 0
M  V30 25 C 3.8971 5.9999 0.0 0
M  V30 26 N 6.4951 4.4999 0.0 0 CHG=1
M  V30 27 C 5.1961 6.7499 0.0 0
M  V30 28 O 7.7942 3.7499 0.0 0 CHG=-1
M  V30 29 C 6.4951 5.9999 0.0 0
M  V30 END ATOM
M  V30 BEGIN BOND
M  V30 1 1 1 2
M  V30 2 1 2 3
M  V30 3 1 4 3 CFG=3
M  V30 4 1 4 5
M  V30 5 1 4 6
M  V30 6 1 5 7
M  V30 7 1 5 8
M  V30 8 1 6 9
M  V30 9 2 7 10
M  V30 10 1 7 11
M  V30 11 1 8 12
M  V30 12 1 10 13
M  V30 13 2 11 14
M  V30 14 1 13 15
M  V30 15 2 13 16
M  V30 16 1 14 17
M  V30 17 1 15 18
M  V30 18 1 16 19
M  V30 19 1 16 20
M  V30 20 1 17 21
M  V30 21 1 20 22
M  V30 22 1 21 23
M  V30 23 2 23 24
M  V30 24 1 23 25
M  V30 25 1 24 26
M  V30 26 2 25 27
M  V30 27 1 26 28
M  V30 28 2 26 29
M  V30 29 1 9 12
M  V30 30 1 14 15
M  V30 31 2 18 19
M  V30 32 1 27 29
M  V30 END BOND
M  V30 BEGIN COLLECTION
M  V30 MDLV30/STEABS ATOMS=(1 4)
M  V30 END COLLECTION
M  V30 END CTAB
M  END
>  <Molecule Name>
Compound 825

>  <Molecule Name 2>
Compound 825

>  <Compound ID>
228

>  <Name>
Dinaciclib

>  <Uniprot>
P11802

>  <Target>
CDK4

>  <Smiles>
CCC1=C2N=C(N3CCCC[C@H]3CCO)C=C(NCC3=CC=C[N+]([O-])=C3)N2N=C1

>  <Kd (nM)>


>  <Assay (Kd)>


>  <Ki (nM)>


>  <Assay (Ki)>


>  <IC50 (nM)>
127

>  <Assay (IC50)>
Inhibition of CDK4

>  <EC50 (nM)>


>  <Assay (EC50)>


>  <Article DOI>
10.1016/j.ejmech.2016.01.011

>  <Molecular Weight>
396.495

>  <Exact Mass>
396.2273741

>  <XLogP3>
1.91

>  <Heavy Atom Count>
29

>  <Ring Count>
4

>  <Hydrogen Bond Acceptor Count>
7

>  <Hydrogen Bond Donor Count>
2

>  <Rotatable Bond Count>
7

>  <Topological Polar Surface Area>
92.63

>  <Molecular Formula>
C21H28N6O2

>  <InChI>
InChI=1S/C21H28N6O2/c1-2-17-14-23-27-19(22-13-16-6-5-9-25(29)15-16)12-20(24-21(17)27)26-10-4-3-7-18(26)8-11-28/h5-6,9,12,14-15,18,22,28H,2-4,7-8,10-11,13H2,1H3/t18-/m0/s1

>  <InChI Key>
PIMQWRZWLQKKBJ-SFHVURJKSA-N

>  <BindingDB>
50139171

>  <PubChem>
46926350

>  <ChEMBL>
CHEMBL2103840

$$$$
228
Actelion Java MolfileCreator 2.0

  0  0  0  0  0  0              0 V3000
M  V30 BEGIN CTAB
M  V30 COUNTS 29 32 0 0 0
M  V30 BEGIN ATOM
M  V30 1 O 3.8971 0.0 0.0 0
M  V30 2 C 2.598 -0.75 0.0 0
M  V30 3 C 1.299 0.0 0.0 0
M  V30 4 C 0.0 -0.75 0.0 0 CFG=1
M  V30 5 N -1.299 0.0 0.0 0
M  V30 6 C 0.0 -2.25 0.0 0
M  V30 7 C -1.299 1.5 0.0 0
M  V30 8 C -2.598 -0.7499 0.0 0
M  V30 9 C -1.299 -2.9999 0.0 0
M  V30 10 N -2.598 2.25 0.0 0
M  V30 11 C 0.0 2.25 0.0 0
M  V30 12 C -2.598 -2.2499 0.0 0
M  V30 13 C -2.598 3.75 0.0 0
M  V30 14 C 0.0 3.75 0.0 0
M  V30 15 N -1.299 4.5 0.0 0
M  V30 16 C -3.7127 4.7536 0.0 0
M  V30 17 N 1.299 4.5 0.0 0
M  V30 18 N -1.6109 5.9672 0.0 0
M  V30 19 C -3.1026 6.124 0.0 0
M  V30 20 C -5.18 4.4418 0.0 0
M  V30 21 C 2.598 3.7499 0.0 0
M  V30 22 C -5.6435 3.0152 0.0 0
M  V30 23 C 3.8971 4.4999 0.0 0
M  V30 24 C 5.1961 3.7499 0.0 0
M  V30 25 C 3.8971 5.9999 0.0 0
M  V30 26 N 6.4951 4.4999 0.0 0 CHG=1
M  V30 27 C 5.1961 6.7499 0.0 0
M  V30 28 O 7.7942 3.7499 0.0 0 CHG=-1
M  V30 29 C 6.4951 5.9999 0.0 0
M  V30 END ATOM
M  V30 BEGIN BOND
M  V30 1 1 1 2
M  V30 2 1 2 3
M  V30 3 1 4 3 CFG=3
M  V30 4 1 4 5
M  V30 5 1 4 6
M  V30 6 1 5 7
M  V30 7 1 5 8
M  V30 8 1 6 9
M  V30 9 2 7 10
M  V30 10 1 7 11
M  V30 11 1 8 12
M  V30 12 1 10 13
M  V30 13 2 11 14
M  V30 14 1 13 15
M  V30 15 2 13 16
M  V30 16 1 14 17
M  V30 17 1 15 18
M  V30 18 1 16 19
M  V30 19 1 16 20
M  V30 20 1 17 21
M  V30 21 1 20 22
M  V30 22 1 21 23
M  V30 23 2 23 24
M  V30 24 1 23 25
M  V30 25 1 24 26
M  V30 26 2 25 27
M  V30 27 1 26 28
M  V30 28 2 26 29
M  V30 29 1 9 12
M  V30 30 1 14 15
M  V30 31 2 18 19
M  V30 32 1 27 29
M  V30 END BOND
M  V30 BEGIN COLLECTION
M  V30 MDLV30/STEABS ATOMS=(1 4)
M  V30 END COLLECTION
M  V30 END CTAB
M  END
>  <Molecule Name>
Compound 826

>  <Molecule Name 2>
Compound 826

>  <Compound ID>
228

>  <Name>
Dinaciclib

>  <Uniprot>
P48729

>  <Target>
CSNK1A1

>  <Smiles>
CCC1=C2N=C(N3CCCC[C@H]3CCO)C=C(NCC3=CC=C[N+]([O-])=C3)N2N=C1

>  <Kd (nM)>


>  <Assay (Kd)>


>  <Ki (nM)>


>  <Assay (Ki)>


>  <IC50 (nM)>


>  <Assay (IC50)>


>  <EC50 (nM)>


>  <Assay (EC50)>


>  <Article DOI>
10.1016/j.cell.2020.10.038

>  <Molecular Weight>
396.495

>  <Exact Mass>
396.2273741

>  <XLogP3>
1.91

>  <Heavy Atom Count>
29

>  <Ring Count>
4

>  <Hydrogen Bond Acceptor Count>
7

>  <Hydrogen Bond Donor Count>
2

>  <Rotatable Bond Count>
7

>  <Topological Polar Surface Area>
92.63

>  <Molecular Formula>
C21H28N6O2

>  <InChI>
InChI=1S/C21H28N6O2/c1-2-17-14-23-27-19(22-13-16-6-5-9-25(29)15-16)12-20(24-21(17)27)26-10-4-3-7-18(26)8-11-28/h5-6,9,12,14-15,18,22,28H,2-4,7-8,10-11,13H2,1H3/t18-/m0/s1

>  <InChI Key>
PIMQWRZWLQKKBJ-SFHVURJKSA-N

>  <BindingDB>
50139171

>  <PubChem>
46926350

>  <ChEMBL>
CHEMBL2103840

$$$$
228
Actelion Java MolfileCreator 2.0

  0  0  0  0  0  0              0 V3000
M  V30 BEGIN CTAB
M  V30 COUNTS 29 32 0 0 0
M  V30 BEGIN ATOM
M  V30 1 O 3.8971 0.0 0.0 0
M  V30 2 C 2.598 -0.75 0.0 0
M  V30 3 C 1.299 0.0 0.0 0
M  V30 4 C 0.0 -0.75 0.0 0 CFG=1
M  V30 5 N -1.299 0.0 0.0 0
M  V30 6 C 0.0 -2.25 0.0 0
M  V30 7 C -1.299 1.5 0.0 0
M  V30 8 C -2.598 -0.7499 0.0 0
M  V30 9 C -1.299 -2.9999 0.0 0
M  V30 10 N -2.598 2.25 0.0 0
M  V30 11 C 0.0 2.25 0.0 0
M  V30 12 C -2.598 -2.2499 0.0 0
M  V30 13 C -2.598 3.75 0.0 0
M  V30 14 C 0.0 3.75 0.0 0
M  V30 15 N -1.299 4.5 0.0 0
M  V30 16 C -3.7127 4.7536 0.0 0
M  V30 17 N 1.299 4.5 0.0 0
M  V30 18 N -1.6109 5.9672 0.0 0
M  V30 19 C -3.1026 6.124 0.0 0
M  V30 20 C -5.18 4.4418 0.0 0
M  V30 21 C 2.598 3.7499 0.0 0
M  V30 22 C -5.6435 3.0152 0.0 0
M  V30 23 C 3.8971 4.4999 0.0 0
M  V30 24 C 5.1961 3.7499 0.0 0
M  V30 25 C 3.8971 5.9999 0.0 0
M  V30 26 N 6.4951 4.4999 0.0 0 CHG=1
M  V30 27 C 5.1961 6.7499 0.0 0
M  V30 28 O 7.7942 3.7499 0.0 0 CHG=-1
M  V30 29 C 6.4951 5.9999 0.0 0
M  V30 END ATOM
M  V30 BEGIN BOND
M  V30 1 1 1 2
M  V30 2 1 2 3
M  V30 3 1 4 3 CFG=3
M  V30 4 1 4 5
M  V30 5 1 4 6
M  V30 6 1 5 7
M  V30 7 1 5 8
M  V30 8 1 6 9
M  V30 9 2 7 10
M  V30 10 1 7 11
M  V30 11 1 8 12
M  V30 12 1 10 13
M  V30 13 2 11 14
M  V30 14 1 13 15
M  V30 15 2 13 16
M  V30 16 1 14 17
M  V30 17 1 15 18
M  V30 18 1 16 19
M  V30 19 1 16 20
M  V30 20 1 17 21
M  V30 21 1 20 22
M  V30 22 1 21 23
M  V30 23 2 23 24
M  V30 24 1 23 25
M  V30 25 1 24 26
M  V30 26 2 25 27
M  V30 27 1 26 28
M  V30 28 2 26 29
M  V30 29 1 9 12
M  V30 30 1 14 15
M  V30 31 2 18 19
M  V30 32 1 27 29
M  V30 END BOND
M  V30 BEGIN COLLECTION
M  V30 MDLV30/STEABS ATOMS=(1 4)
M  V30 END COLLECTION
M  V30 END CTAB
M  END
>  <Molecule Name>
Compound 827

>  <Molecule Name 2>
Compound 827

>  <Compound ID>
228

>  <Name>
Dinaciclib

>  <Uniprot>
Q13233

>  <Target>
MAP3K1

>  <Smiles>
CCC1=C2N=C(N3CCCC[C@H]3CCO)C=C(NCC3=CC=C[N+]([O-])=C3)N2N=C1

>  <Kd (nM)>


>  <Assay (Kd)>


>  <Ki (nM)>


>  <Assay (Ki)>


>  <IC50 (nM)>


>  <Assay (IC50)>


>  <EC50 (nM)>


>  <Assay (EC50)>


>  <Article DOI>
10.1016/j.cell.2020.10.038

>  <Molecular Weight>
396.495

>  <Exact Mass>
396.2273741

>  <XLogP3>
1.91

>  <Heavy Atom Count>
29

>  <Ring Count>
4

>  <Hydrogen Bond Acceptor Count>
7

>  <Hydrogen Bond Donor Count>
2

>  <Rotatable Bond Count>
7

>  <Topological Polar Surface Area>
92.63

>  <Molecular Formula>
C21H28N6O2

>  <InChI>
InChI=1S/C21H28N6O2/c1-2-17-14-23-27-19(22-13-16-6-5-9-25(29)15-16)12-20(24-21(17)27)26-10-4-3-7-18(26)8-11-28/h5-6,9,12,14-15,18,22,28H,2-4,7-8,10-11,13H2,1H3/t18-/m0/s1

>  <InChI Key>
PIMQWRZWLQKKBJ-SFHVURJKSA-N

>  <BindingDB>
50139171

>  <PubChem>
46926350

>  <ChEMBL>
CHEMBL2103840

$$$$
228
Actelion Java MolfileCreator 2.0

  0  0  0  0  0  0              0 V3000
M  V30 BEGIN CTAB
M  V30 COUNTS 29 32 0 0 0
M  V30 BEGIN ATOM
M  V30 1 O 3.8971 0.0 0.0 0
M  V30 2 C 2.598 -0.75 0.0 0
M  V30 3 C 1.299 0.0 0.0 0
M  V30 4 C 0.0 -0.75 0.0 0 CFG=1
M  V30 5 N -1.299 0.0 0.0 0
M  V30 6 C 0.0 -2.25 0.0 0
M  V30 7 C -1.299 1.5 0.0 0
M  V30 8 C -2.598 -0.7499 0.0 0
M  V30 9 C -1.299 -2.9999 0.0 0
M  V30 10 N -2.598 2.25 0.0 0
M  V30 11 C 0.0 2.25 0.0 0
M  V30 12 C -2.598 -2.2499 0.0 0
M  V30 13 C -2.598 3.75 0.0 0
M  V30 14 C 0.0 3.75 0.0 0
M  V30 15 N -1.299 4.5 0.0 0
M  V30 16 C -3.7127 4.7536 0.0 0
M  V30 17 N 1.299 4.5 0.0 0
M  V30 18 N -1.6109 5.9672 0.0 0
M  V30 19 C -3.1026 6.124 0.0 0
M  V30 20 C -5.18 4.4418 0.0 0
M  V30 21 C 2.598 3.7499 0.0 0
M  V30 22 C -5.6435 3.0152 0.0 0
M  V30 23 C 3.8971 4.4999 0.0 0
M  V30 24 C 5.1961 3.7499 0.0 0
M  V30 25 C 3.8971 5.9999 0.0 0
M  V30 26 N 6.4951 4.4999 0.0 0 CHG=1
M  V30 27 C 5.1961 6.7499 0.0 0
M  V30 28 O 7.7942 3.7499 0.0 0 CHG=-1
M  V30 29 C 6.4951 5.9999 0.0 0
M  V30 END ATOM
M  V30 BEGIN BOND
M  V30 1 1 1 2
M  V30 2 1 2 3
M  V30 3 1 4 3 CFG=3
M  V30 4 1 4 5
M  V30 5 1 4 6
M  V30 6 1 5 7
M  V30 7 1 5 8
M  V30 8 1 6 9
M  V30 9 2 7 10
M  V30 10 1 7 11
M  V30 11 1 8 12
M  V30 12 1 10 13
M  V30 13 2 11 14
M  V30 14 1 13 15
M  V30 15 2 13 16
M  V30 16 1 14 17
M  V30 17 1 15 18
M  V30 18 1 16 19
M  V30 19 1 16 20
M  V30 20 1 17 21
M  V30 21 1 20 22
M  V30 22 1 21 23
M  V30 23 2 23 24
M  V30 24 1 23 25
M  V30 25 1 24 26
M  V30 26 2 25 27
M  V30 27 1 26 28
M  V30 28 2 26 29
M  V30 29 1 9 12
M  V30 30 1 14 15
M  V30 31 2 18 19
M  V30 32 1 27 29
M  V30 END BOND
M  V30 BEGIN COLLECTION
M  V30 MDLV30/STEABS ATOMS=(1 4)
M  V30 END COLLECTION
M  V30 END CTAB
M  END
>  <Molecule Name>
Compound 828

>  <Molecule Name 2>
Compound 828

>  <Compound ID>
228

>  <Name>
Dinaciclib

>  <Uniprot>
O60285

>  <Target>
NUAK1

>  <Smiles>
CCC1=C2N=C(N3CCCC[C@H]3CCO)C=C(NCC3=CC=C[N+]([O-])=C3)N2N=C1

>  <Kd (nM)>


>  <Assay (Kd)>


>  <Ki (nM)>


>  <Assay (Ki)>


>  <IC50 (nM)>


>  <Assay (IC50)>


>  <EC50 (nM)>


>  <Assay (EC50)>


>  <Article DOI>
10.1016/j.cell.2020.10.038

>  <Molecular Weight>
396.495

>  <Exact Mass>
396.2273741

>  <XLogP3>
1.91

>  <Heavy Atom Count>
29

>  <Ring Count>
4

>  <Hydrogen Bond Acceptor Count>
7

>  <Hydrogen Bond Donor Count>
2

>  <Rotatable Bond Count>
7

>  <Topological Polar Surface Area>
92.63

>  <Molecular Formula>
C21H28N6O2

>  <InChI>
InChI=1S/C21H28N6O2/c1-2-17-14-23-27-19(22-13-16-6-5-9-25(29)15-16)12-20(24-21(17)27)26-10-4-3-7-18(26)8-11-28/h5-6,9,12,14-15,18,22,28H,2-4,7-8,10-11,13H2,1H3/t18-/m0/s1

>  <InChI Key>
PIMQWRZWLQKKBJ-SFHVURJKSA-N

>  <BindingDB>
50139171

>  <PubChem>
46926350

>  <ChEMBL>
CHEMBL2103840

$$$$
228
Actelion Java MolfileCreator 2.0

  0  0  0  0  0  0              0 V3000
M  V30 BEGIN CTAB
M  V30 COUNTS 29 32 0 0 0
M  V30 BEGIN ATOM
M  V30 1 O 3.8971 0.0 0.0 0
M  V30 2 C 2.598 -0.75 0.0 0
M  V30 3 C 1.299 0.0 0.0 0
M  V30 4 C 0.0 -0.75 0.0 0 CFG=1
M  V30 5 N -1.299 0.0 0.0 0
M  V30 6 C 0.0 -2.25 0.0 0
M  V30 7 C -1.299 1.5 0.0 0
M  V30 8 C -2.598 -0.7499 0.0 0
M  V30 9 C -1.299 -2.9999 0.0 0
M  V30 10 N -2.598 2.25 0.0 0
M  V30 11 C 0.0 2.25 0.0 0
M  V30 12 C -2.598 -2.2499 0.0 0
M  V30 13 C -2.598 3.75 0.0 0
M  V30 14 C 0.0 3.75 0.0 0
M  V30 15 N -1.299 4.5 0.0 0
M  V30 16 C -3.7127 4.7536 0.0 0
M  V30 17 N 1.299 4.5 0.0 0
M  V30 18 N -1.6109 5.9672 0.0 0
M  V30 19 C -3.1026 6.124 0.0 0
M  V30 20 C -5.18 4.4418 0.0 0
M  V30 21 C 2.598 3.7499 0.0 0
M  V30 22 C -5.6435 3.0152 0.0 0
M  V30 23 C 3.8971 4.4999 0.0 0
M  V30 24 C 5.1961 3.7499 0.0 0
M  V30 25 C 3.8971 5.9999 0.0 0
M  V30 26 N 6.4951 4.4999 0.0 0 CHG=1
M  V30 27 C 5.1961 6.7499 0.0 0
M  V30 28 O 7.7942 3.7499 0.0 0 CHG=-1
M  V30 29 C 6.4951 5.9999 0.0 0
M  V30 END ATOM
M  V30 BEGIN BOND
M  V30 1 1 1 2
M  V30 2 1 2 3
M  V30 3 1 4 3 CFG=3
M  V30 4 1 4 5
M  V30 5 1 4 6
M  V30 6 1 5 7
M  V30 7 1 5 8
M  V30 8 1 6 9
M  V30 9 2 7 10
M  V30 10 1 7 11
M  V30 11 1 8 12
M  V30 12 1 10 13
M  V30 13 2 11 14
M  V30 14 1 13 15
M  V30 15 2 13 16
M  V30 16 1 14 17
M  V30 17 1 15 18
M  V30 18 1 16 19
M  V30 19 1 16 20
M  V30 20 1 17 21
M  V30 21 1 20 22
M  V30 22 1 21 23
M  V30 23 2 23 24
M  V30 24 1 23 25
M  V30 25 1 24 26
M  V30 26 2 25 27
M  V30 27 1 26 28
M  V30 28 2 26 29
M  V30 29 1 9 12
M  V30 30 1 14 15
M  V30 31 2 18 19
M  V30 32 1 27 29
M  V30 END BOND
M  V30 BEGIN COLLECTION
M  V30 MDLV30/STEABS ATOMS=(1 4)
M  V30 END COLLECTION
M  V30 END CTAB
M  END
>  <Molecule Name>
Compound 829

>  <Molecule Name 2>
Compound 829

>  <Compound ID>
228

>  <Name>
Dinaciclib

>  <Uniprot>
Q9P1W9

>  <Target>
PIM2

>  <Smiles>
CCC1=C2N=C(N3CCCC[C@H]3CCO)C=C(NCC3=CC=C[N+]([O-])=C3)N2N=C1

>  <Kd (nM)>
>30000

>  <Assay (Kd)>
Kd apparent of PIM2

>  <Ki (nM)>


>  <Assay (Ki)>


>  <IC50 (nM)>


>  <Assay (IC50)>


>  <EC50 (nM)>


>  <Assay (EC50)>


>  <Article DOI>
10.1126/science.aan4368

>  <Molecular Weight>
396.495

>  <Exact Mass>
396.2273741

>  <XLogP3>
1.91

>  <Heavy Atom Count>
29

>  <Ring Count>
4

>  <Hydrogen Bond Acceptor Count>
7

>  <Hydrogen Bond Donor Count>
2

>  <Rotatable Bond Count>
7

>  <Topological Polar Surface Area>
92.63

>  <Molecular Formula>
C21H28N6O2

>  <InChI>
InChI=1S/C21H28N6O2/c1-2-17-14-23-27-19(22-13-16-6-5-9-25(29)15-16)12-20(24-21(17)27)26-10-4-3-7-18(26)8-11-28/h5-6,9,12,14-15,18,22,28H,2-4,7-8,10-11,13H2,1H3/t18-/m0/s1

>  <InChI Key>
PIMQWRZWLQKKBJ-SFHVURJKSA-N

>  <BindingDB>
50139171

>  <PubChem>
46926350

>  <ChEMBL>
CHEMBL2103840

$$$$
228
Actelion Java MolfileCreator 2.0

  0  0  0  0  0  0              0 V3000
M  V30 BEGIN CTAB
M  V30 COUNTS 29 32 0 0 0
M  V30 BEGIN ATOM
M  V30 1 O 3.8971 0.0 0.0 0
M  V30 2 C 2.598 -0.75 0.0 0
M  V30 3 C 1.299 0.0 0.0 0
M  V30 4 C 0.0 -0.75 0.0 0 CFG=1
M  V30 5 N -1.299 0.0 0.0 0
M  V30 6 C 0.0 -2.25 0.0 0
M  V30 7 C -1.299 1.5 0.0 0
M  V30 8 C -2.598 -0.7499 0.0 0
M  V30 9 C -1.299 -2.9999 0.0 0
M  V30 10 N -2.598 2.25 0.0 0
M  V30 11 C 0.0 2.25 0.0 0
M  V30 12 C -2.598 -2.2499 0.0 0
M  V30 13 C -2.598 3.75 0.0 0
M  V30 14 C 0.0 3.75 0.0 0
M  V30 15 N -1.299 4.5 0.0 0
M  V30 16 C -3.7127 4.7536 0.0 0
M  V30 17 N 1.299 4.5 0.0 0
M  V30 18 N -1.6109 5.9672 0.0 0
M  V30 19 C -3.1026 6.124 0.0 0
M  V30 20 C -5.18 4.4418 0.0 0
M  V30 21 C 2.598 3.7499 0.0 0
M  V30 22 C -5.6435 3.0152 0.0 0
M  V30 23 C 3.8971 4.4999 0.0 0
M  V30 24 C 5.1961 3.7499 0.0 0
M  V30 25 C 3.8971 5.9999 0.0 0
M  V30 26 N 6.4951 4.4999 0.0 0 CHG=1
M  V30 27 C 5.1961 6.7499 0.0 0
M  V30 28 O 7.7942 3.7499 0.0 0 CHG=-1
M  V30 29 C 6.4951 5.9999 0.0 0
M  V30 END ATOM
M  V30 BEGIN BOND
M  V30 1 1 1 2
M  V30 2 1 2 3
M  V30 3 1 4 3 CFG=3
M  V30 4 1 4 5
M  V30 5 1 4 6
M  V30 6 1 5 7
M  V30 7 1 5 8
M  V30 8 1 6 9
M  V30 9 2 7 10
M  V30 10 1 7 11
M  V30 11 1 8 12
M  V30 12 1 10 13
M  V30 13 2 11 14
M  V30 14 1 13 15
M  V30 15 2 13 16
M  V30 16 1 14 17
M  V30 17 1 15 18
M  V30 18 1 16 19
M  V30 19 1 16 20
M  V30 20 1 17 21
M  V30 21 1 20 22
M  V30 22 1 21 23
M  V30 23 2 23 24
M  V30 24 1 23 25
M  V30 25 1 24 26
M  V30 26 2 25 27
M  V30 27 1 26 28
M  V30 28 2 26 29
M  V30 29 1 9 12
M  V30 30 1 14 15
M  V30 31 2 18 19
M  V30 32 1 27 29
M  V30 END BOND
M  V30 BEGIN COLLECTION
M  V30 MDLV30/STEABS ATOMS=(1 4)
M  V30 END COLLECTION
M  V30 END CTAB
M  END
>  <Molecule Name>
Compound 830

>  <Molecule Name 2>
Compound 830

>  <Compound ID>
228

>  <Name>
Dinaciclib

>  <Uniprot>
P53350

>  <Target>
PLK1

>  <Smiles>
CCC1=C2N=C(N3CCCC[C@H]3CCO)C=C(NCC3=CC=C[N+]([O-])=C3)N2N=C1

>  <Kd (nM)>


>  <Assay (Kd)>


>  <Ki (nM)>


>  <Assay (Ki)>


>  <IC50 (nM)>


>  <Assay (IC50)>


>  <EC50 (nM)>


>  <Assay (EC50)>


>  <Article DOI>
10.1016/j.cell.2020.10.038

>  <Molecular Weight>
396.495

>  <Exact Mass>
396.2273741

>  <XLogP3>
1.91

>  <Heavy Atom Count>
29

>  <Ring Count>
4

>  <Hydrogen Bond Acceptor Count>
7

>  <Hydrogen Bond Donor Count>
2

>  <Rotatable Bond Count>
7

>  <Topological Polar Surface Area>
92.63

>  <Molecular Formula>
C21H28N6O2

>  <InChI>
InChI=1S/C21H28N6O2/c1-2-17-14-23-27-19(22-13-16-6-5-9-25(29)15-16)12-20(24-21(17)27)26-10-4-3-7-18(26)8-11-28/h5-6,9,12,14-15,18,22,28H,2-4,7-8,10-11,13H2,1H3/t18-/m0/s1

>  <InChI Key>
PIMQWRZWLQKKBJ-SFHVURJKSA-N

>  <BindingDB>
50139171

>  <PubChem>
46926350

>  <ChEMBL>
CHEMBL2103840

$$$$
228
Actelion Java MolfileCreator 2.0

  0  0  0  0  0  0              0 V3000
M  V30 BEGIN CTAB
M  V30 COUNTS 29 32 0 0 0
M  V30 BEGIN ATOM
M  V30 1 O 3.8971 0.0 0.0 0
M  V30 2 C 2.598 -0.75 0.0 0
M  V30 3 C 1.299 0.0 0.0 0
M  V30 4 C 0.0 -0.75 0.0 0 CFG=1
M  V30 5 N -1.299 0.0 0.0 0
M  V30 6 C 0.0 -2.25 0.0 0
M  V30 7 C -1.299 1.5 0.0 0
M  V30 8 C -2.598 -0.7499 0.0 0
M  V30 9 C -1.299 -2.9999 0.0 0
M  V30 10 N -2.598 2.25 0.0 0
M  V30 11 C 0.0 2.25 0.0 0
M  V30 12 C -2.598 -2.2499 0.0 0
M  V30 13 C -2.598 3.75 0.0 0
M  V30 14 C 0.0 3.75 0.0 0
M  V30 15 N -1.299 4.5 0.0 0
M  V30 16 C -3.7127 4.7536 0.0 0
M  V30 17 N 1.299 4.5 0.0 0
M  V30 18 N -1.6109 5.9672 0.0 0
M  V30 19 C -3.1026 6.124 0.0 0
M  V30 20 C -5.18 4.4418 0.0 0
M  V30 21 C 2.598 3.7499 0.0 0
M  V30 22 C -5.6435 3.0152 0.0 0
M  V30 23 C 3.8971 4.4999 0.0 0
M  V30 24 C 5.1961 3.7499 0.0 0
M  V30 25 C 3.8971 5.9999 0.0 0
M  V30 26 N 6.4951 4.4999 0.0 0 CHG=1
M  V30 27 C 5.1961 6.7499 0.0 0
M  V30 28 O 7.7942 3.7499 0.0 0 CHG=-1
M  V30 29 C 6.4951 5.9999 0.0 0
M  V30 END ATOM
M  V30 BEGIN BOND
M  V30 1 1 1 2
M  V30 2 1 2 3
M  V30 3 1 4 3 CFG=3
M  V30 4 1 4 5
M  V30 5 1 4 6
M  V30 6 1 5 7
M  V30 7 1 5 8
M  V30 8 1 6 9
M  V30 9 2 7 10
M  V30 10 1 7 11
M  V30 11 1 8 12
M  V30 12 1 10 13
M  V30 13 2 11 14
M  V30 14 1 13 15
M  V30 15 2 13 16
M  V30 16 1 14 17
M  V30 17 1 15 18
M  V30 18 1 16 19
M  V30 19 1 16 20
M  V30 20 1 17 21
M  V30 21 1 20 22
M  V30 22 1 21 23
M  V30 23 2 23 24
M  V30 24 1 23 25
M  V30 25 1 24 26
M  V30 26 2 25 27
M  V30 27 1 26 28
M  V30 28 2 26 29
M  V30 29 1 9 12
M  V30 30 1 14 15
M  V30 31 2 18 19
M  V30 32 1 27 29
M  V30 END BOND
M  V30 BEGIN COLLECTION
M  V30 MDLV30/STEABS ATOMS=(1 4)
M  V30 END COLLECTION
M  V30 END CTAB
M  END
>  <Molecule Name>
Compound 831

>  <Molecule Name 2>
Compound 831

>  <Compound ID>
228

>  <Name>
Dinaciclib

>  <Uniprot>
Q9BVS4

>  <Target>
RIOK2

>  <Smiles>
CCC1=C2N=C(N3CCCC[C@H]3CCO)C=C(NCC3=CC=C[N+]([O-])=C3)N2N=C1

>  <Kd (nM)>


>  <Assay (Kd)>


>  <Ki (nM)>


>  <Assay (Ki)>


>  <IC50 (nM)>


>  <Assay (IC50)>


>  <EC50 (nM)>


>  <Assay (EC50)>


>  <Article DOI>
10.1016/j.cell.2020.10.038

>  <Molecular Weight>
396.495

>  <Exact Mass>
396.2273741

>  <XLogP3>
1.91

>  <Heavy Atom Count>
29

>  <Ring Count>
4

>  <Hydrogen Bond Acceptor Count>
7

>  <Hydrogen Bond Donor Count>
2

>  <Rotatable Bond Count>
7

>  <Topological Polar Surface Area>
92.63

>  <Molecular Formula>
C21H28N6O2

>  <InChI>
InChI=1S/C21H28N6O2/c1-2-17-14-23-27-19(22-13-16-6-5-9-25(29)15-16)12-20(24-21(17)27)26-10-4-3-7-18(26)8-11-28/h5-6,9,12,14-15,18,22,28H,2-4,7-8,10-11,13H2,1H3/t18-/m0/s1

>  <InChI Key>
PIMQWRZWLQKKBJ-SFHVURJKSA-N

>  <BindingDB>
50139171

>  <PubChem>
46926350

>  <ChEMBL>
CHEMBL2103840

$$$$
228
Actelion Java MolfileCreator 2.0

  0  0  0  0  0  0              0 V3000
M  V30 BEGIN CTAB
M  V30 COUNTS 29 32 0 0 0
M  V30 BEGIN ATOM
M  V30 1 O 3.8971 0.0 0.0 0
M  V30 2 C 2.598 -0.75 0.0 0
M  V30 3 C 1.299 0.0 0.0 0
M  V30 4 C 0.0 -0.75 0.0 0 CFG=1
M  V30 5 N -1.299 0.0 0.0 0
M  V30 6 C 0.0 -2.25 0.0 0
M  V30 7 C -1.299 1.5 0.0 0
M  V30 8 C -2.598 -0.7499 0.0 0
M  V30 9 C -1.299 -2.9999 0.0 0
M  V30 10 N -2.598 2.25 0.0 0
M  V30 11 C 0.0 2.25 0.0 0
M  V30 12 C -2.598 -2.2499 0.0 0
M  V30 13 C -2.598 3.75 0.0 0
M  V30 14 C 0.0 3.75 0.0 0
M  V30 15 N -1.299 4.5 0.0 0
M  V30 16 C -3.7127 4.7536 0.0 0
M  V30 17 N 1.299 4.5 0.0 0
M  V30 18 N -1.6109 5.9672 0.0 0
M  V30 19 C -3.1026 6.124 0.0 0
M  V30 20 C -5.18 4.4418 0.0 0
M  V30 21 C 2.598 3.7499 0.0 0
M  V30 22 C -5.6435 3.0152 0.0 0
M  V30 23 C 3.8971 4.4999 0.0 0
M  V30 24 C 5.1961 3.7499 0.0 0
M  V30 25 C 3.8971 5.9999 0.0 0
M  V30 26 N 6.4951 4.4999 0.0 0 CHG=1
M  V30 27 C 5.1961 6.7499 0.0 0
M  V30 28 O 7.7942 3.7499 0.0 0 CHG=-1
M  V30 29 C 6.4951 5.9999 0.0 0
M  V30 END ATOM
M  V30 BEGIN BOND
M  V30 1 1 1 2
M  V30 2 1 2 3
M  V30 3 1 4 3 CFG=3
M  V30 4 1 4 5
M  V30 5 1 4 6
M  V30 6 1 5 7
M  V30 7 1 5 8
M  V30 8 1 6 9
M  V30 9 2 7 10
M  V30 10 1 7 11
M  V30 11 1 8 12
M  V30 12 1 10 13
M  V30 13 2 11 14
M  V30 14 1 13 15
M  V30 15 2 13 16
M  V30 16 1 14 17
M  V30 17 1 15 18
M  V30 18 1 16 19
M  V30 19 1 16 20
M  V30 20 1 17 21
M  V30 21 1 20 22
M  V30 22 1 21 23
M  V30 23 2 23 24
M  V30 24 1 23 25
M  V30 25 1 24 26
M  V30 26 2 25 27
M  V30 27 1 26 28
M  V30 28 2 26 29
M  V30 29 1 9 12
M  V30 30 1 14 15
M  V30 31 2 18 19
M  V30 32 1 27 29
M  V30 END BOND
M  V30 BEGIN COLLECTION
M  V30 MDLV30/STEABS ATOMS=(1 4)
M  V30 END COLLECTION
M  V30 END CTAB
M  END
>  <Molecule Name>
Compound 832

>  <Molecule Name 2>
Compound 832

>  <Compound ID>
228

>  <Name>
Dinaciclib

>  <Uniprot>
Q9UEE5

>  <Target>
STK17A

>  <Smiles>
CCC1=C2N=C(N3CCCC[C@H]3CCO)C=C(NCC3=CC=C[N+]([O-])=C3)N2N=C1

>  <Kd (nM)>


>  <Assay (Kd)>


>  <Ki (nM)>


>  <Assay (Ki)>


>  <IC50 (nM)>


>  <Assay (IC50)>


>  <EC50 (nM)>


>  <Assay (EC50)>


>  <Article DOI>
10.1016/j.cell.2020.10.038

>  <Molecular Weight>
396.495

>  <Exact Mass>
396.2273741

>  <XLogP3>
1.91

>  <Heavy Atom Count>
29

>  <Ring Count>
4

>  <Hydrogen Bond Acceptor Count>
7

>  <Hydrogen Bond Donor Count>
2

>  <Rotatable Bond Count>
7

>  <Topological Polar Surface Area>
92.63

>  <Molecular Formula>
C21H28N6O2

>  <InChI>
InChI=1S/C21H28N6O2/c1-2-17-14-23-27-19(22-13-16-6-5-9-25(29)15-16)12-20(24-21(17)27)26-10-4-3-7-18(26)8-11-28/h5-6,9,12,14-15,18,22,28H,2-4,7-8,10-11,13H2,1H3/t18-/m0/s1

>  <InChI Key>
PIMQWRZWLQKKBJ-SFHVURJKSA-N

>  <BindingDB>
50139171

>  <PubChem>
46926350

>  <ChEMBL>
CHEMBL2103840

$$$$
228
Actelion Java MolfileCreator 2.0

  0  0  0  0  0  0              0 V3000
M  V30 BEGIN CTAB
M  V30 COUNTS 29 32 0 0 0
M  V30 BEGIN ATOM
M  V30 1 O 3.8971 0.0 0.0 0
M  V30 2 C 2.598 -0.75 0.0 0
M  V30 3 C 1.299 0.0 0.0 0
M  V30 4 C 0.0 -0.75 0.0 0 CFG=1
M  V30 5 N -1.299 0.0 0.0 0
M  V30 6 C 0.0 -2.25 0.0 0
M  V30 7 C -1.299 1.5 0.0 0
M  V30 8 C -2.598 -0.7499 0.0 0
M  V30 9 C -1.299 -2.9999 0.0 0
M  V30 10 N -2.598 2.25 0.0 0
M  V30 11 C 0.0 2.25 0.0 0
M  V30 12 C -2.598 -2.2499 0.0 0
M  V30 13 C -2.598 3.75 0.0 0
M  V30 14 C 0.0 3.75 0.0 0
M  V30 15 N -1.299 4.5 0.0 0
M  V30 16 C -3.7127 4.7536 0.0 0
M  V30 17 N 1.299 4.5 0.0 0
M  V30 18 N -1.6109 5.9672 0.0 0
M  V30 19 C -3.1026 6.124 0.0 0
M  V30 20 C -5.18 4.4418 0.0 0
M  V30 21 C 2.598 3.7499 0.0 0
M  V30 22 C -5.6435 3.0152 0.0 0
M  V30 23 C 3.8971 4.4999 0.0 0
M  V30 24 C 5.1961 3.7499 0.0 0
M  V30 25 C 3.8971 5.9999 0.0 0
M  V30 26 N 6.4951 4.4999 0.0 0 CHG=1
M  V30 27 C 5.1961 6.7499 0.0 0
M  V30 28 O 7.7942 3.7499 0.0 0 CHG=-1
M  V30 29 C 6.4951 5.9999 0.0 0
M  V30 END ATOM
M  V30 BEGIN BOND
M  V30 1 1 1 2
M  V30 2 1 2 3
M  V30 3 1 4 3 CFG=3
M  V30 4 1 4 5
M  V30 5 1 4 6
M  V30 6 1 5 7
M  V30 7 1 5 8
M  V30 8 1 6 9
M  V30 9 2 7 10
M  V30 10 1 7 11
M  V30 11 1 8 12
M  V30 12 1 10 13
M  V30 13 2 11 14
M  V30 14 1 13 15
M  V30 15 2 13 16
M  V30 16 1 14 17
M  V30 17 1 15 18
M  V30 18 1 16 19
M  V30 19 1 16 20
M  V30 20 1 17 21
M  V30 21 1 20 22
M  V30 22 1 21 23
M  V30 23 2 23 24
M  V30 24 1 23 25
M  V30 25 1 24 26
M  V30 26 2 25 27
M  V30 27 1 26 28
M  V30 28 2 26 29
M  V30 29 1 9 12
M  V30 30 1 14 15
M  V30 31 2 18 19
M  V30 32 1 27 29
M  V30 END BOND
M  V30 BEGIN COLLECTION
M  V30 MDLV30/STEABS ATOMS=(1 4)
M  V30 END COLLECTION
M  V30 END CTAB
M  END
>  <Molecule Name>
Compound 833

>  <Molecule Name 2>
Compound 833

>  <Compound ID>
228

>  <Name>
Dinaciclib

>  <Uniprot>
P33981

>  <Target>
TTK

>  <Smiles>
CCC1=C2N=C(N3CCCC[C@H]3CCO)C=C(NCC3=CC=C[N+]([O-])=C3)N2N=C1

>  <Kd (nM)>


>  <Assay (Kd)>


>  <Ki (nM)>


>  <Assay (Ki)>


>  <IC50 (nM)>


>  <Assay (IC50)>


>  <EC50 (nM)>


>  <Assay (EC50)>


>  <Article DOI>
10.1016/j.cell.2020.10.038

>  <Molecular Weight>
396.495

>  <Exact Mass>
396.2273741

>  <XLogP3>
1.91

>  <Heavy Atom Count>
29

>  <Ring Count>
4

>  <Hydrogen Bond Acceptor Count>
7

>  <Hydrogen Bond Donor Count>
2

>  <Rotatable Bond Count>
7

>  <Topological Polar Surface Area>
92.63

>  <Molecular Formula>
C21H28N6O2

>  <InChI>
InChI=1S/C21H28N6O2/c1-2-17-14-23-27-19(22-13-16-6-5-9-25(29)15-16)12-20(24-21(17)27)26-10-4-3-7-18(26)8-11-28/h5-6,9,12,14-15,18,22,28H,2-4,7-8,10-11,13H2,1H3/t18-/m0/s1

>  <InChI Key>
PIMQWRZWLQKKBJ-SFHVURJKSA-N

>  <BindingDB>
50139171

>  <PubChem>
46926350

>  <ChEMBL>
CHEMBL2103840

$$$$
228
Actelion Java MolfileCreator 2.0

  0  0  0  0  0  0              0 V3000
M  V30 BEGIN CTAB
M  V30 COUNTS 29 32 0 0 0
M  V30 BEGIN ATOM
M  V30 1 O 3.8971 0.0 0.0 0
M  V30 2 C 2.598 -0.75 0.0 0
M  V30 3 C 1.299 0.0 0.0 0
M  V30 4 C 0.0 -0.75 0.0 0 CFG=1
M  V30 5 N -1.299 0.0 0.0 0
M  V30 6 C 0.0 -2.25 0.0 0
M  V30 7 C -1.299 1.5 0.0 0
M  V30 8 C -2.598 -0.7499 0.0 0
M  V30 9 C -1.299 -2.9999 0.0 0
M  V30 10 N -2.598 2.25 0.0 0
M  V30 11 C 0.0 2.25 0.0 0
M  V30 12 C -2.598 -2.2499 0.0 0
M  V30 13 C -2.598 3.75 0.0 0
M  V30 14 C 0.0 3.75 0.0 0
M  V30 15 N -1.299 4.5 0.0 0
M  V30 16 C -3.7127 4.7536 0.0 0
M  V30 17 N 1.299 4.5 0.0 0
M  V30 18 N -1.6109 5.9672 0.0 0
M  V30 19 C -3.1026 6.124 0.0 0
M  V30 20 C -5.18 4.4418 0.0 0
M  V30 21 C 2.598 3.7499 0.0 0
M  V30 22 C -5.6435 3.0152 0.0 0
M  V30 23 C 3.8971 4.4999 0.0 0
M  V30 24 C 5.1961 3.7499 0.0 0
M  V30 25 C 3.8971 5.9999 0.0 0
M  V30 26 N 6.4951 4.4999 0.0 0 CHG=1
M  V30 27 C 5.1961 6.7499 0.0 0
M  V30 28 O 7.7942 3.7499 0.0 0 CHG=-1
M  V30 29 C 6.4951 5.9999 0.0 0
M  V30 END ATOM
M  V30 BEGIN BOND
M  V30 1 1 1 2
M  V30 2 1 2 3
M  V30 3 1 4 3 CFG=3
M  V30 4 1 4 5
M  V30 5 1 4 6
M  V30 6 1 5 7
M  V30 7 1 5 8
M  V30 8 1 6 9
M  V30 9 2 7 10
M  V30 10 1 7 11
M  V30 11 1 8 12
M  V30 12 1 10 13
M  V30 13 2 11 14
M  V30 14 1 13 15
M  V30 15 2 13 16
M  V30 16 1 14 17
M  V30 17 1 15 18
M  V30 18 1 16 19
M  V30 19 1 16 20
M  V30 20 1 17 21
M  V30 21 1 20 22
M  V30 22 1 21 23
M  V30 23 2 23 24
M  V30 24 1 23 25
M  V30 25 1 24 26
M  V30 26 2 25 27
M  V30 27 1 26 28
M  V30 28 2 26 29
M  V30 29 1 9 12
M  V30 30 1 14 15
M  V30 31 2 18 19
M  V30 32 1 27 29
M  V30 END BOND
M  V30 BEGIN COLLECTION
M  V30 MDLV30/STEABS ATOMS=(1 4)
M  V30 END COLLECTION
M  V30 END CTAB
M  END
>  <Molecule Name>
Compound 834

>  <Molecule Name 2>
Compound 834

>  <Compound ID>
228

>  <Name>
Dinaciclib

>  <Uniprot>
Q8TAS1

>  <Target>
UHMK1

>  <Smiles>
CCC1=C2N=C(N3CCCC[C@H]3CCO)C=C(NCC3=CC=C[N+]([O-])=C3)N2N=C1

>  <Kd (nM)>


>  <Assay (Kd)>


>  <Ki (nM)>


>  <Assay (Ki)>


>  <IC50 (nM)>


>  <Assay (IC50)>


>  <EC50 (nM)>


>  <Assay (EC50)>


>  <Article DOI>
10.1016/j.cell.2020.10.038

>  <Molecular Weight>
396.495

>  <Exact Mass>
396.2273741

>  <XLogP3>
1.91

>  <Heavy Atom Count>
29

>  <Ring Count>
4

>  <Hydrogen Bond Acceptor Count>
7

>  <Hydrogen Bond Donor Count>
2

>  <Rotatable Bond Count>
7

>  <Topological Polar Surface Area>
92.63

>  <Molecular Formula>
C21H28N6O2

>  <InChI>
InChI=1S/C21H28N6O2/c1-2-17-14-23-27-19(22-13-16-6-5-9-25(29)15-16)12-20(24-21(17)27)26-10-4-3-7-18(26)8-11-28/h5-6,9,12,14-15,18,22,28H,2-4,7-8,10-11,13H2,1H3/t18-/m0/s1

>  <InChI Key>
PIMQWRZWLQKKBJ-SFHVURJKSA-N

>  <BindingDB>
50139171

>  <PubChem>
46926350

>  <ChEMBL>
CHEMBL2103840

$$$$
228
Actelion Java MolfileCreator 2.0

  0  0  0  0  0  0              0 V3000
M  V30 BEGIN CTAB
M  V30 COUNTS 29 32 0 0 0
M  V30 BEGIN ATOM
M  V30 1 O 3.8971 0.0 0.0 0
M  V30 2 C 2.598 -0.75 0.0 0
M  V30 3 C 1.299 0.0 0.0 0
M  V30 4 C 0.0 -0.75 0.0 0 CFG=1
M  V30 5 N -1.299 0.0 0.0 0
M  V30 6 C 0.0 -2.25 0.0 0
M  V30 7 C -1.299 1.5 0.0 0
M  V30 8 C -2.598 -0.7499 0.0 0
M  V30 9 C -1.299 -2.9999 0.0 0
M  V30 10 N -2.598 2.25 0.0 0
M  V30 11 C 0.0 2.25 0.0 0
M  V30 12 C -2.598 -2.2499 0.0 0
M  V30 13 C -2.598 3.75 0.0 0
M  V30 14 C 0.0 3.75 0.0 0
M  V30 15 N -1.299 4.5 0.0 0
M  V30 16 C -3.7127 4.7536 0.0 0
M  V30 17 N 1.299 4.5 0.0 0
M  V30 18 N -1.6109 5.9672 0.0 0
M  V30 19 C -3.1026 6.124 0.0 0
M  V30 20 C -5.18 4.4418 0.0 0
M  V30 21 C 2.598 3.7499 0.0 0
M  V30 22 C -5.6435 3.0152 0.0 0
M  V30 23 C 3.8971 4.4999 0.0 0
M  V30 24 C 5.1961 3.7499 0.0 0
M  V30 25 C 3.8971 5.9999 0.0 0
M  V30 26 N 6.4951 4.4999 0.0 0 CHG=1
M  V30 27 C 5.1961 6.7499 0.0 0
M  V30 28 O 7.7942 3.7499 0.0 0 CHG=-1
M  V30 29 C 6.4951 5.9999 0.0 0
M  V30 END ATOM
M  V30 BEGIN BOND
M  V30 1 1 1 2
M  V30 2 1 2 3
M  V30 3 1 4 3 CFG=3
M  V30 4 1 4 5
M  V30 5 1 4 6
M  V30 6 1 5 7
M  V30 7 1 5 8
M  V30 8 1 6 9
M  V30 9 2 7 10
M  V30 10 1 7 11
M  V30 11 1 8 12
M  V30 12 1 10 13
M  V30 13 2 11 14
M  V30 14 1 13 15
M  V30 15 2 13 16
M  V30 16 1 14 17
M  V30 17 1 15 18
M  V30 18 1 16 19
M  V30 19 1 16 20
M  V30 20 1 17 21
M  V30 21 1 20 22
M  V30 22 1 21 23
M  V30 23 2 23 24
M  V30 24 1 23 25
M  V30 25 1 24 26
M  V30 26 2 25 27
M  V30 27 1 26 28
M  V30 28 2 26 29
M  V30 29 1 9 12
M  V30 30 1 14 15
M  V30 31 2 18 19
M  V30 32 1 27 29
M  V30 END BOND
M  V30 BEGIN COLLECTION
M  V30 MDLV30/STEABS ATOMS=(1 4)
M  V30 END COLLECTION
M  V30 END CTAB
M  END
>  <Molecule Name>
Compound 835

>  <Molecule Name 2>
Compound 835

>  <Compound ID>
228

>  <Name>
Dinaciclib

>  <Uniprot>
P30291

>  <Target>
Wee1

>  <Smiles>
CCC1=C2N=C(N3CCCC[C@H]3CCO)C=C(NCC3=CC=C[N+]([O-])=C3)N2N=C1

>  <Kd (nM)>
>30000

>  <Assay (Kd)>
Kd apparent of Wee1

>  <Ki (nM)>


>  <Assay (Ki)>


>  <IC50 (nM)>


>  <Assay (IC50)>


>  <EC50 (nM)>


>  <Assay (EC50)>


>  <Article DOI>
10.1126/science.aan4368

>  <Molecular Weight>
396.495

>  <Exact Mass>
396.2273741

>  <XLogP3>
1.91

>  <Heavy Atom Count>
29

>  <Ring Count>
4

>  <Hydrogen Bond Acceptor Count>
7

>  <Hydrogen Bond Donor Count>
2

>  <Rotatable Bond Count>
7

>  <Topological Polar Surface Area>
92.63

>  <Molecular Formula>
C21H28N6O2

>  <InChI>
InChI=1S/C21H28N6O2/c1-2-17-14-23-27-19(22-13-16-6-5-9-25(29)15-16)12-20(24-21(17)27)26-10-4-3-7-18(26)8-11-28/h5-6,9,12,14-15,18,22,28H,2-4,7-8,10-11,13H2,1H3/t18-/m0/s1

>  <InChI Key>
PIMQWRZWLQKKBJ-SFHVURJKSA-N

>  <BindingDB>
50139171

>  <PubChem>
46926350

>  <ChEMBL>
CHEMBL2103840

$$$$
229
Actelion Java MolfileCreator 2.0

  0  0  0  0  0  0              0 V3000
M  V30 BEGIN CTAB
M  V30 COUNTS 24 26 0 0 0
M  V30 BEGIN ATOM
M  V30 1 N 6.0621 -1.0 0.0 0
M  V30 2 C 5.1961 -1.5 0.0 0
M  V30 3 C 4.3301 -1.9999 0.0 0
M  V30 4 C 3.4641 -1.4999 0.0 0
M  V30 5 C 3.4641 -0.5 0.0 0
M  V30 6 C 2.598 -1.9999 0.0 0
M  V30 7 C 2.598 0.0 0.0 0
M  V30 8 C 1.732 -1.5 0.0 0
M  V30 9 C 1.732 -0.5 0.0 0
M  V30 10 N 0.866 0.0 0.0 0
M  V30 11 C 0.0 -0.5 0.0 0
M  V30 12 N -0.866 0.0 0.0 0
M  V30 13 N 0.0 -1.4999 0.0 0
M  V30 14 C -1.732 -0.4999 0.0 0
M  V30 15 C -0.866 -2.0 0.0 0
M  V30 16 N -2.598 0.0 0.0 0
M  V30 17 C -1.732 -1.5 0.0 0
M  V30 18 C -2.598 0.9999 0.0 0
M  V30 19 N -3.407 1.5877 0.0 0
M  V30 20 C -1.789 1.5877 0.0 0
M  V30 21 N -3.098 2.5388 0.0 0
M  V30 22 C -2.098 2.5388 0.0 0
M  V30 23 C -0.838 1.2787 0.0 0
M  V30 24 C -0.0948 1.9478 0.0 0
M  V30 END ATOM
M  V30 BEGIN BOND
M  V30 1 3 1 2
M  V30 2 1 2 3
M  V30 3 1 3 4
M  V30 4 2 4 5
M  V30 5 1 4 6
M  V30 6 1 5 7
M  V30 7 2 6 8
M  V30 8 2 7 9
M  V30 9 1 9 10
M  V30 10 1 10 11
M  V30 11 2 11 12
M  V30 12 1 11 13
M  V30 13 1 12 14
M  V30 14 2 13 15
M  V30 15 1 14 16
M  V30 16 2 14 17
M  V30 17 1 16 18
M  V30 18 2 18 19
M  V30 19 1 18 20
M  V30 20 1 19 21
M  V30 21 2 20 22
M  V30 22 1 20 23
M  V30 23 1 23 24
M  V30 24 1 8 9
M  V30 25 1 15 17
M  V30 26 1 21 22
M  V30 END BOND
M  V30 END CTAB
M  END
>  <Molecule Name>
Compound 836

>  <Molecule Name 2>
Compound 836

>  <Compound ID>
229

>  <Name>


>  <Uniprot>
P49840

>  <Target>
GSK3A

>  <Smiles>
CCC1=C[NH]N=C1NC1=CC=NC(NC2=CC=C(CC#N)C=C2)=N1

>  <Kd (nM)>


>  <Assay (Kd)>


>  <Ki (nM)>


>  <Assay (Ki)>


>  <IC50 (nM)>


>  <Assay (IC50)>


>  <EC50 (nM)>


>  <Assay (EC50)>


>  <Article DOI>


>  <Molecular Weight>
319.372

>  <Exact Mass>
319.1545435

>  <XLogP3>
3.03

>  <Heavy Atom Count>
24

>  <Ring Count>
3

>  <Hydrogen Bond Acceptor Count>
6

>  <Hydrogen Bond Donor Count>
3

>  <Rotatable Bond Count>
6

>  <Topological Polar Surface Area>
102.31

>  <Molecular Formula>
C17H17N7

>  <InChI>
InChI=1S/C17H17N7/c1-2-13-11-20-24-16(13)22-15-8-10-19-17(23-15)21-14-5-3-12(4-6-14)7-9-18/h3-6,8,10-11H,2,7H2,1H3,(H3,19,20,21,22,23,24)

>  <InChI Key>
CMWGEYVEJGMLQH-UHFFFAOYSA-N

>  <BindingDB>


>  <PubChem>


>  <ChEMBL>


$$$$
229
Actelion Java MolfileCreator 2.0

  0  0  0  0  0  0              0 V3000
M  V30 BEGIN CTAB
M  V30 COUNTS 24 26 0 0 0
M  V30 BEGIN ATOM
M  V30 1 N 6.0621 -1.0 0.0 0
M  V30 2 C 5.1961 -1.5 0.0 0
M  V30 3 C 4.3301 -1.9999 0.0 0
M  V30 4 C 3.4641 -1.4999 0.0 0
M  V30 5 C 3.4641 -0.5 0.0 0
M  V30 6 C 2.598 -1.9999 0.0 0
M  V30 7 C 2.598 0.0 0.0 0
M  V30 8 C 1.732 -1.5 0.0 0
M  V30 9 C 1.732 -0.5 0.0 0
M  V30 10 N 0.866 0.0 0.0 0
M  V30 11 C 0.0 -0.5 0.0 0
M  V30 12 N -0.866 0.0 0.0 0
M  V30 13 N 0.0 -1.4999 0.0 0
M  V30 14 C -1.732 -0.4999 0.0 0
M  V30 15 C -0.866 -2.0 0.0 0
M  V30 16 N -2.598 0.0 0.0 0
M  V30 17 C -1.732 -1.5 0.0 0
M  V30 18 C -2.598 0.9999 0.0 0
M  V30 19 N -3.407 1.5877 0.0 0
M  V30 20 C -1.789 1.5877 0.0 0
M  V30 21 N -3.098 2.5388 0.0 0
M  V30 22 C -2.098 2.5388 0.0 0
M  V30 23 C -0.838 1.2787 0.0 0
M  V30 24 C -0.0948 1.9478 0.0 0
M  V30 END ATOM
M  V30 BEGIN BOND
M  V30 1 3 1 2
M  V30 2 1 2 3
M  V30 3 1 3 4
M  V30 4 2 4 5
M  V30 5 1 4 6
M  V30 6 1 5 7
M  V30 7 2 6 8
M  V30 8 2 7 9
M  V30 9 1 9 10
M  V30 10 1 10 11
M  V30 11 2 11 12
M  V30 12 1 11 13
M  V30 13 1 12 14
M  V30 14 2 13 15
M  V30 15 1 14 16
M  V30 16 2 14 17
M  V30 17 1 16 18
M  V30 18 2 18 19
M  V30 19 1 18 20
M  V30 20 1 19 21
M  V30 21 2 20 22
M  V30 22 1 20 23
M  V30 23 1 23 24
M  V30 24 1 8 9
M  V30 25 1 15 17
M  V30 26 1 21 22
M  V30 END BOND
M  V30 END CTAB
M  END
>  <Molecule Name>
Compound 837

>  <Molecule Name 2>
Compound 837

>  <Compound ID>
229

>  <Name>


>  <Uniprot>
P49841

>  <Target>
GSK-3beta

>  <Smiles>
CCC1=C[NH]N=C1NC1=CC=NC(NC2=CC=C(CC#N)C=C2)=N1

>  <Kd (nM)>


>  <Assay (Kd)>


>  <Ki (nM)>


>  <Assay (Ki)>


>  <IC50 (nM)>


>  <Assay (IC50)>


>  <EC50 (nM)>


>  <Assay (EC50)>


>  <Article DOI>


>  <Molecular Weight>
319.372

>  <Exact Mass>
319.1545435

>  <XLogP3>
3.03

>  <Heavy Atom Count>
24

>  <Ring Count>
3

>  <Hydrogen Bond Acceptor Count>
6

>  <Hydrogen Bond Donor Count>
3

>  <Rotatable Bond Count>
6

>  <Topological Polar Surface Area>
102.31

>  <Molecular Formula>
C17H17N7

>  <InChI>
InChI=1S/C17H17N7/c1-2-13-11-20-24-16(13)22-15-8-10-19-17(23-15)21-14-5-3-12(4-6-14)7-9-18/h3-6,8,10-11H,2,7H2,1H3,(H3,19,20,21,22,23,24)

>  <InChI Key>
CMWGEYVEJGMLQH-UHFFFAOYSA-N

>  <BindingDB>


>  <PubChem>


>  <ChEMBL>


$$$$
230
Actelion Java MolfileCreator 2.0

  0  0  0  0  0  0              0 V3000
M  V30 BEGIN CTAB
M  V30 COUNTS 39 40 0 0 0
M  V30 BEGIN ATOM
M  V30 1 O 9.0932 1.5 0.0 0
M  V30 2 C 9.0932 0.0 0.0 0
M  V30 3 N 7.7942 -0.75 0.0 0
M  V30 4 C 10.3923 -0.75 0.0 0
M  V30 5 C 6.4951 0.0 0.0 0 CFG=2
M  V30 6 C 7.7942 -2.25 0.0 0
M  V30 7 C 11.6913 0.0 0.0 0
M  V30 8 C 5.1961 -0.75 0.0 0
M  V30 9 C 6.4951 1.5 0.0 0
M  V30 10 C 12.9903 -0.75 0.0 0
M  V30 11 O 5.1961 -2.25 0.0 0
M  V30 12 N 3.8971 0.0 0.0 0
M  V30 13 N 14.2894 0.0 0.0 0
M  V30 14 C 2.598 -0.75 0.0 0
M  V30 15 C 15.5884 -0.75 0.0 0
M  V30 16 C 14.2894 1.5 0.0 0
M  V30 17 C 1.299 0.0 0.0 0
M  V30 18 C 0.0 -0.75 0.0 0
M  V30 19 C 0.0 -2.25 0.0 0
M  V30 20 C 0.0 -3.75 0.0 0
M  V30 21 C 0.0 -5.25 0.0 0
M  V30 22 C -1.299 -5.9999 0.0 0
M  V30 23 C 1.299 -6.0 0.0 0
M  V30 24 N -1.299 -7.4999 0.0 0
M  V30 25 N -2.598 -5.2499 0.0 0
M  V30 26 N 1.299 -7.5 0.0 0
M  V30 27 C 0.0 -8.25 0.0 0
M  V30 28 C -3.8971 -5.9999 0.0 0
M  V30 29 N 0.0 -9.75 0.0 0
M  V30 30 C -5.1961 -5.2499 0.0 0
M  V30 31 C 1.299 -10.5 0.0 0
M  V30 32 C -6.4951 -5.9999 0.0 0
M  V30 33 C 1.299 -12.0 0.0 0
M  V30 34 C 2.598 -9.75 0.0 0
M  V30 35 C 2.598 -12.75 0.0 0
M  V30 36 C 3.8971 -10.5 0.0 0
M  V30 37 C 3.8971 -12.0 0.0 0
M  V30 38 C 5.1961 -12.75 0.0 0
M  V30 39 N 6.4951 -13.5 0.0 0
M  V30 END ATOM
M  V30 BEGIN BOND
M  V30 1 2 1 2
M  V30 2 1 2 3
M  V30 3 1 2 4
M  V30 4 1 5 3 CFG=3
M  V30 5 1 3 6
M  V30 6 2 4 7
M  V30 7 1 5 8
M  V30 8 1 5 9
M  V30 9 1 7 10
M  V30 10 2 8 11
M  V30 11 1 8 12
M  V30 12 1 10 13
M  V30 13 1 12 14
M  V30 14 1 13 15
M  V30 15 1 13 16
M  V30 16 1 14 17
M  V30 17 1 17 18
M  V30 18 1 18 19
M  V30 19 3 19 20
M  V30 20 1 20 21
M  V30 21 2 21 22
M  V30 22 1 21 23
M  V30 23 1 22 24
M  V30 24 1 22 25
M  V30 25 2 23 26
M  V30 26 2 24 27
M  V30 27 1 25 28
M  V30 28 1 27 29
M  V30 29 1 28 30
M  V30 30 1 29 31
M  V30 31 1 30 32
M  V30 32 2 31 33
M  V30 33 1 31 34
M  V30 34 1 33 35
M  V30 35 2 34 36
M  V30 36 2 35 37
M  V30 37 1 37 38
M  V30 38 3 38 39
M  V30 39 1 26 27
M  V30 40 1 36 37
M  V30 END BOND
M  V30 BEGIN COLLECTION
M  V30 MDLV30/STEABS ATOMS=(1 5)
M  V30 END COLLECTION
M  V30 END CTAB
M  END
>  <Molecule Name>
Compound 838

>  <Molecule Name 2>
Compound 838

>  <Compound ID>
230

>  <Name>
FF-10101

>  <Uniprot>
P36888

>  <Target>
FLT3

>  <Smiles>
CCCNC1=NC(NC2=CC=C(C#N)C=C2)=NC=C1C#CCCCNC(=O)[C@H](C)N(C)C(=O)/C=C/CN(C)C

>  <Kd (nM)>


>  <Assay (Kd)>


>  <Ki (nM)>


>  <Assay (Ki)>


>  <IC50 (nM)>
0.2

>  <Assay (IC50)>
Inhibition of FLT-3

>  <EC50 (nM)>


>  <Assay (EC50)>


>  <Article DOI>
10.1182/blood-2017-05-786657

>  <Molecular Weight>
530.677

>  <Exact Mass>
530.3117725

>  <XLogP3>
3.56

>  <Heavy Atom Count>
39

>  <Ring Count>
2

>  <Hydrogen Bond Acceptor Count>
8

>  <Hydrogen Bond Donor Count>
3

>  <Rotatable Bond Count>
13

>  <Topological Polar Surface Area>
126.28

>  <Molecular Formula>
C29H38N8O2

>  <InChI>
InChI=1S/C29H38N8O2/c1-6-17-31-27-24(21-33-29(35-27)34-25-15-13-23(20-30)14-16-25)11-8-7-9-18-32-28(39)22(2)37(5)26(38)12-10-19-36(3)4/h10,12-16,21-22H,6-7,9,17-19H2,1-5H3,(H,32,39)(H2,31,33,34,35)/b12-10+/t22-/m0/s1

>  <InChI Key>
HJFSVYUFOXAVAA-YUAYGMJFSA-N

>  <BindingDB>
397428

>  <PubChem>
90052320

>  <ChEMBL>


$$$$
231
Actelion Java MolfileCreator 2.0

  0  0  0  0  0  0              0 V3000
M  V30 BEGIN CTAB
M  V30 COUNTS 42 46 0 0 0
M  V30 BEGIN ATOM
M  V30 1 O 2.598 -1.9999 0.0 0
M  V30 2 C 3.4641 -1.4999 0.0 0
M  V30 3 N 4.3301 -1.9999 0.0 0
M  V30 4 C 3.4641 -0.5 0.0 0
M  V30 5 C 5.1961 -1.4999 0.0 0
M  V30 6 C 4.3301 0.0 0.0 0
M  V30 7 C 2.598 0.0 0.0 0
M  V30 8 C 5.1961 -0.4999 0.0 0
M  V30 9 C 6.0621 -1.9999 0.0 0
M  V30 10 C 4.3301 1.0 0.0 0
M  V30 11 N 1.732 -0.5 0.0 0
M  V30 12 C 0.866 0.0 0.0 0
M  V30 13 O 0.866 1.0 0.0 0
M  V30 14 C 0.0 -0.5 0.0 0
M  V30 15 C -0.866 0.0 0.0 0
M  V30 16 C 0.0 -1.4999 0.0 0
M  V30 17 C -1.732 -0.4999 0.0 0
M  V30 18 C -0.866 1.0 0.0 0
M  V30 19 C -0.866 -1.9999 0.0 0
M  V30 20 N -2.598 0.0 0.0 0
M  V30 21 C -1.732 -1.4999 0.0 0
M  V30 22 C -0.866 -2.9999 0.0 0
M  V30 23 C -3.4641 -0.4999 0.0 0
M  V30 24 C -2.598 1.0 0.0 0
M  V30 25 C -1.732 -3.4999 0.0 0
M  V30 26 C 0.0 -3.4999 0.0 0
M  V30 27 C -4.3301 0.0 0.0 0
M  V30 28 C -3.4641 -1.4999 0.0 0
M  V30 29 C -3.4641 1.5 0.0 0
M  V30 30 C -1.732 -4.4999 0.0 0
M  V30 31 C 0.0 -4.4999 0.0 0
M  V30 32 C -5.1961 -0.4999 0.0 0
M  V30 33 C -4.3301 -1.9999 0.0 0
M  V30 34 C -0.866 -4.9999 0.0 0
M  V30 35 O -5.1961 -1.4999 0.0 0
M  V30 36 C -0.866 -5.9999 0.0 0
M  V30 37 N 0.0 -6.4999 0.0 0
M  V30 38 C 0.0 -7.4999 0.0 0
M  V30 39 C 0.866 -6.0 0.0 0
M  V30 40 C 0.866 -8.0 0.0 0
M  V30 41 C 1.732 -6.5 0.0 0
M  V30 42 O 1.732 -7.5 0.0 0
M  V30 END ATOM
M  V30 BEGIN BOND
M  V30 1 2 1 2
M  V30 2 1 2 3
M  V30 3 1 2 4
M  V30 4 1 3 5
M  V30 5 2 4 6
M  V30 6 1 4 7
M  V30 7 2 5 8
M  V30 8 1 5 9
M  V30 9 1 6 10
M  V30 10 1 7 11
M  V30 11 1 11 12
M  V30 12 2 12 13
M  V30 13 1 12 14
M  V30 14 2 14 15
M  V30 15 1 14 16
M  V30 16 1 15 17
M  V30 17 1 15 18
M  V30 18 2 16 19
M  V30 19 1 17 20
M  V30 20 2 17 21
M  V30 21 1 19 22
M  V30 22 1 20 23
M  V30 23 1 20 24
M  V30 24 2 22 25
M  V30 25 1 22 26
M  V30 26 1 23 27
M  V30 27 1 23 28
M  V30 28 1 24 29
M  V30 29 1 25 30
M  V30 30 2 26 31
M  V30 31 1 27 32
M  V30 32 1 28 33
M  V30 33 2 30 34
M  V30 34 1 32 35
M  V30 35 1 34 36
M  V30 36 1 36 37
M  V30 37 1 37 38
M  V30 38 1 37 39
M  V30 39 1 38 40
M  V30 40 1 39 41
M  V30 41 1 40 42
M  V30 42 1 6 8
M  V30 43 1 19 21
M  V30 44 1 31 34
M  V30 45 1 33 35
M  V30 46 1 41 42
M  V30 END BOND
M  V30 END CTAB
M  END
>  <Molecule Name>
Compound 839

>  <Molecule Name 2>
Compound 839

>  <Compound ID>
231

>  <Name>
EPZ6438

>  <Uniprot>
Q15910

>  <Target>
EZH2

>  <Smiles>
CCN(C1=CC(C2=CC=C(CN3CCOCC3)C=C2)=CC(C(=O)NCC2=C(C)C=C(C)[NH]C2=O)=C1C)C1CCOCC1

>  <Kd (nM)>


>  <Assay (Kd)>


>  <Ki (nM)>


>  <Assay (Ki)>


>  <IC50 (nM)>
3.7

>  <Assay (IC50)>
IC50 was assessed by an Alpha-Screen assay

>  <EC50 (nM)>


>  <Assay (EC50)>


>  <Article DOI>
10.1021/acs.jmedchem.0c02234

>  <Molecular Weight>
572.75

>  <Exact Mass>
572.3362559

>  <XLogP3>
4.18

>  <Heavy Atom Count>
42

>  <Ring Count>
5

>  <Hydrogen Bond Acceptor Count>
6

>  <Hydrogen Bond Donor Count>
2

>  <Rotatable Bond Count>
9

>  <Topological Polar Surface Area>
86.9

>  <Molecular Formula>
C34H44N4O4

>  <InChI>
InChI=1S/C34H44N4O4/c1-5-38(29-10-14-41-15-11-29)32-20-28(27-8-6-26(7-9-27)22-37-12-16-42-17-13-37)19-30(25(32)4)33(39)35-21-31-23(2)18-24(3)36-34(31)40/h6-9,18-20,29H,5,10-17,21-22H2,1-4H3,(H,35,39)(H,36,40)

>  <InChI Key>
NSQSAUGJQHDYNO-UHFFFAOYSA-N

>  <BindingDB>
172038

>  <PubChem>
66558664

>  <ChEMBL>
CHEMBL3414621

$$$$
232
Actelion Java MolfileCreator 2.0

  0  0  0  0  0  0              0 V3000
M  V30 BEGIN CTAB
M  V30 COUNTS 31 33 0 0 0
M  V30 BEGIN ATOM
M  V30 1 F 10.3923 3.75 0.0 0
M  V30 2 C 9.0932 4.5 0.0 0
M  V30 3 C 9.0932 6.0 0.0 0
M  V30 4 C 7.7942 3.75 0.0 0
M  V30 5 C 10.3923 6.75 0.0 0
M  V30 6 C 7.7942 6.75 0.0 0
M  V30 7 C 6.4951 4.5 0.0 0
M  V30 8 O 11.6913 6.0 0.0 0
M  V30 9 N 10.3923 8.25 0.0 0
M  V30 10 C 6.4951 6.0 0.0 0
M  V30 11 N 5.1961 3.75 0.0 0
M  V30 12 C 11.6913 9.0 0.0 0
M  V30 13 C 9.0932 9.0 0.0 0
M  V30 14 O 5.1961 6.75 0.0 0
M  V30 15 C 5.1961 2.25 0.0 0
M  V30 16 C 11.6913 10.4999 0.0 0
M  V30 17 C 9.0932 10.5 0.0 0
M  V30 18 C 3.8971 6.0 0.0 0
M  V30 19 N 3.8971 1.5 0.0 0
M  V30 20 N 6.4951 1.5 0.0 0
M  V30 21 O 10.3923 11.25 0.0 0
M  V30 22 C 3.8971 0.0 0.0 0
M  V30 23 C 6.4951 0.0 0.0 0
M  V30 24 N 2.598 -0.75 0.0 0
M  V30 25 C 5.1961 -0.7499 0.0 0
M  V30 26 C 1.299 0.0 0.0 0
M  V30 27 C 5.1961 -2.25 0.0 0
M  V30 28 C 0.0 -0.75 0.0 0
M  V30 29 F 6.6961 -2.25 0.0 0
M  V30 30 F 5.1961 -3.75 0.0 0
M  V30 31 F 3.6961 -2.25 0.0 0
M  V30 END ATOM
M  V30 BEGIN BOND
M  V30 1 1 1 2
M  V30 2 2 2 3
M  V30 3 1 2 4
M  V30 4 1 3 5
M  V30 5 1 3 6
M  V30 6 2 4 7
M  V30 7 2 5 8
M  V30 8 1 5 9
M  V30 9 2 6 10
M  V30 10 1 7 11
M  V30 11 1 9 12
M  V30 12 1 9 13
M  V30 13 1 10 14
M  V30 14 1 11 15
M  V30 15 1 12 16
M  V30 16 1 13 17
M  V30 17 1 14 18
M  V30 18 2 15 19
M  V30 19 1 15 20
M  V30 20 1 16 21
M  V30 21 1 19 22
M  V30 22 2 20 23
M  V30 23 1 22 24
M  V30 24 2 22 25
M  V30 25 1 24 26
M  V30 26 1 25 27
M  V30 27 1 26 28
M  V30 28 1 27 29
M  V30 29 1 27 30
M  V30 30 1 27 31
M  V30 31 1 7 10
M  V30 32 1 17 21
M  V30 33 1 23 25
M  V30 END BOND
M  V30 END CTAB
M  END
>  <Molecule Name>
Compound 840

>  <Molecule Name 2>
Compound 840

>  <Compound ID>
232

>  <Name>
GNE-7915

>  <Uniprot>
Q5S007

>  <Target>
LRRK2

>  <Smiles>
CCNC1=NC(NC2=CC(F)=C(C(=O)N3CCOCC3)C=C2OC)=NC=C1C(F)(F)F

>  <Kd (nM)>


>  <Assay (Kd)>


>  <Ki (nM)>
1

>  <Assay (Ki)>
Ki was assessed by microfluidic capillary electrophoresis assay

>  <IC50 (nM)>


>  <Assay (IC50)>


>  <EC50 (nM)>


>  <Assay (EC50)>


>  <Article DOI>
10.1021/jm301020q

>  <Molecular Weight>
443.401

>  <Exact Mass>
443.1580524

>  <XLogP3>
2.8

>  <Heavy Atom Count>
31

>  <Ring Count>
3

>  <Hydrogen Bond Acceptor Count>
7

>  <Hydrogen Bond Donor Count>
2

>  <Rotatable Bond Count>
6

>  <Topological Polar Surface Area>
88.61

>  <Molecular Formula>
C19H21F4N5O3

>  <InChI>
InChI=1S/C19H21F4N5O3/c1-3-24-16-12(19(21,22)23)10-25-18(27-16)26-14-9-13(20)11(8-15(14)30-2)17(29)28-4-6-31-7-5-28/h8-10H,3-7H2,1-2H3,(H2,24,25,26,27)

>  <InChI Key>
XCFLWTZSJYBCPF-UHFFFAOYSA-N

>  <BindingDB>
50398668

>  <PubChem>
58539171

>  <ChEMBL>
CHEMBL2178134

$$$$
233
Actelion Java MolfileCreator 2.0

  0  0  0  0  0  0              0 V3000
M  V30 BEGIN CTAB
M  V30 COUNTS 30 33 0 0 0
M  V30 BEGIN ATOM
M  V30 1 O 10.1807 2.0684 0.0 0
M  V30 2 C 9.6807 2.9344 0.0 0
M  V30 3 O 10.1807 3.8005 0.0 0
M  V30 4 C 8.6807 2.9344 0.0 0
M  V30 5 C 9.6807 4.6665 0.0 0
M  V30 6 C 8.1807 3.8005 0.0 0
M  V30 7 C 8.1807 2.0684 0.0 0
M  V30 8 C 7.1807 3.8005 0.0 0
M  V30 9 C 7.1807 2.0684 0.0 0
M  V30 10 C 6.6807 2.9344 0.0 0
M  V30 11 N 5.6807 2.9344 0.0 0
M  V30 12 C 5.1807 2.0684 0.0 0
M  V30 13 N 4.1807 2.0684 0.0 0
M  V30 14 N 5.6807 1.2024 0.0 0
M  V30 15 C 3.6807 1.2024 0.0 0
M  V30 16 C 5.1807 0.3364 0.0 0
M  V30 17 N 2.7026 0.9945 0.0 0
M  V30 18 C 4.1807 0.3364 0.0 0
M  V30 19 C 2.598 0.0 0.0 0
M  V30 20 C 1.9594 1.6636 0.0 0
M  V30 21 C 3.5116 -0.4067 0.0 0
M  V30 22 C 1.732 -0.5 0.0 0
M  V30 23 C 2.0639 2.6581 0.0 0
M  V30 24 C 0.9813 1.4557 0.0 0
M  V30 25 O 0.866 0.0 0.0 0
M  V30 26 N 1.732 -1.5 0.0 0
M  V30 27 C 1.1504 3.0649 0.0 0
M  V30 28 C 0.4813 2.3217 0.0 0
M  V30 29 C 2.598 -2.0 0.0 0
M  V30 30 C 0.866 -2.0 0.0 0
M  V30 END ATOM
M  V30 BEGIN BOND
M  V30 1 2 1 2
M  V30 2 1 2 3
M  V30 3 1 2 4
M  V30 4 1 3 5
M  V30 5 2 4 6
M  V30 6 1 4 7
M  V30 7 1 6 8
M  V30 8 2 7 9
M  V30 9 2 8 10
M  V30 10 1 10 11
M  V30 11 1 11 12
M  V30 12 2 12 13
M  V30 13 1 12 14
M  V30 14 1 13 15
M  V30 15 2 14 16
M  V30 16 1 15 17
M  V30 17 2 15 18
M  V30 18 1 17 19
M  V30 19 1 17 20
M  V30 20 1 18 21
M  V30 21 1 19 22
M  V30 22 1 20 23
M  V30 23 1 20 24
M  V30 24 2 22 25
M  V30 25 1 22 26
M  V30 26 1 23 27
M  V30 27 1 24 28
M  V30 28 1 26 29
M  V30 29 1 26 30
M  V30 30 1 9 10
M  V30 31 1 16 18
M  V30 32 2 19 21
M  V30 33 1 27 28
M  V30 END BOND
M  V30 END CTAB
M  END
>  <Molecule Name>
Compound 841

>  <Molecule Name 2>
Compound 841

>  <Compound ID>
233

>  <Name>


>  <Uniprot>
P24941

>  <Target>
CDK2

>  <Smiles>
COC(=O)C1=CC=C(NC2=NC=C3C=C(C(=O)N(C)C)N(C4CCCC4)C3=N2)C=C1

>  <Kd (nM)>


>  <Assay (Kd)>


>  <Ki (nM)>


>  <Assay (Ki)>


>  <IC50 (nM)>
390

>  <Assay (IC50)>
Inhibition of CDK2 Cyclin E

>  <EC50 (nM)>


>  <Assay (EC50)>


>  <Article DOI>
10.1016/j.ejmech.2020.112903

>  <Molecular Weight>
407.474

>  <Exact Mass>
407.1957397

>  <XLogP3>
3.31

>  <Heavy Atom Count>
30

>  <Ring Count>
4

>  <Hydrogen Bond Acceptor Count>
7

>  <Hydrogen Bond Donor Count>
1

>  <Rotatable Bond Count>
5

>  <Topological Polar Surface Area>
89.35

>  <Molecular Formula>
C22H25N5O3

>  <InChI>
InChI=1S/C22H25N5O3/c1-26(2)20(28)18-12-15-13-23-22(25-19(15)27(18)17-6-4-5-7-17)24-16-10-8-14(9-11-16)21(29)30-3/h8-13,17H,4-7H2,1-3H3,(H,23,24,25)

>  <InChI Key>
QKUPEYVJRBJWLO-UHFFFAOYSA-N

>  <BindingDB>


>  <PubChem>


>  <ChEMBL>


$$$$
233
Actelion Java MolfileCreator 2.0

  0  0  0  0  0  0              0 V3000
M  V30 BEGIN CTAB
M  V30 COUNTS 30 33 0 0 0
M  V30 BEGIN ATOM
M  V30 1 O 10.1807 2.0684 0.0 0
M  V30 2 C 9.6807 2.9344 0.0 0
M  V30 3 O 10.1807 3.8005 0.0 0
M  V30 4 C 8.6807 2.9344 0.0 0
M  V30 5 C 9.6807 4.6665 0.0 0
M  V30 6 C 8.1807 3.8005 0.0 0
M  V30 7 C 8.1807 2.0684 0.0 0
M  V30 8 C 7.1807 3.8005 0.0 0
M  V30 9 C 7.1807 2.0684 0.0 0
M  V30 10 C 6.6807 2.9344 0.0 0
M  V30 11 N 5.6807 2.9344 0.0 0
M  V30 12 C 5.1807 2.0684 0.0 0
M  V30 13 N 4.1807 2.0684 0.0 0
M  V30 14 N 5.6807 1.2024 0.0 0
M  V30 15 C 3.6807 1.2024 0.0 0
M  V30 16 C 5.1807 0.3364 0.0 0
M  V30 17 N 2.7026 0.9945 0.0 0
M  V30 18 C 4.1807 0.3364 0.0 0
M  V30 19 C 2.598 0.0 0.0 0
M  V30 20 C 1.9594 1.6636 0.0 0
M  V30 21 C 3.5116 -0.4067 0.0 0
M  V30 22 C 1.732 -0.5 0.0 0
M  V30 23 C 2.0639 2.6581 0.0 0
M  V30 24 C 0.9813 1.4557 0.0 0
M  V30 25 O 0.866 0.0 0.0 0
M  V30 26 N 1.732 -1.5 0.0 0
M  V30 27 C 1.1504 3.0649 0.0 0
M  V30 28 C 0.4813 2.3217 0.0 0
M  V30 29 C 2.598 -2.0 0.0 0
M  V30 30 C 0.866 -2.0 0.0 0
M  V30 END ATOM
M  V30 BEGIN BOND
M  V30 1 2 1 2
M  V30 2 1 2 3
M  V30 3 1 2 4
M  V30 4 1 3 5
M  V30 5 2 4 6
M  V30 6 1 4 7
M  V30 7 1 6 8
M  V30 8 2 7 9
M  V30 9 2 8 10
M  V30 10 1 10 11
M  V30 11 1 11 12
M  V30 12 2 12 13
M  V30 13 1 12 14
M  V30 14 1 13 15
M  V30 15 2 14 16
M  V30 16 1 15 17
M  V30 17 2 15 18
M  V30 18 1 17 19
M  V30 19 1 17 20
M  V30 20 1 18 21
M  V30 21 1 19 22
M  V30 22 1 20 23
M  V30 23 1 20 24
M  V30 24 2 22 25
M  V30 25 1 22 26
M  V30 26 1 23 27
M  V30 27 1 24 28
M  V30 28 1 26 29
M  V30 29 1 26 30
M  V30 30 1 9 10
M  V30 31 1 16 18
M  V30 32 2 19 21
M  V30 33 1 27 28
M  V30 END BOND
M  V30 END CTAB
M  END
>  <Molecule Name>
Compound 842

>  <Molecule Name 2>
Compound 842

>  <Compound ID>
233

>  <Name>


>  <Uniprot>
P11802

>  <Target>
CDK4

>  <Smiles>
COC(=O)C1=CC=C(NC2=NC=C3C=C(C(=O)N(C)C)N(C4CCCC4)C3=N2)C=C1

>  <Kd (nM)>


>  <Assay (Kd)>


>  <Ki (nM)>


>  <Assay (Ki)>


>  <IC50 (nM)>
112

>  <Assay (IC50)>
Inhibition of CDK4 Cyclin D

>  <EC50 (nM)>


>  <Assay (EC50)>


>  <Article DOI>
10.1016/j.ejmech.2020.112903

>  <Molecular Weight>
407.474

>  <Exact Mass>
407.1957397

>  <XLogP3>
3.31

>  <Heavy Atom Count>
30

>  <Ring Count>
4

>  <Hydrogen Bond Acceptor Count>
7

>  <Hydrogen Bond Donor Count>
1

>  <Rotatable Bond Count>
5

>  <Topological Polar Surface Area>
89.35

>  <Molecular Formula>
C22H25N5O3

>  <InChI>
InChI=1S/C22H25N5O3/c1-26(2)20(28)18-12-15-13-23-22(25-19(15)27(18)17-6-4-5-7-17)24-16-10-8-14(9-11-16)21(29)30-3/h8-13,17H,4-7H2,1-3H3,(H,23,24,25)

>  <InChI Key>
QKUPEYVJRBJWLO-UHFFFAOYSA-N

>  <BindingDB>


>  <PubChem>


>  <ChEMBL>


$$$$
233
Actelion Java MolfileCreator 2.0

  0  0  0  0  0  0              0 V3000
M  V30 BEGIN CTAB
M  V30 COUNTS 30 33 0 0 0
M  V30 BEGIN ATOM
M  V30 1 O 10.1807 2.0684 0.0 0
M  V30 2 C 9.6807 2.9344 0.0 0
M  V30 3 O 10.1807 3.8005 0.0 0
M  V30 4 C 8.6807 2.9344 0.0 0
M  V30 5 C 9.6807 4.6665 0.0 0
M  V30 6 C 8.1807 3.8005 0.0 0
M  V30 7 C 8.1807 2.0684 0.0 0
M  V30 8 C 7.1807 3.8005 0.0 0
M  V30 9 C 7.1807 2.0684 0.0 0
M  V30 10 C 6.6807 2.9344 0.0 0
M  V30 11 N 5.6807 2.9344 0.0 0
M  V30 12 C 5.1807 2.0684 0.0 0
M  V30 13 N 4.1807 2.0684 0.0 0
M  V30 14 N 5.6807 1.2024 0.0 0
M  V30 15 C 3.6807 1.2024 0.0 0
M  V30 16 C 5.1807 0.3364 0.0 0
M  V30 17 N 2.7026 0.9945 0.0 0
M  V30 18 C 4.1807 0.3364 0.0 0
M  V30 19 C 2.598 0.0 0.0 0
M  V30 20 C 1.9594 1.6636 0.0 0
M  V30 21 C 3.5116 -0.4067 0.0 0
M  V30 22 C 1.732 -0.5 0.0 0
M  V30 23 C 2.0639 2.6581 0.0 0
M  V30 24 C 0.9813 1.4557 0.0 0
M  V30 25 O 0.866 0.0 0.0 0
M  V30 26 N 1.732 -1.5 0.0 0
M  V30 27 C 1.1504 3.0649 0.0 0
M  V30 28 C 0.4813 2.3217 0.0 0
M  V30 29 C 2.598 -2.0 0.0 0
M  V30 30 C 0.866 -2.0 0.0 0
M  V30 END ATOM
M  V30 BEGIN BOND
M  V30 1 2 1 2
M  V30 2 1 2 3
M  V30 3 1 2 4
M  V30 4 1 3 5
M  V30 5 2 4 6
M  V30 6 1 4 7
M  V30 7 1 6 8
M  V30 8 2 7 9
M  V30 9 2 8 10
M  V30 10 1 10 11
M  V30 11 1 11 12
M  V30 12 2 12 13
M  V30 13 1 12 14
M  V30 14 1 13 15
M  V30 15 2 14 16
M  V30 16 1 15 17
M  V30 17 2 15 18
M  V30 18 1 17 19
M  V30 19 1 17 20
M  V30 20 1 18 21
M  V30 21 1 19 22
M  V30 22 1 20 23
M  V30 23 1 20 24
M  V30 24 2 22 25
M  V30 25 1 22 26
M  V30 26 1 23 27
M  V30 27 1 24 28
M  V30 28 1 26 29
M  V30 29 1 26 30
M  V30 30 1 9 10
M  V30 31 1 16 18
M  V30 32 2 19 21
M  V30 33 1 27 28
M  V30 END BOND
M  V30 END CTAB
M  END
>  <Molecule Name>
Compound 843

>  <Molecule Name 2>
Compound 843

>  <Compound ID>
233

>  <Name>


>  <Uniprot>
Q00534

>  <Target>
CDK6

>  <Smiles>
COC(=O)C1=CC=C(NC2=NC=C3C=C(C(=O)N(C)C)N(C4CCCC4)C3=N2)C=C1

>  <Kd (nM)>


>  <Assay (Kd)>


>  <Ki (nM)>


>  <Assay (Ki)>


>  <IC50 (nM)>
101

>  <Assay (IC50)>
Inhibition of CDK6 Cyclin D

>  <EC50 (nM)>


>  <Assay (EC50)>


>  <Article DOI>
10.1016/j.ejmech.2020.112903

>  <Molecular Weight>
407.474

>  <Exact Mass>
407.1957397

>  <XLogP3>
3.31

>  <Heavy Atom Count>
30

>  <Ring Count>
4

>  <Hydrogen Bond Acceptor Count>
7

>  <Hydrogen Bond Donor Count>
1

>  <Rotatable Bond Count>
5

>  <Topological Polar Surface Area>
89.35

>  <Molecular Formula>
C22H25N5O3

>  <InChI>
InChI=1S/C22H25N5O3/c1-26(2)20(28)18-12-15-13-23-22(25-19(15)27(18)17-6-4-5-7-17)24-16-10-8-14(9-11-16)21(29)30-3/h8-13,17H,4-7H2,1-3H3,(H,23,24,25)

>  <InChI Key>
QKUPEYVJRBJWLO-UHFFFAOYSA-N

>  <BindingDB>


>  <PubChem>


>  <ChEMBL>


$$$$
234
Actelion Java MolfileCreator 2.0

  0  0  0  0  0  0              0 V3000
M  V30 BEGIN CTAB
M  V30 COUNTS 27 29 0 0 0
M  V30 BEGIN ATOM
M  V30 1 Cl 5.8195 2.1159 0.0 0
M  V30 2 C 5.4128 1.2024 0.0 0
M  V30 3 S 4.4346 0.9945 0.0 0
M  V30 4 C 5.9128 0.3364 0.0 0
M  V30 5 C 4.3301 0.0 0.0 0
M  V30 6 C 6.9073 0.2318 0.0 0
M  V30 7 C 5.2436 -0.4067 0.0 0
M  V30 8 C 3.4641 -0.5 0.0 0
M  V30 9 N 7.4073 -0.6341 0.0 0
M  V30 10 C 7.5764 0.975 0.0 0
M  V30 11 O 3.4641 -1.5 0.0 0
M  V30 12 N 2.598 0.0 0.0 0
M  V30 13 N 8.3854 -0.4262 0.0 0
M  V30 14 C 7.0005 -1.5476 0.0 0
M  V30 15 Cl 7.3685 1.9531 0.0 0
M  V30 16 C 8.49 0.5682 0.0 0
M  V30 17 C 1.732 -0.5 0.0 0 CFG=2
M  V30 18 C 1.732 -1.5 0.0 0
M  V30 19 C 0.866 0.0 0.0 0
M  V30 20 N 2.598 -1.9999 0.0 0
M  V30 21 C 0.0 -0.5 0.0 0
M  V30 22 C -0.866 0.0 0.0 0
M  V30 23 C 0.0 -1.4999 0.0 0
M  V30 24 C -1.732 -0.4999 0.0 0
M  V30 25 C -0.866 -1.9999 0.0 0
M  V30 26 F -2.598 0.0 0.0 0
M  V30 27 C -1.732 -1.4999 0.0 0
M  V30 END ATOM
M  V30 BEGIN BOND
M  V30 1 1 1 2
M  V30 2 1 2 3
M  V30 3 2 2 4
M  V30 4 1 3 5
M  V30 5 1 4 6
M  V30 6 1 4 7
M  V30 7 1 5 8
M  V30 8 1 6 9
M  V30 9 2 6 10
M  V30 10 2 8 11
M  V30 11 1 8 12
M  V30 12 1 9 13
M  V30 13 1 9 14
M  V30 14 1 10 15
M  V30 15 1 10 16
M  V30 16 1 17 12 CFG=3
M  V30 17 1 17 18
M  V30 18 1 17 19
M  V30 19 1 18 20
M  V30 20 1 19 21
M  V30 21 2 21 22
M  V30 22 1 21 23
M  V30 23 1 22 24
M  V30 24 2 23 25
M  V30 25 1 24 26
M  V30 26 2 24 27
M  V30 27 2 5 7
M  V30 28 2 13 16
M  V30 29 1 25 27
M  V30 END BOND
M  V30 BEGIN COLLECTION
M  V30 MDLV30/STEABS ATOMS=(1 17)
M  V30 END COLLECTION
M  V30 END CTAB
M  END
>  <Molecule Name>
Compound 844

>  <Molecule Name 2>
Compound 844

>  <Compound ID>
234

>  <Name>
Afuresertib

>  <Uniprot>
P31749

>  <Target>
AKT1

>  <Smiles>
CN1N=CC(Cl)=C1C1=C(Cl)SC(C(=O)N[C@H](CN)CC2=CC=CC(F)=C2)=C1

>  <Kd (nM)>


>  <Assay (Kd)>


>  <Ki (nM)>
0.08

>  <Assay (Ki)>
Ki of AKT1

>  <IC50 (nM)>


>  <Assay (IC50)>


>  <EC50 (nM)>


>  <Assay (EC50)>


>  <Article DOI>
10.1016/j.ejmech.2019.07.017

>  <Molecular Weight>
427.332

>  <Exact Mass>
426.0484157

>  <XLogP3>
3.96

>  <Heavy Atom Count>
27

>  <Ring Count>
3

>  <Hydrogen Bond Acceptor Count>
5

>  <Hydrogen Bond Donor Count>
2

>  <Rotatable Bond Count>
6

>  <Topological Polar Surface Area>
72.94

>  <Molecular Formula>
C18H17Cl2FN4OS

>  <InChI>
InChI=1S/C18H17Cl2FN4OS/c1-25-16(14(19)9-23-25)13-7-15(27-17(13)20)18(26)24-12(8-22)6-10-3-2-4-11(21)5-10/h2-5,7,9,12H,6,8,22H2,1H3,(H,24,26)/t12-/m0/s1

>  <InChI Key>
AFJRDFWMXUECEW-LBPRGKRZSA-N

>  <BindingDB>
50502477

>  <PubChem>
46843057

>  <ChEMBL>
CHEMBL2219422

$$$$
234
Actelion Java MolfileCreator 2.0

  0  0  0  0  0  0              0 V3000
M  V30 BEGIN CTAB
M  V30 COUNTS 27 29 0 0 0
M  V30 BEGIN ATOM
M  V30 1 Cl 5.8195 2.1159 0.0 0
M  V30 2 C 5.4128 1.2024 0.0 0
M  V30 3 S 4.4346 0.9945 0.0 0
M  V30 4 C 5.9128 0.3364 0.0 0
M  V30 5 C 4.3301 0.0 0.0 0
M  V30 6 C 6.9073 0.2318 0.0 0
M  V30 7 C 5.2436 -0.4067 0.0 0
M  V30 8 C 3.4641 -0.5 0.0 0
M  V30 9 N 7.4073 -0.6341 0.0 0
M  V30 10 C 7.5764 0.975 0.0 0
M  V30 11 O 3.4641 -1.5 0.0 0
M  V30 12 N 2.598 0.0 0.0 0
M  V30 13 N 8.3854 -0.4262 0.0 0
M  V30 14 C 7.0005 -1.5476 0.0 0
M  V30 15 Cl 7.3685 1.9531 0.0 0
M  V30 16 C 8.49 0.5682 0.0 0
M  V30 17 C 1.732 -0.5 0.0 0 CFG=2
M  V30 18 C 1.732 -1.5 0.0 0
M  V30 19 C 0.866 0.0 0.0 0
M  V30 20 N 2.598 -1.9999 0.0 0
M  V30 21 C 0.0 -0.5 0.0 0
M  V30 22 C -0.866 0.0 0.0 0
M  V30 23 C 0.0 -1.4999 0.0 0
M  V30 24 C -1.732 -0.4999 0.0 0
M  V30 25 C -0.866 -1.9999 0.0 0
M  V30 26 F -2.598 0.0 0.0 0
M  V30 27 C -1.732 -1.4999 0.0 0
M  V30 END ATOM
M  V30 BEGIN BOND
M  V30 1 1 1 2
M  V30 2 1 2 3
M  V30 3 2 2 4
M  V30 4 1 3 5
M  V30 5 1 4 6
M  V30 6 1 4 7
M  V30 7 1 5 8
M  V30 8 1 6 9
M  V30 9 2 6 10
M  V30 10 2 8 11
M  V30 11 1 8 12
M  V30 12 1 9 13
M  V30 13 1 9 14
M  V30 14 1 10 15
M  V30 15 1 10 16
M  V30 16 1 17 12 CFG=3
M  V30 17 1 17 18
M  V30 18 1 17 19
M  V30 19 1 18 20
M  V30 20 1 19 21
M  V30 21 2 21 22
M  V30 22 1 21 23
M  V30 23 1 22 24
M  V30 24 2 23 25
M  V30 25 1 24 26
M  V30 26 2 24 27
M  V30 27 2 5 7
M  V30 28 2 13 16
M  V30 29 1 25 27
M  V30 END BOND
M  V30 BEGIN COLLECTION
M  V30 MDLV30/STEABS ATOMS=(1 17)
M  V30 END COLLECTION
M  V30 END CTAB
M  END
>  <Molecule Name>
Compound 845

>  <Molecule Name 2>
Compound 845

>  <Compound ID>
234

>  <Name>
Afuresertib

>  <Uniprot>
P31751

>  <Target>
AKT2

>  <Smiles>
CN1N=CC(Cl)=C1C1=C(Cl)SC(C(=O)N[C@H](CN)CC2=CC=CC(F)=C2)=C1

>  <Kd (nM)>
2800

>  <Assay (Kd)>
Kd apparent of AKT2

>  <Ki (nM)>


>  <Assay (Ki)>


>  <IC50 (nM)>


>  <Assay (IC50)>


>  <EC50 (nM)>


>  <Assay (EC50)>


>  <Article DOI>
10.1126/science.aan4368

>  <Molecular Weight>
427.332

>  <Exact Mass>
426.0484157

>  <XLogP3>
3.96

>  <Heavy Atom Count>
27

>  <Ring Count>
3

>  <Hydrogen Bond Acceptor Count>
5

>  <Hydrogen Bond Donor Count>
2

>  <Rotatable Bond Count>
6

>  <Topological Polar Surface Area>
72.94

>  <Molecular Formula>
C18H17Cl2FN4OS

>  <InChI>
InChI=1S/C18H17Cl2FN4OS/c1-25-16(14(19)9-23-25)13-7-15(27-17(13)20)18(26)24-12(8-22)6-10-3-2-4-11(21)5-10/h2-5,7,9,12H,6,8,22H2,1H3,(H,24,26)/t12-/m0/s1

>  <InChI Key>
AFJRDFWMXUECEW-LBPRGKRZSA-N

>  <BindingDB>
50502477

>  <PubChem>
46843057

>  <ChEMBL>
CHEMBL2219422

$$$$
234
Actelion Java MolfileCreator 2.0

  0  0  0  0  0  0              0 V3000
M  V30 BEGIN CTAB
M  V30 COUNTS 27 29 0 0 0
M  V30 BEGIN ATOM
M  V30 1 Cl 5.8195 2.1159 0.0 0
M  V30 2 C 5.4128 1.2024 0.0 0
M  V30 3 S 4.4346 0.9945 0.0 0
M  V30 4 C 5.9128 0.3364 0.0 0
M  V30 5 C 4.3301 0.0 0.0 0
M  V30 6 C 6.9073 0.2318 0.0 0
M  V30 7 C 5.2436 -0.4067 0.0 0
M  V30 8 C 3.4641 -0.5 0.0 0
M  V30 9 N 7.4073 -0.6341 0.0 0
M  V30 10 C 7.5764 0.975 0.0 0
M  V30 11 O 3.4641 -1.5 0.0 0
M  V30 12 N 2.598 0.0 0.0 0
M  V30 13 N 8.3854 -0.4262 0.0 0
M  V30 14 C 7.0005 -1.5476 0.0 0
M  V30 15 Cl 7.3685 1.9531 0.0 0
M  V30 16 C 8.49 0.5682 0.0 0
M  V30 17 C 1.732 -0.5 0.0 0 CFG=2
M  V30 18 C 1.732 -1.5 0.0 0
M  V30 19 C 0.866 0.0 0.0 0
M  V30 20 N 2.598 -1.9999 0.0 0
M  V30 21 C 0.0 -0.5 0.0 0
M  V30 22 C -0.866 0.0 0.0 0
M  V30 23 C 0.0 -1.4999 0.0 0
M  V30 24 C -1.732 -0.4999 0.0 0
M  V30 25 C -0.866 -1.9999 0.0 0
M  V30 26 F -2.598 0.0 0.0 0
M  V30 27 C -1.732 -1.4999 0.0 0
M  V30 END ATOM
M  V30 BEGIN BOND
M  V30 1 1 1 2
M  V30 2 1 2 3
M  V30 3 2 2 4
M  V30 4 1 3 5
M  V30 5 1 4 6
M  V30 6 1 4 7
M  V30 7 1 5 8
M  V30 8 1 6 9
M  V30 9 2 6 10
M  V30 10 2 8 11
M  V30 11 1 8 12
M  V30 12 1 9 13
M  V30 13 1 9 14
M  V30 14 1 10 15
M  V30 15 1 10 16
M  V30 16 1 17 12 CFG=3
M  V30 17 1 17 18
M  V30 18 1 17 19
M  V30 19 1 18 20
M  V30 20 1 19 21
M  V30 21 2 21 22
M  V30 22 1 21 23
M  V30 23 1 22 24
M  V30 24 2 23 25
M  V30 25 1 24 26
M  V30 26 2 24 27
M  V30 27 2 5 7
M  V30 28 2 13 16
M  V30 29 1 25 27
M  V30 END BOND
M  V30 BEGIN COLLECTION
M  V30 MDLV30/STEABS ATOMS=(1 17)
M  V30 END COLLECTION
M  V30 END CTAB
M  END
>  <Molecule Name>
Compound 846

>  <Molecule Name 2>
Compound 846

>  <Compound ID>
234

>  <Name>
Afuresertib

>  <Uniprot>
Q9Y243

>  <Target>
AKT3

>  <Smiles>
CN1N=CC(Cl)=C1C1=C(Cl)SC(C(=O)N[C@H](CN)CC2=CC=CC(F)=C2)=C1

>  <Kd (nM)>
7

>  <Assay (Kd)>
Kd apparent of AKT3

>  <Ki (nM)>


>  <Assay (Ki)>


>  <IC50 (nM)>


>  <Assay (IC50)>


>  <EC50 (nM)>


>  <Assay (EC50)>


>  <Article DOI>
10.1126/science.aan4368

>  <Molecular Weight>
427.332

>  <Exact Mass>
426.0484157

>  <XLogP3>
3.96

>  <Heavy Atom Count>
27

>  <Ring Count>
3

>  <Hydrogen Bond Acceptor Count>
5

>  <Hydrogen Bond Donor Count>
2

>  <Rotatable Bond Count>
6

>  <Topological Polar Surface Area>
72.94

>  <Molecular Formula>
C18H17Cl2FN4OS

>  <InChI>
InChI=1S/C18H17Cl2FN4OS/c1-25-16(14(19)9-23-25)13-7-15(27-17(13)20)18(26)24-12(8-22)6-10-3-2-4-11(21)5-10/h2-5,7,9,12H,6,8,22H2,1H3,(H,24,26)/t12-/m0/s1

>  <InChI Key>
AFJRDFWMXUECEW-LBPRGKRZSA-N

>  <BindingDB>
50502477

>  <PubChem>
46843057

>  <ChEMBL>
CHEMBL2219422

$$$$
235
Actelion Java MolfileCreator 2.0

  0  0  0  0  0  0              0 V3000
M  V30 BEGIN CTAB
M  V30 COUNTS 36 40 0 0 0
M  V30 BEGIN ATOM
M  V30 1 F 7.7982 -0.7503 0.0 0
M  V30 2 C 6.4985 0.0 0.0 0
M  V30 3 C 6.4985 1.5007 0.0 0
M  V30 4 C 5.1988 -0.7503 0.0 0
M  V30 5 O 7.7982 2.2511 0.0 0
M  V30 6 C 5.1988 2.2511 0.0 0
M  V30 7 C 3.8991 0.0 0.0 0
M  V30 8 C 7.7982 3.7519 0.0 0
M  V30 9 C 3.8991 1.5007 0.0 0
M  V30 10 N 2.5994 -0.7503 0.0 0
M  V30 11 C 9.0979 4.5023 0.0 0
M  V30 12 C 6.4985 4.5023 0.0 0
M  V30 13 F 2.5994 2.2511 0.0 0
M  V30 14 C 1.2997 0.0 0.0 0
M  V30 15 C 9.0979 6.0031 0.0 0
M  V30 16 C 6.4985 6.0031 0.0 0
M  V30 17 O 1.3328 1.487 0.0 0
M  V30 18 C 0.0 -0.7503 0.0 0
M  V30 19 N 7.7982 6.7534 0.0 0
M  V30 20 C 10.3976 6.7534 0.0 0
M  V30 21 C -0.3884 0.6992 0.0 0
M  V30 22 C -0.7503 -2.05 0.0 0
M  V30 23 C -1.5007 -0.7503 0.0 0
M  V30 24 C 11.7687 6.143 0.0 0
M  V30 25 C 10.5545 8.246 0.0 0
M  V30 26 O -1.838 1.0876 0.0 0
M  V30 27 N 0.6561 1.7673 0.0 0
M  V30 28 N 12.7729 7.2583 0.0 0
M  V30 29 N 12.0225 8.558 0.0 0
M  V30 30 C 0.2843 3.21 0.0 0
M  V30 31 C 12.6329 9.929 0.0 0
M  V30 32 C 1.3455 4.2713 0.0 0
M  V30 33 C -1.1652 3.5985 0.0 0
M  V30 34 C 0.9571 5.7209 0.0 0
M  V30 35 C -1.5537 5.0481 0.0 0
M  V30 36 C -0.4925 6.1093 0.0 0
M  V30 END ATOM
M  V30 BEGIN BOND
M  V30 1 1 1 2
M  V30 2 2 2 3
M  V30 3 1 2 4
M  V30 4 1 3 5
M  V30 5 1 3 6
M  V30 6 2 4 7
M  V30 7 1 5 8
M  V30 8 2 6 9
M  V30 9 1 7 10
M  V30 10 2 8 11
M  V30 11 1 8 12
M  V30 12 1 9 13
M  V30 13 1 10 14
M  V30 14 1 11 15
M  V30 15 2 12 16
M  V30 16 2 14 17
M  V30 17 1 14 18
M  V30 18 2 15 19
M  V30 19 1 15 20
M  V30 20 1 18 21
M  V30 21 1 18 22
M  V30 22 1 18 23
M  V30 23 1 20 24
M  V30 24 2 20 25
M  V30 25 2 21 26
M  V30 26 1 21 27
M  V30 27 2 24 28
M  V30 28 1 25 29
M  V30 29 1 27 30
M  V30 30 1 29 31
M  V30 31 2 30 32
M  V30 32 1 30 33
M  V30 33 1 32 34
M  V30 34 2 33 35
M  V30 35 2 34 36
M  V30 36 1 7 9
M  V30 37 1 16 19
M  V30 38 1 22 23
M  V30 39 1 28 29
M  V30 40 1 35 36
M  V30 END BOND
M  V30 END CTAB
M  END
>  <Molecule Name>
Compound 847

>  <Molecule Name 2>
Compound 847

>  <Compound ID>
235

>  <Name>
c-Kit-IN-1

>  <Uniprot>
P10721

>  <Target>
c-KIT

>  <Smiles>
CN1C=C(C2=CC(OC3=CC(F)=C(NC(=O)C4(C(=O)NC5=CC=CC=C5)CC4)C=C3F)=CC=N2)C=N1

>  <Kd (nM)>


>  <Assay (Kd)>


>  <Ki (nM)>


>  <Assay (Ki)>


>  <IC50 (nM)>


>  <Assay (IC50)>


>  <EC50 (nM)>


>  <Assay (EC50)>


>  <Article DOI>
10.1016/j.cell.2020.10.038

>  <Molecular Weight>
489.482

>  <Exact Mass>
489.161246

>  <XLogP3>
4.18

>  <Heavy Atom Count>
36

>  <Ring Count>
5

>  <Hydrogen Bond Acceptor Count>
6

>  <Hydrogen Bond Donor Count>
2

>  <Rotatable Bond Count>
7

>  <Topological Polar Surface Area>
98.14

>  <Molecular Formula>
C26H21F2N5O3

>  <InChI>
InChI=1S/C26H21F2N5O3/c1-33-15-16(14-30-33)21-11-18(7-10-29-21)36-23-13-19(27)22(12-20(23)28)32-25(35)26(8-9-26)24(34)31-17-5-3-2-4-6-17/h2-7,10-15H,8-9H2,1H3,(H,31,34)(H,32,35)

>  <InChI Key>
WWOXKWLDMLMYQY-UHFFFAOYSA-N

>  <BindingDB>


>  <PubChem>
46208890

>  <ChEMBL>
CHEMBL4303619

$$$$
236
Actelion Java MolfileCreator 2.0

  0  0  0  0  0  0              0 V3000
M  V30 BEGIN CTAB
M  V30 COUNTS 31 34 0 0 0
M  V30 BEGIN ATOM
M  V30 1 Cl 12.9903 -11.25 0.0 0
M  V30 2 C 11.6913 -12.0 0.0 0
M  V30 3 C 10.3923 -11.25 0.0 0
M  V30 4 C 11.6913 -13.5 0.0 0
M  V30 5 C 10.3923 -9.75 0.0 0
M  V30 6 C 9.0932 -12.0 0.0 0
M  V30 7 C 10.3923 -14.25 0.0 0
M  V30 8 C 11.6913 -9.0 0.0 0
M  V30 9 C 9.0932 -9.0 0.0 0
M  V30 10 Cl 7.7942 -11.25 0.0 0
M  V30 11 C 9.0932 -13.5 0.0 0
M  V30 12 O 12.9903 -9.75 0.0 0
M  V30 13 N 11.6913 -7.5 0.0 0
M  V30 14 C 9.0932 -7.5 0.0 0
M  V30 15 C 10.3923 -6.75 0.0 0
M  V30 16 C 12.9903 -6.75 0.0 0
M  V30 17 C 7.7942 -6.75 0.0 0
M  V30 18 N 10.3923 -5.25 0.0 0
M  V30 19 N 7.7942 -5.25 0.0 0
M  V30 20 C 9.0932 -4.5 0.0 0
M  V30 21 N 9.0932 -3.0 0.0 0
M  V30 22 C 7.7942 -2.25 0.0 0
M  V30 23 C 7.7942 -0.75 0.0 0
M  V30 24 C 6.4951 -2.9999 0.0 0
M  V30 25 C 6.4951 0.0 0.0 0
M  V30 26 C 5.1961 -2.25 0.0 0
M  V30 27 C 5.1961 -0.75 0.0 0
M  V30 28 O 3.8971 0.0 0.0 0
M  V30 29 C 2.598 -0.75 0.0 0
M  V30 30 C 1.299 0.0 0.0 0
M  V30 31 N 0.0 -0.75 0.0 0
M  V30 END ATOM
M  V30 BEGIN BOND
M  V30 1 1 1 2
M  V30 2 2 2 3
M  V30 3 1 2 4
M  V30 4 1 3 5
M  V30 5 1 3 6
M  V30 6 2 4 7
M  V30 7 1 5 8
M  V30 8 2 5 9
M  V30 9 1 6 10
M  V30 10 2 6 11
M  V30 11 2 8 12
M  V30 12 1 8 13
M  V30 13 1 9 14
M  V30 14 1 13 15
M  V30 15 1 13 16
M  V30 16 1 14 17
M  V30 17 1 15 18
M  V30 18 2 17 19
M  V30 19 2 18 20
M  V30 20 1 20 21
M  V30 21 1 21 22
M  V30 22 2 22 23
M  V30 23 1 22 24
M  V30 24 1 23 25
M  V30 25 2 24 26
M  V30 26 2 25 27
M  V30 27 1 27 28
M  V30 28 1 28 29
M  V30 29 1 29 30
M  V30 30 1 30 31
M  V30 31 1 7 11
M  V30 32 2 14 15
M  V30 33 1 19 20
M  V30 34 1 26 27
M  V30 END BOND
M  V30 END CTAB
M  END
>  <Molecule Name>
Compound 848

>  <Molecule Name 2>
Compound 848

>  <Compound ID>
236

>  <Name>
PP58

>  <Uniprot>
P00519

>  <Target>
ABL1

>  <Smiles>
CN1C(=O)C(C2=C(Cl)C=CC=C2Cl)=CC2=CN=C(NC3=CC=C(OCCN)C=C3)N=C21

>  <Kd (nM)>


>  <Assay (Kd)>


>  <Ki (nM)>


>  <Assay (Ki)>


>  <IC50 (nM)>


>  <Assay (IC50)>


>  <EC50 (nM)>


>  <Assay (EC50)>


>  <Article DOI>
10.1016/j.cell.2020.10.038

>  <Molecular Weight>
456.333

>  <Exact Mass>
455.0915802

>  <XLogP3>
3.93

>  <Heavy Atom Count>
31

>  <Ring Count>
4

>  <Hydrogen Bond Acceptor Count>
7

>  <Hydrogen Bond Donor Count>
2

>  <Rotatable Bond Count>
6

>  <Topological Polar Surface Area>
95.06

>  <Molecular Formula>
C22H19Cl2N5O2

>  <InChI>
InChI=1S/C22H19Cl2N5O2/c1-29-20-13(11-16(21(29)30)19-17(23)3-2-4-18(19)24)12-26-22(28-20)27-14-5-7-15(8-6-14)31-10-9-25/h2-8,11-12H,9-10,25H2,1H3,(H,26,27,28)

>  <InChI Key>
MAXZESONWXTISA-UHFFFAOYSA-N

>  <BindingDB>
3091

>  <PubChem>
5327904

>  <ChEMBL>
CHEMBL331366

$$$$
236
Actelion Java MolfileCreator 2.0

  0  0  0  0  0  0              0 V3000
M  V30 BEGIN CTAB
M  V30 COUNTS 31 34 0 0 0
M  V30 BEGIN ATOM
M  V30 1 Cl 12.9903 -11.25 0.0 0
M  V30 2 C 11.6913 -12.0 0.0 0
M  V30 3 C 10.3923 -11.25 0.0 0
M  V30 4 C 11.6913 -13.5 0.0 0
M  V30 5 C 10.3923 -9.75 0.0 0
M  V30 6 C 9.0932 -12.0 0.0 0
M  V30 7 C 10.3923 -14.25 0.0 0
M  V30 8 C 11.6913 -9.0 0.0 0
M  V30 9 C 9.0932 -9.0 0.0 0
M  V30 10 Cl 7.7942 -11.25 0.0 0
M  V30 11 C 9.0932 -13.5 0.0 0
M  V30 12 O 12.9903 -9.75 0.0 0
M  V30 13 N 11.6913 -7.5 0.0 0
M  V30 14 C 9.0932 -7.5 0.0 0
M  V30 15 C 10.3923 -6.75 0.0 0
M  V30 16 C 12.9903 -6.75 0.0 0
M  V30 17 C 7.7942 -6.75 0.0 0
M  V30 18 N 10.3923 -5.25 0.0 0
M  V30 19 N 7.7942 -5.25 0.0 0
M  V30 20 C 9.0932 -4.5 0.0 0
M  V30 21 N 9.0932 -3.0 0.0 0
M  V30 22 C 7.7942 -2.25 0.0 0
M  V30 23 C 7.7942 -0.75 0.0 0
M  V30 24 C 6.4951 -2.9999 0.0 0
M  V30 25 C 6.4951 0.0 0.0 0
M  V30 26 C 5.1961 -2.25 0.0 0
M  V30 27 C 5.1961 -0.75 0.0 0
M  V30 28 O 3.8971 0.0 0.0 0
M  V30 29 C 2.598 -0.75 0.0 0
M  V30 30 C 1.299 0.0 0.0 0
M  V30 31 N 0.0 -0.75 0.0 0
M  V30 END ATOM
M  V30 BEGIN BOND
M  V30 1 1 1 2
M  V30 2 2 2 3
M  V30 3 1 2 4
M  V30 4 1 3 5
M  V30 5 1 3 6
M  V30 6 2 4 7
M  V30 7 1 5 8
M  V30 8 2 5 9
M  V30 9 1 6 10
M  V30 10 2 6 11
M  V30 11 2 8 12
M  V30 12 1 8 13
M  V30 13 1 9 14
M  V30 14 1 13 15
M  V30 15 1 13 16
M  V30 16 1 14 17
M  V30 17 1 15 18
M  V30 18 2 17 19
M  V30 19 2 18 20
M  V30 20 1 20 21
M  V30 21 1 21 22
M  V30 22 2 22 23
M  V30 23 1 22 24
M  V30 24 1 23 25
M  V30 25 2 24 26
M  V30 26 2 25 27
M  V30 27 1 27 28
M  V30 28 1 28 29
M  V30 29 1 29 30
M  V30 30 1 30 31
M  V30 31 1 7 11
M  V30 32 2 14 15
M  V30 33 1 19 20
M  V30 34 1 26 27
M  V30 END BOND
M  V30 END CTAB
M  END
>  <Molecule Name>
Compound 849

>  <Molecule Name 2>
Compound 849

>  <Compound ID>
236

>  <Name>
PP58

>  <Uniprot>
P42684

>  <Target>
ABL2

>  <Smiles>
CN1C(=O)C(C2=C(Cl)C=CC=C2Cl)=CC2=CN=C(NC3=CC=C(OCCN)C=C3)N=C21

>  <Kd (nM)>


>  <Assay (Kd)>


>  <Ki (nM)>


>  <Assay (Ki)>


>  <IC50 (nM)>


>  <Assay (IC50)>


>  <EC50 (nM)>


>  <Assay (EC50)>


>  <Article DOI>
10.1016/j.cell.2020.10.038

>  <Molecular Weight>
456.333

>  <Exact Mass>
455.0915802

>  <XLogP3>
3.93

>  <Heavy Atom Count>
31

>  <Ring Count>
4

>  <Hydrogen Bond Acceptor Count>
7

>  <Hydrogen Bond Donor Count>
2

>  <Rotatable Bond Count>
6

>  <Topological Polar Surface Area>
95.06

>  <Molecular Formula>
C22H19Cl2N5O2

>  <InChI>
InChI=1S/C22H19Cl2N5O2/c1-29-20-13(11-16(21(29)30)19-17(23)3-2-4-18(19)24)12-26-22(28-20)27-14-5-7-15(8-6-14)31-10-9-25/h2-8,11-12H,9-10,25H2,1H3,(H,26,27,28)

>  <InChI Key>
MAXZESONWXTISA-UHFFFAOYSA-N

>  <BindingDB>
3091

>  <PubChem>
5327904

>  <ChEMBL>
CHEMBL331366

$$$$
236
Actelion Java MolfileCreator 2.0

  0  0  0  0  0  0              0 V3000
M  V30 BEGIN CTAB
M  V30 COUNTS 31 34 0 0 0
M  V30 BEGIN ATOM
M  V30 1 Cl 12.9903 -11.25 0.0 0
M  V30 2 C 11.6913 -12.0 0.0 0
M  V30 3 C 10.3923 -11.25 0.0 0
M  V30 4 C 11.6913 -13.5 0.0 0
M  V30 5 C 10.3923 -9.75 0.0 0
M  V30 6 C 9.0932 -12.0 0.0 0
M  V30 7 C 10.3923 -14.25 0.0 0
M  V30 8 C 11.6913 -9.0 0.0 0
M  V30 9 C 9.0932 -9.0 0.0 0
M  V30 10 Cl 7.7942 -11.25 0.0 0
M  V30 11 C 9.0932 -13.5 0.0 0
M  V30 12 O 12.9903 -9.75 0.0 0
M  V30 13 N 11.6913 -7.5 0.0 0
M  V30 14 C 9.0932 -7.5 0.0 0
M  V30 15 C 10.3923 -6.75 0.0 0
M  V30 16 C 12.9903 -6.75 0.0 0
M  V30 17 C 7.7942 -6.75 0.0 0
M  V30 18 N 10.3923 -5.25 0.0 0
M  V30 19 N 7.7942 -5.25 0.0 0
M  V30 20 C 9.0932 -4.5 0.0 0
M  V30 21 N 9.0932 -3.0 0.0 0
M  V30 22 C 7.7942 -2.25 0.0 0
M  V30 23 C 7.7942 -0.75 0.0 0
M  V30 24 C 6.4951 -2.9999 0.0 0
M  V30 25 C 6.4951 0.0 0.0 0
M  V30 26 C 5.1961 -2.25 0.0 0
M  V30 27 C 5.1961 -0.75 0.0 0
M  V30 28 O 3.8971 0.0 0.0 0
M  V30 29 C 2.598 -0.75 0.0 0
M  V30 30 C 1.299 0.0 0.0 0
M  V30 31 N 0.0 -0.75 0.0 0
M  V30 END ATOM
M  V30 BEGIN BOND
M  V30 1 1 1 2
M  V30 2 2 2 3
M  V30 3 1 2 4
M  V30 4 1 3 5
M  V30 5 1 3 6
M  V30 6 2 4 7
M  V30 7 1 5 8
M  V30 8 2 5 9
M  V30 9 1 6 10
M  V30 10 2 6 11
M  V30 11 2 8 12
M  V30 12 1 8 13
M  V30 13 1 9 14
M  V30 14 1 13 15
M  V30 15 1 13 16
M  V30 16 1 14 17
M  V30 17 1 15 18
M  V30 18 2 17 19
M  V30 19 2 18 20
M  V30 20 1 20 21
M  V30 21 1 21 22
M  V30 22 2 22 23
M  V30 23 1 22 24
M  V30 24 1 23 25
M  V30 25 2 24 26
M  V30 26 2 25 27
M  V30 27 1 27 28
M  V30 28 1 28 29
M  V30 29 1 29 30
M  V30 30 1 30 31
M  V30 31 1 7 11
M  V30 32 2 14 15
M  V30 33 1 19 20
M  V30 34 1 26 27
M  V30 END BOND
M  V30 END CTAB
M  END
>  <Molecule Name>
Compound 850

>  <Molecule Name 2>
Compound 850

>  <Compound ID>
236

>  <Name>
PP58

>  <Uniprot>
O14965

>  <Target>
AURKA

>  <Smiles>
CN1C(=O)C(C2=C(Cl)C=CC=C2Cl)=CC2=CN=C(NC3=CC=C(OCCN)C=C3)N=C21

>  <Kd (nM)>


>  <Assay (Kd)>


>  <Ki (nM)>


>  <Assay (Ki)>


>  <IC50 (nM)>


>  <Assay (IC50)>


>  <EC50 (nM)>


>  <Assay (EC50)>


>  <Article DOI>
10.1016/j.cell.2020.10.038

>  <Molecular Weight>
456.333

>  <Exact Mass>
455.0915802

>  <XLogP3>
3.93

>  <Heavy Atom Count>
31

>  <Ring Count>
4

>  <Hydrogen Bond Acceptor Count>
7

>  <Hydrogen Bond Donor Count>
2

>  <Rotatable Bond Count>
6

>  <Topological Polar Surface Area>
95.06

>  <Molecular Formula>
C22H19Cl2N5O2

>  <InChI>
InChI=1S/C22H19Cl2N5O2/c1-29-20-13(11-16(21(29)30)19-17(23)3-2-4-18(19)24)12-26-22(28-20)27-14-5-7-15(8-6-14)31-10-9-25/h2-8,11-12H,9-10,25H2,1H3,(H,26,27,28)

>  <InChI Key>
MAXZESONWXTISA-UHFFFAOYSA-N

>  <BindingDB>
3091

>  <PubChem>
5327904

>  <ChEMBL>
CHEMBL331366

$$$$
236
Actelion Java MolfileCreator 2.0

  0  0  0  0  0  0              0 V3000
M  V30 BEGIN CTAB
M  V30 COUNTS 31 34 0 0 0
M  V30 BEGIN ATOM
M  V30 1 Cl 12.9903 -11.25 0.0 0
M  V30 2 C 11.6913 -12.0 0.0 0
M  V30 3 C 10.3923 -11.25 0.0 0
M  V30 4 C 11.6913 -13.5 0.0 0
M  V30 5 C 10.3923 -9.75 0.0 0
M  V30 6 C 9.0932 -12.0 0.0 0
M  V30 7 C 10.3923 -14.25 0.0 0
M  V30 8 C 11.6913 -9.0 0.0 0
M  V30 9 C 9.0932 -9.0 0.0 0
M  V30 10 Cl 7.7942 -11.25 0.0 0
M  V30 11 C 9.0932 -13.5 0.0 0
M  V30 12 O 12.9903 -9.75 0.0 0
M  V30 13 N 11.6913 -7.5 0.0 0
M  V30 14 C 9.0932 -7.5 0.0 0
M  V30 15 C 10.3923 -6.75 0.0 0
M  V30 16 C 12.9903 -6.75 0.0 0
M  V30 17 C 7.7942 -6.75 0.0 0
M  V30 18 N 10.3923 -5.25 0.0 0
M  V30 19 N 7.7942 -5.25 0.0 0
M  V30 20 C 9.0932 -4.5 0.0 0
M  V30 21 N 9.0932 -3.0 0.0 0
M  V30 22 C 7.7942 -2.25 0.0 0
M  V30 23 C 7.7942 -0.75 0.0 0
M  V30 24 C 6.4951 -2.9999 0.0 0
M  V30 25 C 6.4951 0.0 0.0 0
M  V30 26 C 5.1961 -2.25 0.0 0
M  V30 27 C 5.1961 -0.75 0.0 0
M  V30 28 O 3.8971 0.0 0.0 0
M  V30 29 C 2.598 -0.75 0.0 0
M  V30 30 C 1.299 0.0 0.0 0
M  V30 31 N 0.0 -0.75 0.0 0
M  V30 END ATOM
M  V30 BEGIN BOND
M  V30 1 1 1 2
M  V30 2 2 2 3
M  V30 3 1 2 4
M  V30 4 1 3 5
M  V30 5 1 3 6
M  V30 6 2 4 7
M  V30 7 1 5 8
M  V30 8 2 5 9
M  V30 9 1 6 10
M  V30 10 2 6 11
M  V30 11 2 8 12
M  V30 12 1 8 13
M  V30 13 1 9 14
M  V30 14 1 13 15
M  V30 15 1 13 16
M  V30 16 1 14 17
M  V30 17 1 15 18
M  V30 18 2 17 19
M  V30 19 2 18 20
M  V30 20 1 20 21
M  V30 21 1 21 22
M  V30 22 2 22 23
M  V30 23 1 22 24
M  V30 24 1 23 25
M  V30 25 2 24 26
M  V30 26 2 25 27
M  V30 27 1 27 28
M  V30 28 1 28 29
M  V30 29 1 29 30
M  V30 30 1 30 31
M  V30 31 1 7 11
M  V30 32 2 14 15
M  V30 33 1 19 20
M  V30 34 1 26 27
M  V30 END BOND
M  V30 END CTAB
M  END
>  <Molecule Name>
Compound 851

>  <Molecule Name 2>
Compound 851

>  <Compound ID>
236

>  <Name>
PP58

>  <Uniprot>
P51451

>  <Target>
BLK

>  <Smiles>
CN1C(=O)C(C2=C(Cl)C=CC=C2Cl)=CC2=CN=C(NC3=CC=C(OCCN)C=C3)N=C21

>  <Kd (nM)>


>  <Assay (Kd)>


>  <Ki (nM)>


>  <Assay (Ki)>


>  <IC50 (nM)>


>  <Assay (IC50)>


>  <EC50 (nM)>


>  <Assay (EC50)>


>  <Article DOI>
10.1016/j.cell.2020.10.038

>  <Molecular Weight>
456.333

>  <Exact Mass>
455.0915802

>  <XLogP3>
3.93

>  <Heavy Atom Count>
31

>  <Ring Count>
4

>  <Hydrogen Bond Acceptor Count>
7

>  <Hydrogen Bond Donor Count>
2

>  <Rotatable Bond Count>
6

>  <Topological Polar Surface Area>
95.06

>  <Molecular Formula>
C22H19Cl2N5O2

>  <InChI>
InChI=1S/C22H19Cl2N5O2/c1-29-20-13(11-16(21(29)30)19-17(23)3-2-4-18(19)24)12-26-22(28-20)27-14-5-7-15(8-6-14)31-10-9-25/h2-8,11-12H,9-10,25H2,1H3,(H,26,27,28)

>  <InChI Key>
MAXZESONWXTISA-UHFFFAOYSA-N

>  <BindingDB>
3091

>  <PubChem>
5327904

>  <ChEMBL>
CHEMBL331366

$$$$
236
Actelion Java MolfileCreator 2.0

  0  0  0  0  0  0              0 V3000
M  V30 BEGIN CTAB
M  V30 COUNTS 31 34 0 0 0
M  V30 BEGIN ATOM
M  V30 1 Cl 12.9903 -11.25 0.0 0
M  V30 2 C 11.6913 -12.0 0.0 0
M  V30 3 C 10.3923 -11.25 0.0 0
M  V30 4 C 11.6913 -13.5 0.0 0
M  V30 5 C 10.3923 -9.75 0.0 0
M  V30 6 C 9.0932 -12.0 0.0 0
M  V30 7 C 10.3923 -14.25 0.0 0
M  V30 8 C 11.6913 -9.0 0.0 0
M  V30 9 C 9.0932 -9.0 0.0 0
M  V30 10 Cl 7.7942 -11.25 0.0 0
M  V30 11 C 9.0932 -13.5 0.0 0
M  V30 12 O 12.9903 -9.75 0.0 0
M  V30 13 N 11.6913 -7.5 0.0 0
M  V30 14 C 9.0932 -7.5 0.0 0
M  V30 15 C 10.3923 -6.75 0.0 0
M  V30 16 C 12.9903 -6.75 0.0 0
M  V30 17 C 7.7942 -6.75 0.0 0
M  V30 18 N 10.3923 -5.25 0.0 0
M  V30 19 N 7.7942 -5.25 0.0 0
M  V30 20 C 9.0932 -4.5 0.0 0
M  V30 21 N 9.0932 -3.0 0.0 0
M  V30 22 C 7.7942 -2.25 0.0 0
M  V30 23 C 7.7942 -0.75 0.0 0
M  V30 24 C 6.4951 -2.9999 0.0 0
M  V30 25 C 6.4951 0.0 0.0 0
M  V30 26 C 5.1961 -2.25 0.0 0
M  V30 27 C 5.1961 -0.75 0.0 0
M  V30 28 O 3.8971 0.0 0.0 0
M  V30 29 C 2.598 -0.75 0.0 0
M  V30 30 C 1.299 0.0 0.0 0
M  V30 31 N 0.0 -0.75 0.0 0
M  V30 END ATOM
M  V30 BEGIN BOND
M  V30 1 1 1 2
M  V30 2 2 2 3
M  V30 3 1 2 4
M  V30 4 1 3 5
M  V30 5 1 3 6
M  V30 6 2 4 7
M  V30 7 1 5 8
M  V30 8 2 5 9
M  V30 9 1 6 10
M  V30 10 2 6 11
M  V30 11 2 8 12
M  V30 12 1 8 13
M  V30 13 1 9 14
M  V30 14 1 13 15
M  V30 15 1 13 16
M  V30 16 1 14 17
M  V30 17 1 15 18
M  V30 18 2 17 19
M  V30 19 2 18 20
M  V30 20 1 20 21
M  V30 21 1 21 22
M  V30 22 2 22 23
M  V30 23 1 22 24
M  V30 24 1 23 25
M  V30 25 2 24 26
M  V30 26 2 25 27
M  V30 27 1 27 28
M  V30 28 1 28 29
M  V30 29 1 29 30
M  V30 30 1 30 31
M  V30 31 1 7 11
M  V30 32 2 14 15
M  V30 33 1 19 20
M  V30 34 1 26 27
M  V30 END BOND
M  V30 END CTAB
M  END
>  <Molecule Name>
Compound 852

>  <Molecule Name 2>
Compound 852

>  <Compound ID>
236

>  <Name>
PP58

>  <Uniprot>
P41240

>  <Target>
CSK

>  <Smiles>
CN1C(=O)C(C2=C(Cl)C=CC=C2Cl)=CC2=CN=C(NC3=CC=C(OCCN)C=C3)N=C21

>  <Kd (nM)>


>  <Assay (Kd)>


>  <Ki (nM)>


>  <Assay (Ki)>


>  <IC50 (nM)>


>  <Assay (IC50)>


>  <EC50 (nM)>


>  <Assay (EC50)>


>  <Article DOI>
10.1016/j.cell.2020.10.038

>  <Molecular Weight>
456.333

>  <Exact Mass>
455.0915802

>  <XLogP3>
3.93

>  <Heavy Atom Count>
31

>  <Ring Count>
4

>  <Hydrogen Bond Acceptor Count>
7

>  <Hydrogen Bond Donor Count>
2

>  <Rotatable Bond Count>
6

>  <Topological Polar Surface Area>
95.06

>  <Molecular Formula>
C22H19Cl2N5O2

>  <InChI>
InChI=1S/C22H19Cl2N5O2/c1-29-20-13(11-16(21(29)30)19-17(23)3-2-4-18(19)24)12-26-22(28-20)27-14-5-7-15(8-6-14)31-10-9-25/h2-8,11-12H,9-10,25H2,1H3,(H,26,27,28)

>  <InChI Key>
MAXZESONWXTISA-UHFFFAOYSA-N

>  <BindingDB>
3091

>  <PubChem>
5327904

>  <ChEMBL>
CHEMBL331366

$$$$
236
Actelion Java MolfileCreator 2.0

  0  0  0  0  0  0              0 V3000
M  V30 BEGIN CTAB
M  V30 COUNTS 31 34 0 0 0
M  V30 BEGIN ATOM
M  V30 1 Cl 12.9903 -11.25 0.0 0
M  V30 2 C 11.6913 -12.0 0.0 0
M  V30 3 C 10.3923 -11.25 0.0 0
M  V30 4 C 11.6913 -13.5 0.0 0
M  V30 5 C 10.3923 -9.75 0.0 0
M  V30 6 C 9.0932 -12.0 0.0 0
M  V30 7 C 10.3923 -14.25 0.0 0
M  V30 8 C 11.6913 -9.0 0.0 0
M  V30 9 C 9.0932 -9.0 0.0 0
M  V30 10 Cl 7.7942 -11.25 0.0 0
M  V30 11 C 9.0932 -13.5 0.0 0
M  V30 12 O 12.9903 -9.75 0.0 0
M  V30 13 N 11.6913 -7.5 0.0 0
M  V30 14 C 9.0932 -7.5 0.0 0
M  V30 15 C 10.3923 -6.75 0.0 0
M  V30 16 C 12.9903 -6.75 0.0 0
M  V30 17 C 7.7942 -6.75 0.0 0
M  V30 18 N 10.3923 -5.25 0.0 0
M  V30 19 N 7.7942 -5.25 0.0 0
M  V30 20 C 9.0932 -4.5 0.0 0
M  V30 21 N 9.0932 -3.0 0.0 0
M  V30 22 C 7.7942 -2.25 0.0 0
M  V30 23 C 7.7942 -0.75 0.0 0
M  V30 24 C 6.4951 -2.9999 0.0 0
M  V30 25 C 6.4951 0.0 0.0 0
M  V30 26 C 5.1961 -2.25 0.0 0
M  V30 27 C 5.1961 -0.75 0.0 0
M  V30 28 O 3.8971 0.0 0.0 0
M  V30 29 C 2.598 -0.75 0.0 0
M  V30 30 C 1.299 0.0 0.0 0
M  V30 31 N 0.0 -0.75 0.0 0
M  V30 END ATOM
M  V30 BEGIN BOND
M  V30 1 1 1 2
M  V30 2 2 2 3
M  V30 3 1 2 4
M  V30 4 1 3 5
M  V30 5 1 3 6
M  V30 6 2 4 7
M  V30 7 1 5 8
M  V30 8 2 5 9
M  V30 9 1 6 10
M  V30 10 2 6 11
M  V30 11 2 8 12
M  V30 12 1 8 13
M  V30 13 1 9 14
M  V30 14 1 13 15
M  V30 15 1 13 16
M  V30 16 1 14 17
M  V30 17 1 15 18
M  V30 18 2 17 19
M  V30 19 2 18 20
M  V30 20 1 20 21
M  V30 21 1 21 22
M  V30 22 2 22 23
M  V30 23 1 22 24
M  V30 24 1 23 25
M  V30 25 2 24 26
M  V30 26 2 25 27
M  V30 27 1 27 28
M  V30 28 1 28 29
M  V30 29 1 29 30
M  V30 30 1 30 31
M  V30 31 1 7 11
M  V30 32 2 14 15
M  V30 33 1 19 20
M  V30 34 1 26 27
M  V30 END BOND
M  V30 END CTAB
M  END
>  <Molecule Name>
Compound 853

>  <Molecule Name 2>
Compound 853

>  <Compound ID>
236

>  <Name>
PP58

>  <Uniprot>
P29320

>  <Target>
EPHA3

>  <Smiles>
CN1C(=O)C(C2=C(Cl)C=CC=C2Cl)=CC2=CN=C(NC3=CC=C(OCCN)C=C3)N=C21

>  <Kd (nM)>


>  <Assay (Kd)>


>  <Ki (nM)>


>  <Assay (Ki)>


>  <IC50 (nM)>


>  <Assay (IC50)>


>  <EC50 (nM)>


>  <Assay (EC50)>


>  <Article DOI>
10.1016/j.cell.2020.10.038

>  <Molecular Weight>
456.333

>  <Exact Mass>
455.0915802

>  <XLogP3>
3.93

>  <Heavy Atom Count>
31

>  <Ring Count>
4

>  <Hydrogen Bond Acceptor Count>
7

>  <Hydrogen Bond Donor Count>
2

>  <Rotatable Bond Count>
6

>  <Topological Polar Surface Area>
95.06

>  <Molecular Formula>
C22H19Cl2N5O2

>  <InChI>
InChI=1S/C22H19Cl2N5O2/c1-29-20-13(11-16(21(29)30)19-17(23)3-2-4-18(19)24)12-26-22(28-20)27-14-5-7-15(8-6-14)31-10-9-25/h2-8,11-12H,9-10,25H2,1H3,(H,26,27,28)

>  <InChI Key>
MAXZESONWXTISA-UHFFFAOYSA-N

>  <BindingDB>
3091

>  <PubChem>
5327904

>  <ChEMBL>
CHEMBL331366

$$$$
236
Actelion Java MolfileCreator 2.0

  0  0  0  0  0  0              0 V3000
M  V30 BEGIN CTAB
M  V30 COUNTS 31 34 0 0 0
M  V30 BEGIN ATOM
M  V30 1 Cl 12.9903 -11.25 0.0 0
M  V30 2 C 11.6913 -12.0 0.0 0
M  V30 3 C 10.3923 -11.25 0.0 0
M  V30 4 C 11.6913 -13.5 0.0 0
M  V30 5 C 10.3923 -9.75 0.0 0
M  V30 6 C 9.0932 -12.0 0.0 0
M  V30 7 C 10.3923 -14.25 0.0 0
M  V30 8 C 11.6913 -9.0 0.0 0
M  V30 9 C 9.0932 -9.0 0.0 0
M  V30 10 Cl 7.7942 -11.25 0.0 0
M  V30 11 C 9.0932 -13.5 0.0 0
M  V30 12 O 12.9903 -9.75 0.0 0
M  V30 13 N 11.6913 -7.5 0.0 0
M  V30 14 C 9.0932 -7.5 0.0 0
M  V30 15 C 10.3923 -6.75 0.0 0
M  V30 16 C 12.9903 -6.75 0.0 0
M  V30 17 C 7.7942 -6.75 0.0 0
M  V30 18 N 10.3923 -5.25 0.0 0
M  V30 19 N 7.7942 -5.25 0.0 0
M  V30 20 C 9.0932 -4.5 0.0 0
M  V30 21 N 9.0932 -3.0 0.0 0
M  V30 22 C 7.7942 -2.25 0.0 0
M  V30 23 C 7.7942 -0.75 0.0 0
M  V30 24 C 6.4951 -2.9999 0.0 0
M  V30 25 C 6.4951 0.0 0.0 0
M  V30 26 C 5.1961 -2.25 0.0 0
M  V30 27 C 5.1961 -0.75 0.0 0
M  V30 28 O 3.8971 0.0 0.0 0
M  V30 29 C 2.598 -0.75 0.0 0
M  V30 30 C 1.299 0.0 0.0 0
M  V30 31 N 0.0 -0.75 0.0 0
M  V30 END ATOM
M  V30 BEGIN BOND
M  V30 1 1 1 2
M  V30 2 2 2 3
M  V30 3 1 2 4
M  V30 4 1 3 5
M  V30 5 1 3 6
M  V30 6 2 4 7
M  V30 7 1 5 8
M  V30 8 2 5 9
M  V30 9 1 6 10
M  V30 10 2 6 11
M  V30 11 2 8 12
M  V30 12 1 8 13
M  V30 13 1 9 14
M  V30 14 1 13 15
M  V30 15 1 13 16
M  V30 16 1 14 17
M  V30 17 1 15 18
M  V30 18 2 17 19
M  V30 19 2 18 20
M  V30 20 1 20 21
M  V30 21 1 21 22
M  V30 22 2 22 23
M  V30 23 1 22 24
M  V30 24 1 23 25
M  V30 25 2 24 26
M  V30 26 2 25 27
M  V30 27 1 27 28
M  V30 28 1 28 29
M  V30 29 1 29 30
M  V30 30 1 30 31
M  V30 31 1 7 11
M  V30 32 2 14 15
M  V30 33 1 19 20
M  V30 34 1 26 27
M  V30 END BOND
M  V30 END CTAB
M  END
>  <Molecule Name>
Compound 854

>  <Molecule Name 2>
Compound 854

>  <Compound ID>
236

>  <Name>
PP58

>  <Uniprot>
O15197

>  <Target>
EPHB6

>  <Smiles>
CN1C(=O)C(C2=C(Cl)C=CC=C2Cl)=CC2=CN=C(NC3=CC=C(OCCN)C=C3)N=C21

>  <Kd (nM)>


>  <Assay (Kd)>


>  <Ki (nM)>


>  <Assay (Ki)>


>  <IC50 (nM)>


>  <Assay (IC50)>


>  <EC50 (nM)>


>  <Assay (EC50)>


>  <Article DOI>
10.1016/j.cell.2020.10.038

>  <Molecular Weight>
456.333

>  <Exact Mass>
455.0915802

>  <XLogP3>
3.93

>  <Heavy Atom Count>
31

>  <Ring Count>
4

>  <Hydrogen Bond Acceptor Count>
7

>  <Hydrogen Bond Donor Count>
2

>  <Rotatable Bond Count>
6

>  <Topological Polar Surface Area>
95.06

>  <Molecular Formula>
C22H19Cl2N5O2

>  <InChI>
InChI=1S/C22H19Cl2N5O2/c1-29-20-13(11-16(21(29)30)19-17(23)3-2-4-18(19)24)12-26-22(28-20)27-14-5-7-15(8-6-14)31-10-9-25/h2-8,11-12H,9-10,25H2,1H3,(H,26,27,28)

>  <InChI Key>
MAXZESONWXTISA-UHFFFAOYSA-N

>  <BindingDB>
3091

>  <PubChem>
5327904

>  <ChEMBL>
CHEMBL331366

$$$$
236
Actelion Java MolfileCreator 2.0

  0  0  0  0  0  0              0 V3000
M  V30 BEGIN CTAB
M  V30 COUNTS 31 34 0 0 0
M  V30 BEGIN ATOM
M  V30 1 Cl 12.9903 -11.25 0.0 0
M  V30 2 C 11.6913 -12.0 0.0 0
M  V30 3 C 10.3923 -11.25 0.0 0
M  V30 4 C 11.6913 -13.5 0.0 0
M  V30 5 C 10.3923 -9.75 0.0 0
M  V30 6 C 9.0932 -12.0 0.0 0
M  V30 7 C 10.3923 -14.25 0.0 0
M  V30 8 C 11.6913 -9.0 0.0 0
M  V30 9 C 9.0932 -9.0 0.0 0
M  V30 10 Cl 7.7942 -11.25 0.0 0
M  V30 11 C 9.0932 -13.5 0.0 0
M  V30 12 O 12.9903 -9.75 0.0 0
M  V30 13 N 11.6913 -7.5 0.0 0
M  V30 14 C 9.0932 -7.5 0.0 0
M  V30 15 C 10.3923 -6.75 0.0 0
M  V30 16 C 12.9903 -6.75 0.0 0
M  V30 17 C 7.7942 -6.75 0.0 0
M  V30 18 N 10.3923 -5.25 0.0 0
M  V30 19 N 7.7942 -5.25 0.0 0
M  V30 20 C 9.0932 -4.5 0.0 0
M  V30 21 N 9.0932 -3.0 0.0 0
M  V30 22 C 7.7942 -2.25 0.0 0
M  V30 23 C 7.7942 -0.75 0.0 0
M  V30 24 C 6.4951 -2.9999 0.0 0
M  V30 25 C 6.4951 0.0 0.0 0
M  V30 26 C 5.1961 -2.25 0.0 0
M  V30 27 C 5.1961 -0.75 0.0 0
M  V30 28 O 3.8971 0.0 0.0 0
M  V30 29 C 2.598 -0.75 0.0 0
M  V30 30 C 1.299 0.0 0.0 0
M  V30 31 N 0.0 -0.75 0.0 0
M  V30 END ATOM
M  V30 BEGIN BOND
M  V30 1 1 1 2
M  V30 2 2 2 3
M  V30 3 1 2 4
M  V30 4 1 3 5
M  V30 5 1 3 6
M  V30 6 2 4 7
M  V30 7 1 5 8
M  V30 8 2 5 9
M  V30 9 1 6 10
M  V30 10 2 6 11
M  V30 11 2 8 12
M  V30 12 1 8 13
M  V30 13 1 9 14
M  V30 14 1 13 15
M  V30 15 1 13 16
M  V30 16 1 14 17
M  V30 17 1 15 18
M  V30 18 2 17 19
M  V30 19 2 18 20
M  V30 20 1 20 21
M  V30 21 1 21 22
M  V30 22 2 22 23
M  V30 23 1 22 24
M  V30 24 1 23 25
M  V30 25 2 24 26
M  V30 26 2 25 27
M  V30 27 1 27 28
M  V30 28 1 28 29
M  V30 29 1 29 30
M  V30 30 1 30 31
M  V30 31 1 7 11
M  V30 32 2 14 15
M  V30 33 1 19 20
M  V30 34 1 26 27
M  V30 END BOND
M  V30 END CTAB
M  END
>  <Molecule Name>
Compound 855

>  <Molecule Name 2>
Compound 855

>  <Compound ID>
236

>  <Name>
PP58

>  <Uniprot>
P06241

>  <Target>
FYN

>  <Smiles>
CN1C(=O)C(C2=C(Cl)C=CC=C2Cl)=CC2=CN=C(NC3=CC=C(OCCN)C=C3)N=C21

>  <Kd (nM)>


>  <Assay (Kd)>


>  <Ki (nM)>


>  <Assay (Ki)>


>  <IC50 (nM)>


>  <Assay (IC50)>


>  <EC50 (nM)>


>  <Assay (EC50)>


>  <Article DOI>
10.1016/j.cell.2020.10.038

>  <Molecular Weight>
456.333

>  <Exact Mass>
455.0915802

>  <XLogP3>
3.93

>  <Heavy Atom Count>
31

>  <Ring Count>
4

>  <Hydrogen Bond Acceptor Count>
7

>  <Hydrogen Bond Donor Count>
2

>  <Rotatable Bond Count>
6

>  <Topological Polar Surface Area>
95.06

>  <Molecular Formula>
C22H19Cl2N5O2

>  <InChI>
InChI=1S/C22H19Cl2N5O2/c1-29-20-13(11-16(21(29)30)19-17(23)3-2-4-18(19)24)12-26-22(28-20)27-14-5-7-15(8-6-14)31-10-9-25/h2-8,11-12H,9-10,25H2,1H3,(H,26,27,28)

>  <InChI Key>
MAXZESONWXTISA-UHFFFAOYSA-N

>  <BindingDB>
3091

>  <PubChem>
5327904

>  <ChEMBL>
CHEMBL331366

$$$$
236
Actelion Java MolfileCreator 2.0

  0  0  0  0  0  0              0 V3000
M  V30 BEGIN CTAB
M  V30 COUNTS 31 34 0 0 0
M  V30 BEGIN ATOM
M  V30 1 Cl 12.9903 -11.25 0.0 0
M  V30 2 C 11.6913 -12.0 0.0 0
M  V30 3 C 10.3923 -11.25 0.0 0
M  V30 4 C 11.6913 -13.5 0.0 0
M  V30 5 C 10.3923 -9.75 0.0 0
M  V30 6 C 9.0932 -12.0 0.0 0
M  V30 7 C 10.3923 -14.25 0.0 0
M  V30 8 C 11.6913 -9.0 0.0 0
M  V30 9 C 9.0932 -9.0 0.0 0
M  V30 10 Cl 7.7942 -11.25 0.0 0
M  V30 11 C 9.0932 -13.5 0.0 0
M  V30 12 O 12.9903 -9.75 0.0 0
M  V30 13 N 11.6913 -7.5 0.0 0
M  V30 14 C 9.0932 -7.5 0.0 0
M  V30 15 C 10.3923 -6.75 0.0 0
M  V30 16 C 12.9903 -6.75 0.0 0
M  V30 17 C 7.7942 -6.75 0.0 0
M  V30 18 N 10.3923 -5.25 0.0 0
M  V30 19 N 7.7942 -5.25 0.0 0
M  V30 20 C 9.0932 -4.5 0.0 0
M  V30 21 N 9.0932 -3.0 0.0 0
M  V30 22 C 7.7942 -2.25 0.0 0
M  V30 23 C 7.7942 -0.75 0.0 0
M  V30 24 C 6.4951 -2.9999 0.0 0
M  V30 25 C 6.4951 0.0 0.0 0
M  V30 26 C 5.1961 -2.25 0.0 0
M  V30 27 C 5.1961 -0.75 0.0 0
M  V30 28 O 3.8971 0.0 0.0 0
M  V30 29 C 2.598 -0.75 0.0 0
M  V30 30 C 1.299 0.0 0.0 0
M  V30 31 N 0.0 -0.75 0.0 0
M  V30 END ATOM
M  V30 BEGIN BOND
M  V30 1 1 1 2
M  V30 2 2 2 3
M  V30 3 1 2 4
M  V30 4 1 3 5
M  V30 5 1 3 6
M  V30 6 2 4 7
M  V30 7 1 5 8
M  V30 8 2 5 9
M  V30 9 1 6 10
M  V30 10 2 6 11
M  V30 11 2 8 12
M  V30 12 1 8 13
M  V30 13 1 9 14
M  V30 14 1 13 15
M  V30 15 1 13 16
M  V30 16 1 14 17
M  V30 17 1 15 18
M  V30 18 2 17 19
M  V30 19 2 18 20
M  V30 20 1 20 21
M  V30 21 1 21 22
M  V30 22 2 22 23
M  V30 23 1 22 24
M  V30 24 1 23 25
M  V30 25 2 24 26
M  V30 26 2 25 27
M  V30 27 1 27 28
M  V30 28 1 28 29
M  V30 29 1 29 30
M  V30 30 1 30 31
M  V30 31 1 7 11
M  V30 32 2 14 15
M  V30 33 1 19 20
M  V30 34 1 26 27
M  V30 END BOND
M  V30 END CTAB
M  END
>  <Molecule Name>
Compound 856

>  <Molecule Name 2>
Compound 856

>  <Compound ID>
236

>  <Name>
PP58

>  <Uniprot>
O14976

>  <Target>
GAK

>  <Smiles>
CN1C(=O)C(C2=C(Cl)C=CC=C2Cl)=CC2=CN=C(NC3=CC=C(OCCN)C=C3)N=C21

>  <Kd (nM)>


>  <Assay (Kd)>


>  <Ki (nM)>


>  <Assay (Ki)>


>  <IC50 (nM)>


>  <Assay (IC50)>


>  <EC50 (nM)>


>  <Assay (EC50)>


>  <Article DOI>
10.1016/j.cell.2020.10.038

>  <Molecular Weight>
456.333

>  <Exact Mass>
455.0915802

>  <XLogP3>
3.93

>  <Heavy Atom Count>
31

>  <Ring Count>
4

>  <Hydrogen Bond Acceptor Count>
7

>  <Hydrogen Bond Donor Count>
2

>  <Rotatable Bond Count>
6

>  <Topological Polar Surface Area>
95.06

>  <Molecular Formula>
C22H19Cl2N5O2

>  <InChI>
InChI=1S/C22H19Cl2N5O2/c1-29-20-13(11-16(21(29)30)19-17(23)3-2-4-18(19)24)12-26-22(28-20)27-14-5-7-15(8-6-14)31-10-9-25/h2-8,11-12H,9-10,25H2,1H3,(H,26,27,28)

>  <InChI Key>
MAXZESONWXTISA-UHFFFAOYSA-N

>  <BindingDB>
3091

>  <PubChem>
5327904

>  <ChEMBL>
CHEMBL331366

$$$$
236
Actelion Java MolfileCreator 2.0

  0  0  0  0  0  0              0 V3000
M  V30 BEGIN CTAB
M  V30 COUNTS 31 34 0 0 0
M  V30 BEGIN ATOM
M  V30 1 Cl 12.9903 -11.25 0.0 0
M  V30 2 C 11.6913 -12.0 0.0 0
M  V30 3 C 10.3923 -11.25 0.0 0
M  V30 4 C 11.6913 -13.5 0.0 0
M  V30 5 C 10.3923 -9.75 0.0 0
M  V30 6 C 9.0932 -12.0 0.0 0
M  V30 7 C 10.3923 -14.25 0.0 0
M  V30 8 C 11.6913 -9.0 0.0 0
M  V30 9 C 9.0932 -9.0 0.0 0
M  V30 10 Cl 7.7942 -11.25 0.0 0
M  V30 11 C 9.0932 -13.5 0.0 0
M  V30 12 O 12.9903 -9.75 0.0 0
M  V30 13 N 11.6913 -7.5 0.0 0
M  V30 14 C 9.0932 -7.5 0.0 0
M  V30 15 C 10.3923 -6.75 0.0 0
M  V30 16 C 12.9903 -6.75 0.0 0
M  V30 17 C 7.7942 -6.75 0.0 0
M  V30 18 N 10.3923 -5.25 0.0 0
M  V30 19 N 7.7942 -5.25 0.0 0
M  V30 20 C 9.0932 -4.5 0.0 0
M  V30 21 N 9.0932 -3.0 0.0 0
M  V30 22 C 7.7942 -2.25 0.0 0
M  V30 23 C 7.7942 -0.75 0.0 0
M  V30 24 C 6.4951 -2.9999 0.0 0
M  V30 25 C 6.4951 0.0 0.0 0
M  V30 26 C 5.1961 -2.25 0.0 0
M  V30 27 C 5.1961 -0.75 0.0 0
M  V30 28 O 3.8971 0.0 0.0 0
M  V30 29 C 2.598 -0.75 0.0 0
M  V30 30 C 1.299 0.0 0.0 0
M  V30 31 N 0.0 -0.75 0.0 0
M  V30 END ATOM
M  V30 BEGIN BOND
M  V30 1 1 1 2
M  V30 2 2 2 3
M  V30 3 1 2 4
M  V30 4 1 3 5
M  V30 5 1 3 6
M  V30 6 2 4 7
M  V30 7 1 5 8
M  V30 8 2 5 9
M  V30 9 1 6 10
M  V30 10 2 6 11
M  V30 11 2 8 12
M  V30 12 1 8 13
M  V30 13 1 9 14
M  V30 14 1 13 15
M  V30 15 1 13 16
M  V30 16 1 14 17
M  V30 17 1 15 18
M  V30 18 2 17 19
M  V30 19 2 18 20
M  V30 20 1 20 21
M  V30 21 1 21 22
M  V30 22 2 22 23
M  V30 23 1 22 24
M  V30 24 1 23 25
M  V30 25 2 24 26
M  V30 26 2 25 27
M  V30 27 1 27 28
M  V30 28 1 28 29
M  V30 29 1 29 30
M  V30 30 1 30 31
M  V30 31 1 7 11
M  V30 32 2 14 15
M  V30 33 1 19 20
M  V30 34 1 26 27
M  V30 END BOND
M  V30 END CTAB
M  END
>  <Molecule Name>
Compound 857

>  <Molecule Name 2>
Compound 857

>  <Compound ID>
236

>  <Name>
PP58

>  <Uniprot>
P06239

>  <Target>
LCK

>  <Smiles>
CN1C(=O)C(C2=C(Cl)C=CC=C2Cl)=CC2=CN=C(NC3=CC=C(OCCN)C=C3)N=C21

>  <Kd (nM)>


>  <Assay (Kd)>


>  <Ki (nM)>


>  <Assay (Ki)>


>  <IC50 (nM)>


>  <Assay (IC50)>


>  <EC50 (nM)>


>  <Assay (EC50)>


>  <Article DOI>
10.1016/j.cell.2020.10.038

>  <Molecular Weight>
456.333

>  <Exact Mass>
455.0915802

>  <XLogP3>
3.93

>  <Heavy Atom Count>
31

>  <Ring Count>
4

>  <Hydrogen Bond Acceptor Count>
7

>  <Hydrogen Bond Donor Count>
2

>  <Rotatable Bond Count>
6

>  <Topological Polar Surface Area>
95.06

>  <Molecular Formula>
C22H19Cl2N5O2

>  <InChI>
InChI=1S/C22H19Cl2N5O2/c1-29-20-13(11-16(21(29)30)19-17(23)3-2-4-18(19)24)12-26-22(28-20)27-14-5-7-15(8-6-14)31-10-9-25/h2-8,11-12H,9-10,25H2,1H3,(H,26,27,28)

>  <InChI Key>
MAXZESONWXTISA-UHFFFAOYSA-N

>  <BindingDB>
3091

>  <PubChem>
5327904

>  <ChEMBL>
CHEMBL331366

$$$$
236
Actelion Java MolfileCreator 2.0

  0  0  0  0  0  0              0 V3000
M  V30 BEGIN CTAB
M  V30 COUNTS 31 34 0 0 0
M  V30 BEGIN ATOM
M  V30 1 Cl 12.9903 -11.25 0.0 0
M  V30 2 C 11.6913 -12.0 0.0 0
M  V30 3 C 10.3923 -11.25 0.0 0
M  V30 4 C 11.6913 -13.5 0.0 0
M  V30 5 C 10.3923 -9.75 0.0 0
M  V30 6 C 9.0932 -12.0 0.0 0
M  V30 7 C 10.3923 -14.25 0.0 0
M  V30 8 C 11.6913 -9.0 0.0 0
M  V30 9 C 9.0932 -9.0 0.0 0
M  V30 10 Cl 7.7942 -11.25 0.0 0
M  V30 11 C 9.0932 -13.5 0.0 0
M  V30 12 O 12.9903 -9.75 0.0 0
M  V30 13 N 11.6913 -7.5 0.0 0
M  V30 14 C 9.0932 -7.5 0.0 0
M  V30 15 C 10.3923 -6.75 0.0 0
M  V30 16 C 12.9903 -6.75 0.0 0
M  V30 17 C 7.7942 -6.75 0.0 0
M  V30 18 N 10.3923 -5.25 0.0 0
M  V30 19 N 7.7942 -5.25 0.0 0
M  V30 20 C 9.0932 -4.5 0.0 0
M  V30 21 N 9.0932 -3.0 0.0 0
M  V30 22 C 7.7942 -2.25 0.0 0
M  V30 23 C 7.7942 -0.75 0.0 0
M  V30 24 C 6.4951 -2.9999 0.0 0
M  V30 25 C 6.4951 0.0 0.0 0
M  V30 26 C 5.1961 -2.25 0.0 0
M  V30 27 C 5.1961 -0.75 0.0 0
M  V30 28 O 3.8971 0.0 0.0 0
M  V30 29 C 2.598 -0.75 0.0 0
M  V30 30 C 1.299 0.0 0.0 0
M  V30 31 N 0.0 -0.75 0.0 0
M  V30 END ATOM
M  V30 BEGIN BOND
M  V30 1 1 1 2
M  V30 2 2 2 3
M  V30 3 1 2 4
M  V30 4 1 3 5
M  V30 5 1 3 6
M  V30 6 2 4 7
M  V30 7 1 5 8
M  V30 8 2 5 9
M  V30 9 1 6 10
M  V30 10 2 6 11
M  V30 11 2 8 12
M  V30 12 1 8 13
M  V30 13 1 9 14
M  V30 14 1 13 15
M  V30 15 1 13 16
M  V30 16 1 14 17
M  V30 17 1 15 18
M  V30 18 2 17 19
M  V30 19 2 18 20
M  V30 20 1 20 21
M  V30 21 1 21 22
M  V30 22 2 22 23
M  V30 23 1 22 24
M  V30 24 1 23 25
M  V30 25 2 24 26
M  V30 26 2 25 27
M  V30 27 1 27 28
M  V30 28 1 28 29
M  V30 29 1 29 30
M  V30 30 1 30 31
M  V30 31 1 7 11
M  V30 32 2 14 15
M  V30 33 1 19 20
M  V30 34 1 26 27
M  V30 END BOND
M  V30 END CTAB
M  END
>  <Molecule Name>
Compound 858

>  <Molecule Name 2>
Compound 858

>  <Compound ID>
236

>  <Name>
PP58

>  <Uniprot>
P53671

>  <Target>
LIMK2

>  <Smiles>
CN1C(=O)C(C2=C(Cl)C=CC=C2Cl)=CC2=CN=C(NC3=CC=C(OCCN)C=C3)N=C21

>  <Kd (nM)>


>  <Assay (Kd)>


>  <Ki (nM)>


>  <Assay (Ki)>


>  <IC50 (nM)>


>  <Assay (IC50)>


>  <EC50 (nM)>


>  <Assay (EC50)>


>  <Article DOI>
10.1016/j.cell.2020.10.038

>  <Molecular Weight>
456.333

>  <Exact Mass>
455.0915802

>  <XLogP3>
3.93

>  <Heavy Atom Count>
31

>  <Ring Count>
4

>  <Hydrogen Bond Acceptor Count>
7

>  <Hydrogen Bond Donor Count>
2

>  <Rotatable Bond Count>
6

>  <Topological Polar Surface Area>
95.06

>  <Molecular Formula>
C22H19Cl2N5O2

>  <InChI>
InChI=1S/C22H19Cl2N5O2/c1-29-20-13(11-16(21(29)30)19-17(23)3-2-4-18(19)24)12-26-22(28-20)27-14-5-7-15(8-6-14)31-10-9-25/h2-8,11-12H,9-10,25H2,1H3,(H,26,27,28)

>  <InChI Key>
MAXZESONWXTISA-UHFFFAOYSA-N

>  <BindingDB>
3091

>  <PubChem>
5327904

>  <ChEMBL>
CHEMBL331366

$$$$
236
Actelion Java MolfileCreator 2.0

  0  0  0  0  0  0              0 V3000
M  V30 BEGIN CTAB
M  V30 COUNTS 31 34 0 0 0
M  V30 BEGIN ATOM
M  V30 1 Cl 12.9903 -11.25 0.0 0
M  V30 2 C 11.6913 -12.0 0.0 0
M  V30 3 C 10.3923 -11.25 0.0 0
M  V30 4 C 11.6913 -13.5 0.0 0
M  V30 5 C 10.3923 -9.75 0.0 0
M  V30 6 C 9.0932 -12.0 0.0 0
M  V30 7 C 10.3923 -14.25 0.0 0
M  V30 8 C 11.6913 -9.0 0.0 0
M  V30 9 C 9.0932 -9.0 0.0 0
M  V30 10 Cl 7.7942 -11.25 0.0 0
M  V30 11 C 9.0932 -13.5 0.0 0
M  V30 12 O 12.9903 -9.75 0.0 0
M  V30 13 N 11.6913 -7.5 0.0 0
M  V30 14 C 9.0932 -7.5 0.0 0
M  V30 15 C 10.3923 -6.75 0.0 0
M  V30 16 C 12.9903 -6.75 0.0 0
M  V30 17 C 7.7942 -6.75 0.0 0
M  V30 18 N 10.3923 -5.25 0.0 0
M  V30 19 N 7.7942 -5.25 0.0 0
M  V30 20 C 9.0932 -4.5 0.0 0
M  V30 21 N 9.0932 -3.0 0.0 0
M  V30 22 C 7.7942 -2.25 0.0 0
M  V30 23 C 7.7942 -0.75 0.0 0
M  V30 24 C 6.4951 -2.9999 0.0 0
M  V30 25 C 6.4951 0.0 0.0 0
M  V30 26 C 5.1961 -2.25 0.0 0
M  V30 27 C 5.1961 -0.75 0.0 0
M  V30 28 O 3.8971 0.0 0.0 0
M  V30 29 C 2.598 -0.75 0.0 0
M  V30 30 C 1.299 0.0 0.0 0
M  V30 31 N 0.0 -0.75 0.0 0
M  V30 END ATOM
M  V30 BEGIN BOND
M  V30 1 1 1 2
M  V30 2 2 2 3
M  V30 3 1 2 4
M  V30 4 1 3 5
M  V30 5 1 3 6
M  V30 6 2 4 7
M  V30 7 1 5 8
M  V30 8 2 5 9
M  V30 9 1 6 10
M  V30 10 2 6 11
M  V30 11 2 8 12
M  V30 12 1 8 13
M  V30 13 1 9 14
M  V30 14 1 13 15
M  V30 15 1 13 16
M  V30 16 1 14 17
M  V30 17 1 15 18
M  V30 18 2 17 19
M  V30 19 2 18 20
M  V30 20 1 20 21
M  V30 21 1 21 22
M  V30 22 2 22 23
M  V30 23 1 22 24
M  V30 24 1 23 25
M  V30 25 2 24 26
M  V30 26 2 25 27
M  V30 27 1 27 28
M  V30 28 1 28 29
M  V30 29 1 29 30
M  V30 30 1 30 31
M  V30 31 1 7 11
M  V30 32 2 14 15
M  V30 33 1 19 20
M  V30 34 1 26 27
M  V30 END BOND
M  V30 END CTAB
M  END
>  <Molecule Name>
Compound 859

>  <Molecule Name 2>
Compound 859

>  <Compound ID>
236

>  <Name>
PP58

>  <Uniprot>
Q9UBE8

>  <Target>
NLK

>  <Smiles>
CN1C(=O)C(C2=C(Cl)C=CC=C2Cl)=CC2=CN=C(NC3=CC=C(OCCN)C=C3)N=C21

>  <Kd (nM)>


>  <Assay (Kd)>


>  <Ki (nM)>


>  <Assay (Ki)>


>  <IC50 (nM)>


>  <Assay (IC50)>


>  <EC50 (nM)>


>  <Assay (EC50)>


>  <Article DOI>
10.1016/j.cell.2020.10.038

>  <Molecular Weight>
456.333

>  <Exact Mass>
455.0915802

>  <XLogP3>
3.93

>  <Heavy Atom Count>
31

>  <Ring Count>
4

>  <Hydrogen Bond Acceptor Count>
7

>  <Hydrogen Bond Donor Count>
2

>  <Rotatable Bond Count>
6

>  <Topological Polar Surface Area>
95.06

>  <Molecular Formula>
C22H19Cl2N5O2

>  <InChI>
InChI=1S/C22H19Cl2N5O2/c1-29-20-13(11-16(21(29)30)19-17(23)3-2-4-18(19)24)12-26-22(28-20)27-14-5-7-15(8-6-14)31-10-9-25/h2-8,11-12H,9-10,25H2,1H3,(H,26,27,28)

>  <InChI Key>
MAXZESONWXTISA-UHFFFAOYSA-N

>  <BindingDB>
3091

>  <PubChem>
5327904

>  <ChEMBL>
CHEMBL331366

$$$$
236
Actelion Java MolfileCreator 2.0

  0  0  0  0  0  0              0 V3000
M  V30 BEGIN CTAB
M  V30 COUNTS 31 34 0 0 0
M  V30 BEGIN ATOM
M  V30 1 Cl 12.9903 -11.25 0.0 0
M  V30 2 C 11.6913 -12.0 0.0 0
M  V30 3 C 10.3923 -11.25 0.0 0
M  V30 4 C 11.6913 -13.5 0.0 0
M  V30 5 C 10.3923 -9.75 0.0 0
M  V30 6 C 9.0932 -12.0 0.0 0
M  V30 7 C 10.3923 -14.25 0.0 0
M  V30 8 C 11.6913 -9.0 0.0 0
M  V30 9 C 9.0932 -9.0 0.0 0
M  V30 10 Cl 7.7942 -11.25 0.0 0
M  V30 11 C 9.0932 -13.5 0.0 0
M  V30 12 O 12.9903 -9.75 0.0 0
M  V30 13 N 11.6913 -7.5 0.0 0
M  V30 14 C 9.0932 -7.5 0.0 0
M  V30 15 C 10.3923 -6.75 0.0 0
M  V30 16 C 12.9903 -6.75 0.0 0
M  V30 17 C 7.7942 -6.75 0.0 0
M  V30 18 N 10.3923 -5.25 0.0 0
M  V30 19 N 7.7942 -5.25 0.0 0
M  V30 20 C 9.0932 -4.5 0.0 0
M  V30 21 N 9.0932 -3.0 0.0 0
M  V30 22 C 7.7942 -2.25 0.0 0
M  V30 23 C 7.7942 -0.75 0.0 0
M  V30 24 C 6.4951 -2.9999 0.0 0
M  V30 25 C 6.4951 0.0 0.0 0
M  V30 26 C 5.1961 -2.25 0.0 0
M  V30 27 C 5.1961 -0.75 0.0 0
M  V30 28 O 3.8971 0.0 0.0 0
M  V30 29 C 2.598 -0.75 0.0 0
M  V30 30 C 1.299 0.0 0.0 0
M  V30 31 N 0.0 -0.75 0.0 0
M  V30 END ATOM
M  V30 BEGIN BOND
M  V30 1 1 1 2
M  V30 2 2 2 3
M  V30 3 1 2 4
M  V30 4 1 3 5
M  V30 5 1 3 6
M  V30 6 2 4 7
M  V30 7 1 5 8
M  V30 8 2 5 9
M  V30 9 1 6 10
M  V30 10 2 6 11
M  V30 11 2 8 12
M  V30 12 1 8 13
M  V30 13 1 9 14
M  V30 14 1 13 15
M  V30 15 1 13 16
M  V30 16 1 14 17
M  V30 17 1 15 18
M  V30 18 2 17 19
M  V30 19 2 18 20
M  V30 20 1 20 21
M  V30 21 1 21 22
M  V30 22 2 22 23
M  V30 23 1 22 24
M  V30 24 1 23 25
M  V30 25 2 24 26
M  V30 26 2 25 27
M  V30 27 1 27 28
M  V30 28 1 28 29
M  V30 29 1 29 30
M  V30 30 1 30 31
M  V30 31 1 7 11
M  V30 32 2 14 15
M  V30 33 1 19 20
M  V30 34 1 26 27
M  V30 END BOND
M  V30 END CTAB
M  END
>  <Molecule Name>
Compound 860

>  <Molecule Name 2>
Compound 860

>  <Compound ID>
236

>  <Name>
PP58

>  <Uniprot>
Q16539

>  <Target>
p38alpha

>  <Smiles>
CN1C(=O)C(C2=C(Cl)C=CC=C2Cl)=CC2=CN=C(NC3=CC=C(OCCN)C=C3)N=C21

>  <Kd (nM)>


>  <Assay (Kd)>


>  <Ki (nM)>


>  <Assay (Ki)>


>  <IC50 (nM)>


>  <Assay (IC50)>


>  <EC50 (nM)>


>  <Assay (EC50)>


>  <Article DOI>
10.1016/j.cell.2020.10.038

>  <Molecular Weight>
456.333

>  <Exact Mass>
455.0915802

>  <XLogP3>
3.93

>  <Heavy Atom Count>
31

>  <Ring Count>
4

>  <Hydrogen Bond Acceptor Count>
7

>  <Hydrogen Bond Donor Count>
2

>  <Rotatable Bond Count>
6

>  <Topological Polar Surface Area>
95.06

>  <Molecular Formula>
C22H19Cl2N5O2

>  <InChI>
InChI=1S/C22H19Cl2N5O2/c1-29-20-13(11-16(21(29)30)19-17(23)3-2-4-18(19)24)12-26-22(28-20)27-14-5-7-15(8-6-14)31-10-9-25/h2-8,11-12H,9-10,25H2,1H3,(H,26,27,28)

>  <InChI Key>
MAXZESONWXTISA-UHFFFAOYSA-N

>  <BindingDB>
3091

>  <PubChem>
5327904

>  <ChEMBL>
CHEMBL331366

$$$$
236
Actelion Java MolfileCreator 2.0

  0  0  0  0  0  0              0 V3000
M  V30 BEGIN CTAB
M  V30 COUNTS 31 34 0 0 0
M  V30 BEGIN ATOM
M  V30 1 Cl 12.9903 -11.25 0.0 0
M  V30 2 C 11.6913 -12.0 0.0 0
M  V30 3 C 10.3923 -11.25 0.0 0
M  V30 4 C 11.6913 -13.5 0.0 0
M  V30 5 C 10.3923 -9.75 0.0 0
M  V30 6 C 9.0932 -12.0 0.0 0
M  V30 7 C 10.3923 -14.25 0.0 0
M  V30 8 C 11.6913 -9.0 0.0 0
M  V30 9 C 9.0932 -9.0 0.0 0
M  V30 10 Cl 7.7942 -11.25 0.0 0
M  V30 11 C 9.0932 -13.5 0.0 0
M  V30 12 O 12.9903 -9.75 0.0 0
M  V30 13 N 11.6913 -7.5 0.0 0
M  V30 14 C 9.0932 -7.5 0.0 0
M  V30 15 C 10.3923 -6.75 0.0 0
M  V30 16 C 12.9903 -6.75 0.0 0
M  V30 17 C 7.7942 -6.75 0.0 0
M  V30 18 N 10.3923 -5.25 0.0 0
M  V30 19 N 7.7942 -5.25 0.0 0
M  V30 20 C 9.0932 -4.5 0.0 0
M  V30 21 N 9.0932 -3.0 0.0 0
M  V30 22 C 7.7942 -2.25 0.0 0
M  V30 23 C 7.7942 -0.75 0.0 0
M  V30 24 C 6.4951 -2.9999 0.0 0
M  V30 25 C 6.4951 0.0 0.0 0
M  V30 26 C 5.1961 -2.25 0.0 0
M  V30 27 C 5.1961 -0.75 0.0 0
M  V30 28 O 3.8971 0.0 0.0 0
M  V30 29 C 2.598 -0.75 0.0 0
M  V30 30 C 1.299 0.0 0.0 0
M  V30 31 N 0.0 -0.75 0.0 0
M  V30 END ATOM
M  V30 BEGIN BOND
M  V30 1 1 1 2
M  V30 2 2 2 3
M  V30 3 1 2 4
M  V30 4 1 3 5
M  V30 5 1 3 6
M  V30 6 2 4 7
M  V30 7 1 5 8
M  V30 8 2 5 9
M  V30 9 1 6 10
M  V30 10 2 6 11
M  V30 11 2 8 12
M  V30 12 1 8 13
M  V30 13 1 9 14
M  V30 14 1 13 15
M  V30 15 1 13 16
M  V30 16 1 14 17
M  V30 17 1 15 18
M  V30 18 2 17 19
M  V30 19 2 18 20
M  V30 20 1 20 21
M  V30 21 1 21 22
M  V30 22 2 22 23
M  V30 23 1 22 24
M  V30 24 1 23 25
M  V30 25 2 24 26
M  V30 26 2 25 27
M  V30 27 1 27 28
M  V30 28 1 28 29
M  V30 29 1 29 30
M  V30 30 1 30 31
M  V30 31 1 7 11
M  V30 32 2 14 15
M  V30 33 1 19 20
M  V30 34 1 26 27
M  V30 END BOND
M  V30 END CTAB
M  END
>  <Molecule Name>
Compound 861

>  <Molecule Name 2>
Compound 861

>  <Compound ID>
236

>  <Name>
PP58

>  <Uniprot>
Q15118

>  <Target>
PDK1

>  <Smiles>
CN1C(=O)C(C2=C(Cl)C=CC=C2Cl)=CC2=CN=C(NC3=CC=C(OCCN)C=C3)N=C21

>  <Kd (nM)>


>  <Assay (Kd)>


>  <Ki (nM)>


>  <Assay (Ki)>


>  <IC50 (nM)>


>  <Assay (IC50)>


>  <EC50 (nM)>


>  <Assay (EC50)>


>  <Article DOI>
10.1016/j.cell.2020.10.038

>  <Molecular Weight>
456.333

>  <Exact Mass>
455.0915802

>  <XLogP3>
3.93

>  <Heavy Atom Count>
31

>  <Ring Count>
4

>  <Hydrogen Bond Acceptor Count>
7

>  <Hydrogen Bond Donor Count>
2

>  <Rotatable Bond Count>
6

>  <Topological Polar Surface Area>
95.06

>  <Molecular Formula>
C22H19Cl2N5O2

>  <InChI>
InChI=1S/C22H19Cl2N5O2/c1-29-20-13(11-16(21(29)30)19-17(23)3-2-4-18(19)24)12-26-22(28-20)27-14-5-7-15(8-6-14)31-10-9-25/h2-8,11-12H,9-10,25H2,1H3,(H,26,27,28)

>  <InChI Key>
MAXZESONWXTISA-UHFFFAOYSA-N

>  <BindingDB>
3091

>  <PubChem>
5327904

>  <ChEMBL>
CHEMBL331366

$$$$
236
Actelion Java MolfileCreator 2.0

  0  0  0  0  0  0              0 V3000
M  V30 BEGIN CTAB
M  V30 COUNTS 31 34 0 0 0
M  V30 BEGIN ATOM
M  V30 1 Cl 12.9903 -11.25 0.0 0
M  V30 2 C 11.6913 -12.0 0.0 0
M  V30 3 C 10.3923 -11.25 0.0 0
M  V30 4 C 11.6913 -13.5 0.0 0
M  V30 5 C 10.3923 -9.75 0.0 0
M  V30 6 C 9.0932 -12.0 0.0 0
M  V30 7 C 10.3923 -14.25 0.0 0
M  V30 8 C 11.6913 -9.0 0.0 0
M  V30 9 C 9.0932 -9.0 0.0 0
M  V30 10 Cl 7.7942 -11.25 0.0 0
M  V30 11 C 9.0932 -13.5 0.0 0
M  V30 12 O 12.9903 -9.75 0.0 0
M  V30 13 N 11.6913 -7.5 0.0 0
M  V30 14 C 9.0932 -7.5 0.0 0
M  V30 15 C 10.3923 -6.75 0.0 0
M  V30 16 C 12.9903 -6.75 0.0 0
M  V30 17 C 7.7942 -6.75 0.0 0
M  V30 18 N 10.3923 -5.25 0.0 0
M  V30 19 N 7.7942 -5.25 0.0 0
M  V30 20 C 9.0932 -4.5 0.0 0
M  V30 21 N 9.0932 -3.0 0.0 0
M  V30 22 C 7.7942 -2.25 0.0 0
M  V30 23 C 7.7942 -0.75 0.0 0
M  V30 24 C 6.4951 -2.9999 0.0 0
M  V30 25 C 6.4951 0.0 0.0 0
M  V30 26 C 5.1961 -2.25 0.0 0
M  V30 27 C 5.1961 -0.75 0.0 0
M  V30 28 O 3.8971 0.0 0.0 0
M  V30 29 C 2.598 -0.75 0.0 0
M  V30 30 C 1.299 0.0 0.0 0
M  V30 31 N 0.0 -0.75 0.0 0
M  V30 END ATOM
M  V30 BEGIN BOND
M  V30 1 1 1 2
M  V30 2 2 2 3
M  V30 3 1 2 4
M  V30 4 1 3 5
M  V30 5 1 3 6
M  V30 6 2 4 7
M  V30 7 1 5 8
M  V30 8 2 5 9
M  V30 9 1 6 10
M  V30 10 2 6 11
M  V30 11 2 8 12
M  V30 12 1 8 13
M  V30 13 1 9 14
M  V30 14 1 13 15
M  V30 15 1 13 16
M  V30 16 1 14 17
M  V30 17 1 15 18
M  V30 18 2 17 19
M  V30 19 2 18 20
M  V30 20 1 20 21
M  V30 21 1 21 22
M  V30 22 2 22 23
M  V30 23 1 22 24
M  V30 24 1 23 25
M  V30 25 2 24 26
M  V30 26 2 25 27
M  V30 27 1 27 28
M  V30 28 1 28 29
M  V30 29 1 29 30
M  V30 30 1 30 31
M  V30 31 1 7 11
M  V30 32 2 14 15
M  V30 33 1 19 20
M  V30 34 1 26 27
M  V30 END BOND
M  V30 END CTAB
M  END
>  <Molecule Name>
Compound 862

>  <Molecule Name 2>
Compound 862

>  <Compound ID>
236

>  <Name>
PP58

>  <Uniprot>
Q99640

>  <Target>
PKMYT1

>  <Smiles>
CN1C(=O)C(C2=C(Cl)C=CC=C2Cl)=CC2=CN=C(NC3=CC=C(OCCN)C=C3)N=C21

>  <Kd (nM)>


>  <Assay (Kd)>


>  <Ki (nM)>


>  <Assay (Ki)>


>  <IC50 (nM)>


>  <Assay (IC50)>


>  <EC50 (nM)>


>  <Assay (EC50)>


>  <Article DOI>
10.1016/j.cell.2020.10.038

>  <Molecular Weight>
456.333

>  <Exact Mass>
455.0915802

>  <XLogP3>
3.93

>  <Heavy Atom Count>
31

>  <Ring Count>
4

>  <Hydrogen Bond Acceptor Count>
7

>  <Hydrogen Bond Donor Count>
2

>  <Rotatable Bond Count>
6

>  <Topological Polar Surface Area>
95.06

>  <Molecular Formula>
C22H19Cl2N5O2

>  <InChI>
InChI=1S/C22H19Cl2N5O2/c1-29-20-13(11-16(21(29)30)19-17(23)3-2-4-18(19)24)12-26-22(28-20)27-14-5-7-15(8-6-14)31-10-9-25/h2-8,11-12H,9-10,25H2,1H3,(H,26,27,28)

>  <InChI Key>
MAXZESONWXTISA-UHFFFAOYSA-N

>  <BindingDB>
3091

>  <PubChem>
5327904

>  <ChEMBL>
CHEMBL331366

$$$$
236
Actelion Java MolfileCreator 2.0

  0  0  0  0  0  0              0 V3000
M  V30 BEGIN CTAB
M  V30 COUNTS 31 34 0 0 0
M  V30 BEGIN ATOM
M  V30 1 Cl 12.9903 -11.25 0.0 0
M  V30 2 C 11.6913 -12.0 0.0 0
M  V30 3 C 10.3923 -11.25 0.0 0
M  V30 4 C 11.6913 -13.5 0.0 0
M  V30 5 C 10.3923 -9.75 0.0 0
M  V30 6 C 9.0932 -12.0 0.0 0
M  V30 7 C 10.3923 -14.25 0.0 0
M  V30 8 C 11.6913 -9.0 0.0 0
M  V30 9 C 9.0932 -9.0 0.0 0
M  V30 10 Cl 7.7942 -11.25 0.0 0
M  V30 11 C 9.0932 -13.5 0.0 0
M  V30 12 O 12.9903 -9.75 0.0 0
M  V30 13 N 11.6913 -7.5 0.0 0
M  V30 14 C 9.0932 -7.5 0.0 0
M  V30 15 C 10.3923 -6.75 0.0 0
M  V30 16 C 12.9903 -6.75 0.0 0
M  V30 17 C 7.7942 -6.75 0.0 0
M  V30 18 N 10.3923 -5.25 0.0 0
M  V30 19 N 7.7942 -5.25 0.0 0
M  V30 20 C 9.0932 -4.5 0.0 0
M  V30 21 N 9.0932 -3.0 0.0 0
M  V30 22 C 7.7942 -2.25 0.0 0
M  V30 23 C 7.7942 -0.75 0.0 0
M  V30 24 C 6.4951 -2.9999 0.0 0
M  V30 25 C 6.4951 0.0 0.0 0
M  V30 26 C 5.1961 -2.25 0.0 0
M  V30 27 C 5.1961 -0.75 0.0 0
M  V30 28 O 3.8971 0.0 0.0 0
M  V30 29 C 2.598 -0.75 0.0 0
M  V30 30 C 1.299 0.0 0.0 0
M  V30 31 N 0.0 -0.75 0.0 0
M  V30 END ATOM
M  V30 BEGIN BOND
M  V30 1 1 1 2
M  V30 2 2 2 3
M  V30 3 1 2 4
M  V30 4 1 3 5
M  V30 5 1 3 6
M  V30 6 2 4 7
M  V30 7 1 5 8
M  V30 8 2 5 9
M  V30 9 1 6 10
M  V30 10 2 6 11
M  V30 11 2 8 12
M  V30 12 1 8 13
M  V30 13 1 9 14
M  V30 14 1 13 15
M  V30 15 1 13 16
M  V30 16 1 14 17
M  V30 17 1 15 18
M  V30 18 2 17 19
M  V30 19 2 18 20
M  V30 20 1 20 21
M  V30 21 1 21 22
M  V30 22 2 22 23
M  V30 23 1 22 24
M  V30 24 1 23 25
M  V30 25 2 24 26
M  V30 26 2 25 27
M  V30 27 1 27 28
M  V30 28 1 28 29
M  V30 29 1 29 30
M  V30 30 1 30 31
M  V30 31 1 7 11
M  V30 32 2 14 15
M  V30 33 1 19 20
M  V30 34 1 26 27
M  V30 END BOND
M  V30 END CTAB
M  END
>  <Molecule Name>
Compound 863

>  <Molecule Name 2>
Compound 863

>  <Compound ID>
236

>  <Name>
PP58

>  <Uniprot>
Q9H0K1

>  <Target>
SIK2

>  <Smiles>
CN1C(=O)C(C2=C(Cl)C=CC=C2Cl)=CC2=CN=C(NC3=CC=C(OCCN)C=C3)N=C21

>  <Kd (nM)>


>  <Assay (Kd)>


>  <Ki (nM)>


>  <Assay (Ki)>


>  <IC50 (nM)>


>  <Assay (IC50)>


>  <EC50 (nM)>


>  <Assay (EC50)>


>  <Article DOI>
10.1016/j.cell.2020.10.038

>  <Molecular Weight>
456.333

>  <Exact Mass>
455.0915802

>  <XLogP3>
3.93

>  <Heavy Atom Count>
31

>  <Ring Count>
4

>  <Hydrogen Bond Acceptor Count>
7

>  <Hydrogen Bond Donor Count>
2

>  <Rotatable Bond Count>
6

>  <Topological Polar Surface Area>
95.06

>  <Molecular Formula>
C22H19Cl2N5O2

>  <InChI>
InChI=1S/C22H19Cl2N5O2/c1-29-20-13(11-16(21(29)30)19-17(23)3-2-4-18(19)24)12-26-22(28-20)27-14-5-7-15(8-6-14)31-10-9-25/h2-8,11-12H,9-10,25H2,1H3,(H,26,27,28)

>  <InChI Key>
MAXZESONWXTISA-UHFFFAOYSA-N

>  <BindingDB>
3091

>  <PubChem>
5327904

>  <ChEMBL>
CHEMBL331366

$$$$
236
Actelion Java MolfileCreator 2.0

  0  0  0  0  0  0              0 V3000
M  V30 BEGIN CTAB
M  V30 COUNTS 31 34 0 0 0
M  V30 BEGIN ATOM
M  V30 1 Cl 12.9903 -11.25 0.0 0
M  V30 2 C 11.6913 -12.0 0.0 0
M  V30 3 C 10.3923 -11.25 0.0 0
M  V30 4 C 11.6913 -13.5 0.0 0
M  V30 5 C 10.3923 -9.75 0.0 0
M  V30 6 C 9.0932 -12.0 0.0 0
M  V30 7 C 10.3923 -14.25 0.0 0
M  V30 8 C 11.6913 -9.0 0.0 0
M  V30 9 C 9.0932 -9.0 0.0 0
M  V30 10 Cl 7.7942 -11.25 0.0 0
M  V30 11 C 9.0932 -13.5 0.0 0
M  V30 12 O 12.9903 -9.75 0.0 0
M  V30 13 N 11.6913 -7.5 0.0 0
M  V30 14 C 9.0932 -7.5 0.0 0
M  V30 15 C 10.3923 -6.75 0.0 0
M  V30 16 C 12.9903 -6.75 0.0 0
M  V30 17 C 7.7942 -6.75 0.0 0
M  V30 18 N 10.3923 -5.25 0.0 0
M  V30 19 N 7.7942 -5.25 0.0 0
M  V30 20 C 9.0932 -4.5 0.0 0
M  V30 21 N 9.0932 -3.0 0.0 0
M  V30 22 C 7.7942 -2.25 0.0 0
M  V30 23 C 7.7942 -0.75 0.0 0
M  V30 24 C 6.4951 -2.9999 0.0 0
M  V30 25 C 6.4951 0.0 0.0 0
M  V30 26 C 5.1961 -2.25 0.0 0
M  V30 27 C 5.1961 -0.75 0.0 0
M  V30 28 O 3.8971 0.0 0.0 0
M  V30 29 C 2.598 -0.75 0.0 0
M  V30 30 C 1.299 0.0 0.0 0
M  V30 31 N 0.0 -0.75 0.0 0
M  V30 END ATOM
M  V30 BEGIN BOND
M  V30 1 1 1 2
M  V30 2 2 2 3
M  V30 3 1 2 4
M  V30 4 1 3 5
M  V30 5 1 3 6
M  V30 6 2 4 7
M  V30 7 1 5 8
M  V30 8 2 5 9
M  V30 9 1 6 10
M  V30 10 2 6 11
M  V30 11 2 8 12
M  V30 12 1 8 13
M  V30 13 1 9 14
M  V30 14 1 13 15
M  V30 15 1 13 16
M  V30 16 1 14 17
M  V30 17 1 15 18
M  V30 18 2 17 19
M  V30 19 2 18 20
M  V30 20 1 20 21
M  V30 21 1 21 22
M  V30 22 2 22 23
M  V30 23 1 22 24
M  V30 24 1 23 25
M  V30 25 2 24 26
M  V30 26 2 25 27
M  V30 27 1 27 28
M  V30 28 1 28 29
M  V30 29 1 29 30
M  V30 30 1 30 31
M  V30 31 1 7 11
M  V30 32 2 14 15
M  V30 33 1 19 20
M  V30 34 1 26 27
M  V30 END BOND
M  V30 END CTAB
M  END
>  <Molecule Name>
Compound 864

>  <Molecule Name 2>
Compound 864

>  <Compound ID>
236

>  <Name>
PP58

>  <Uniprot>
P12931

>  <Target>
Src

>  <Smiles>
CN1C(=O)C(C2=C(Cl)C=CC=C2Cl)=CC2=CN=C(NC3=CC=C(OCCN)C=C3)N=C21

>  <Kd (nM)>


>  <Assay (Kd)>


>  <Ki (nM)>


>  <Assay (Ki)>


>  <IC50 (nM)>
13

>  <Assay (IC50)>
Inhibition of Src

>  <EC50 (nM)>


>  <Assay (EC50)>


>  <Article DOI>
10.1021/jm9802259

>  <Molecular Weight>
456.333

>  <Exact Mass>
455.0915802

>  <XLogP3>
3.93

>  <Heavy Atom Count>
31

>  <Ring Count>
4

>  <Hydrogen Bond Acceptor Count>
7

>  <Hydrogen Bond Donor Count>
2

>  <Rotatable Bond Count>
6

>  <Topological Polar Surface Area>
95.06

>  <Molecular Formula>
C22H19Cl2N5O2

>  <InChI>
InChI=1S/C22H19Cl2N5O2/c1-29-20-13(11-16(21(29)30)19-17(23)3-2-4-18(19)24)12-26-22(28-20)27-14-5-7-15(8-6-14)31-10-9-25/h2-8,11-12H,9-10,25H2,1H3,(H,26,27,28)

>  <InChI Key>
MAXZESONWXTISA-UHFFFAOYSA-N

>  <BindingDB>
3091

>  <PubChem>
5327904

>  <ChEMBL>
CHEMBL331366

$$$$
236
Actelion Java MolfileCreator 2.0

  0  0  0  0  0  0              0 V3000
M  V30 BEGIN CTAB
M  V30 COUNTS 31 34 0 0 0
M  V30 BEGIN ATOM
M  V30 1 Cl 12.9903 -11.25 0.0 0
M  V30 2 C 11.6913 -12.0 0.0 0
M  V30 3 C 10.3923 -11.25 0.0 0
M  V30 4 C 11.6913 -13.5 0.0 0
M  V30 5 C 10.3923 -9.75 0.0 0
M  V30 6 C 9.0932 -12.0 0.0 0
M  V30 7 C 10.3923 -14.25 0.0 0
M  V30 8 C 11.6913 -9.0 0.0 0
M  V30 9 C 9.0932 -9.0 0.0 0
M  V30 10 Cl 7.7942 -11.25 0.0 0
M  V30 11 C 9.0932 -13.5 0.0 0
M  V30 12 O 12.9903 -9.75 0.0 0
M  V30 13 N 11.6913 -7.5 0.0 0
M  V30 14 C 9.0932 -7.5 0.0 0
M  V30 15 C 10.3923 -6.75 0.0 0
M  V30 16 C 12.9903 -6.75 0.0 0
M  V30 17 C 7.7942 -6.75 0.0 0
M  V30 18 N 10.3923 -5.25 0.0 0
M  V30 19 N 7.7942 -5.25 0.0 0
M  V30 20 C 9.0932 -4.5 0.0 0
M  V30 21 N 9.0932 -3.0 0.0 0
M  V30 22 C 7.7942 -2.25 0.0 0
M  V30 23 C 7.7942 -0.75 0.0 0
M  V30 24 C 6.4951 -2.9999 0.0 0
M  V30 25 C 6.4951 0.0 0.0 0
M  V30 26 C 5.1961 -2.25 0.0 0
M  V30 27 C 5.1961 -0.75 0.0 0
M  V30 28 O 3.8971 0.0 0.0 0
M  V30 29 C 2.598 -0.75 0.0 0
M  V30 30 C 1.299 0.0 0.0 0
M  V30 31 N 0.0 -0.75 0.0 0
M  V30 END ATOM
M  V30 BEGIN BOND
M  V30 1 1 1 2
M  V30 2 2 2 3
M  V30 3 1 2 4
M  V30 4 1 3 5
M  V30 5 1 3 6
M  V30 6 2 4 7
M  V30 7 1 5 8
M  V30 8 2 5 9
M  V30 9 1 6 10
M  V30 10 2 6 11
M  V30 11 2 8 12
M  V30 12 1 8 13
M  V30 13 1 9 14
M  V30 14 1 13 15
M  V30 15 1 13 16
M  V30 16 1 14 17
M  V30 17 1 15 18
M  V30 18 2 17 19
M  V30 19 2 18 20
M  V30 20 1 20 21
M  V30 21 1 21 22
M  V30 22 2 22 23
M  V30 23 1 22 24
M  V30 24 1 23 25
M  V30 25 2 24 26
M  V30 26 2 25 27
M  V30 27 1 27 28
M  V30 28 1 28 29
M  V30 29 1 29 30
M  V30 30 1 30 31
M  V30 31 1 7 11
M  V30 32 2 14 15
M  V30 33 1 19 20
M  V30 34 1 26 27
M  V30 END BOND
M  V30 END CTAB
M  END
>  <Molecule Name>
Compound 865

>  <Molecule Name 2>
Compound 865

>  <Compound ID>
236

>  <Name>
PP58

>  <Uniprot>
Q07912

>  <Target>
TNK2

>  <Smiles>
CN1C(=O)C(C2=C(Cl)C=CC=C2Cl)=CC2=CN=C(NC3=CC=C(OCCN)C=C3)N=C21

>  <Kd (nM)>


>  <Assay (Kd)>


>  <Ki (nM)>


>  <Assay (Ki)>


>  <IC50 (nM)>


>  <Assay (IC50)>


>  <EC50 (nM)>


>  <Assay (EC50)>


>  <Article DOI>
10.1016/j.cell.2020.10.038

>  <Molecular Weight>
456.333

>  <Exact Mass>
455.0915802

>  <XLogP3>
3.93

>  <Heavy Atom Count>
31

>  <Ring Count>
4

>  <Hydrogen Bond Acceptor Count>
7

>  <Hydrogen Bond Donor Count>
2

>  <Rotatable Bond Count>
6

>  <Topological Polar Surface Area>
95.06

>  <Molecular Formula>
C22H19Cl2N5O2

>  <InChI>
InChI=1S/C22H19Cl2N5O2/c1-29-20-13(11-16(21(29)30)19-17(23)3-2-4-18(19)24)12-26-22(28-20)27-14-5-7-15(8-6-14)31-10-9-25/h2-8,11-12H,9-10,25H2,1H3,(H,26,27,28)

>  <InChI Key>
MAXZESONWXTISA-UHFFFAOYSA-N

>  <BindingDB>
3091

>  <PubChem>
5327904

>  <ChEMBL>
CHEMBL331366

$$$$
236
Actelion Java MolfileCreator 2.0

  0  0  0  0  0  0              0 V3000
M  V30 BEGIN CTAB
M  V30 COUNTS 31 34 0 0 0
M  V30 BEGIN ATOM
M  V30 1 Cl 12.9903 -11.25 0.0 0
M  V30 2 C 11.6913 -12.0 0.0 0
M  V30 3 C 10.3923 -11.25 0.0 0
M  V30 4 C 11.6913 -13.5 0.0 0
M  V30 5 C 10.3923 -9.75 0.0 0
M  V30 6 C 9.0932 -12.0 0.0 0
M  V30 7 C 10.3923 -14.25 0.0 0
M  V30 8 C 11.6913 -9.0 0.0 0
M  V30 9 C 9.0932 -9.0 0.0 0
M  V30 10 Cl 7.7942 -11.25 0.0 0
M  V30 11 C 9.0932 -13.5 0.0 0
M  V30 12 O 12.9903 -9.75 0.0 0
M  V30 13 N 11.6913 -7.5 0.0 0
M  V30 14 C 9.0932 -7.5 0.0 0
M  V30 15 C 10.3923 -6.75 0.0 0
M  V30 16 C 12.9903 -6.75 0.0 0
M  V30 17 C 7.7942 -6.75 0.0 0
M  V30 18 N 10.3923 -5.25 0.0 0
M  V30 19 N 7.7942 -5.25 0.0 0
M  V30 20 C 9.0932 -4.5 0.0 0
M  V30 21 N 9.0932 -3.0 0.0 0
M  V30 22 C 7.7942 -2.25 0.0 0
M  V30 23 C 7.7942 -0.75 0.0 0
M  V30 24 C 6.4951 -2.9999 0.0 0
M  V30 25 C 6.4951 0.0 0.0 0
M  V30 26 C 5.1961 -2.25 0.0 0
M  V30 27 C 5.1961 -0.75 0.0 0
M  V30 28 O 3.8971 0.0 0.0 0
M  V30 29 C 2.598 -0.75 0.0 0
M  V30 30 C 1.299 0.0 0.0 0
M  V30 31 N 0.0 -0.75 0.0 0
M  V30 END ATOM
M  V30 BEGIN BOND
M  V30 1 1 1 2
M  V30 2 2 2 3
M  V30 3 1 2 4
M  V30 4 1 3 5
M  V30 5 1 3 6
M  V30 6 2 4 7
M  V30 7 1 5 8
M  V30 8 2 5 9
M  V30 9 1 6 10
M  V30 10 2 6 11
M  V30 11 2 8 12
M  V30 12 1 8 13
M  V30 13 1 9 14
M  V30 14 1 13 15
M  V30 15 1 13 16
M  V30 16 1 14 17
M  V30 17 1 15 18
M  V30 18 2 17 19
M  V30 19 2 18 20
M  V30 20 1 20 21
M  V30 21 1 21 22
M  V30 22 2 22 23
M  V30 23 1 22 24
M  V30 24 1 23 25
M  V30 25 2 24 26
M  V30 26 2 25 27
M  V30 27 1 27 28
M  V30 28 1 28 29
M  V30 29 1 29 30
M  V30 30 1 30 31
M  V30 31 1 7 11
M  V30 32 2 14 15
M  V30 33 1 19 20
M  V30 34 1 26 27
M  V30 END BOND
M  V30 END CTAB
M  END
>  <Molecule Name>
Compound 866

>  <Molecule Name 2>
Compound 866

>  <Compound ID>
236

>  <Name>
PP58

>  <Uniprot>
P30291

>  <Target>
Wee1

>  <Smiles>
CN1C(=O)C(C2=C(Cl)C=CC=C2Cl)=CC2=CN=C(NC3=CC=C(OCCN)C=C3)N=C21

>  <Kd (nM)>


>  <Assay (Kd)>


>  <Ki (nM)>


>  <Assay (Ki)>


>  <IC50 (nM)>


>  <Assay (IC50)>


>  <EC50 (nM)>


>  <Assay (EC50)>


>  <Article DOI>
10.1016/j.cell.2020.10.038

>  <Molecular Weight>
456.333

>  <Exact Mass>
455.0915802

>  <XLogP3>
3.93

>  <Heavy Atom Count>
31

>  <Ring Count>
4

>  <Hydrogen Bond Acceptor Count>
7

>  <Hydrogen Bond Donor Count>
2

>  <Rotatable Bond Count>
6

>  <Topological Polar Surface Area>
95.06

>  <Molecular Formula>
C22H19Cl2N5O2

>  <InChI>
InChI=1S/C22H19Cl2N5O2/c1-29-20-13(11-16(21(29)30)19-17(23)3-2-4-18(19)24)12-26-22(28-20)27-14-5-7-15(8-6-14)31-10-9-25/h2-8,11-12H,9-10,25H2,1H3,(H,26,27,28)

>  <InChI Key>
MAXZESONWXTISA-UHFFFAOYSA-N

>  <BindingDB>
3091

>  <PubChem>
5327904

>  <ChEMBL>
CHEMBL331366

$$$$
236
Actelion Java MolfileCreator 2.0

  0  0  0  0  0  0              0 V3000
M  V30 BEGIN CTAB
M  V30 COUNTS 31 34 0 0 0
M  V30 BEGIN ATOM
M  V30 1 Cl 12.9903 -11.25 0.0 0
M  V30 2 C 11.6913 -12.0 0.0 0
M  V30 3 C 10.3923 -11.25 0.0 0
M  V30 4 C 11.6913 -13.5 0.0 0
M  V30 5 C 10.3923 -9.75 0.0 0
M  V30 6 C 9.0932 -12.0 0.0 0
M  V30 7 C 10.3923 -14.25 0.0 0
M  V30 8 C 11.6913 -9.0 0.0 0
M  V30 9 C 9.0932 -9.0 0.0 0
M  V30 10 Cl 7.7942 -11.25 0.0 0
M  V30 11 C 9.0932 -13.5 0.0 0
M  V30 12 O 12.9903 -9.75 0.0 0
M  V30 13 N 11.6913 -7.5 0.0 0
M  V30 14 C 9.0932 -7.5 0.0 0
M  V30 15 C 10.3923 -6.75 0.0 0
M  V30 16 C 12.9903 -6.75 0.0 0
M  V30 17 C 7.7942 -6.75 0.0 0
M  V30 18 N 10.3923 -5.25 0.0 0
M  V30 19 N 7.7942 -5.25 0.0 0
M  V30 20 C 9.0932 -4.5 0.0 0
M  V30 21 N 9.0932 -3.0 0.0 0
M  V30 22 C 7.7942 -2.25 0.0 0
M  V30 23 C 7.7942 -0.75 0.0 0
M  V30 24 C 6.4951 -2.9999 0.0 0
M  V30 25 C 6.4951 0.0 0.0 0
M  V30 26 C 5.1961 -2.25 0.0 0
M  V30 27 C 5.1961 -0.75 0.0 0
M  V30 28 O 3.8971 0.0 0.0 0
M  V30 29 C 2.598 -0.75 0.0 0
M  V30 30 C 1.299 0.0 0.0 0
M  V30 31 N 0.0 -0.75 0.0 0
M  V30 END ATOM
M  V30 BEGIN BOND
M  V30 1 1 1 2
M  V30 2 2 2 3
M  V30 3 1 2 4
M  V30 4 1 3 5
M  V30 5 1 3 6
M  V30 6 2 4 7
M  V30 7 1 5 8
M  V30 8 2 5 9
M  V30 9 1 6 10
M  V30 10 2 6 11
M  V30 11 2 8 12
M  V30 12 1 8 13
M  V30 13 1 9 14
M  V30 14 1 13 15
M  V30 15 1 13 16
M  V30 16 1 14 17
M  V30 17 1 15 18
M  V30 18 2 17 19
M  V30 19 2 18 20
M  V30 20 1 20 21
M  V30 21 1 21 22
M  V30 22 2 22 23
M  V30 23 1 22 24
M  V30 24 1 23 25
M  V30 25 2 24 26
M  V30 26 2 25 27
M  V30 27 1 27 28
M  V30 28 1 28 29
M  V30 29 1 29 30
M  V30 30 1 30 31
M  V30 31 1 7 11
M  V30 32 2 14 15
M  V30 33 1 19 20
M  V30 34 1 26 27
M  V30 END BOND
M  V30 END CTAB
M  END
>  <Molecule Name>
Compound 867

>  <Molecule Name 2>
Compound 867

>  <Compound ID>
236

>  <Name>
PP58

>  <Uniprot>
P07947

>  <Target>
YES1

>  <Smiles>
CN1C(=O)C(C2=C(Cl)C=CC=C2Cl)=CC2=CN=C(NC3=CC=C(OCCN)C=C3)N=C21

>  <Kd (nM)>


>  <Assay (Kd)>


>  <Ki (nM)>


>  <Assay (Ki)>


>  <IC50 (nM)>


>  <Assay (IC50)>


>  <EC50 (nM)>


>  <Assay (EC50)>


>  <Article DOI>
10.1016/j.cell.2020.10.038

>  <Molecular Weight>
456.333

>  <Exact Mass>
455.0915802

>  <XLogP3>
3.93

>  <Heavy Atom Count>
31

>  <Ring Count>
4

>  <Hydrogen Bond Acceptor Count>
7

>  <Hydrogen Bond Donor Count>
2

>  <Rotatable Bond Count>
6

>  <Topological Polar Surface Area>
95.06

>  <Molecular Formula>
C22H19Cl2N5O2

>  <InChI>
InChI=1S/C22H19Cl2N5O2/c1-29-20-13(11-16(21(29)30)19-17(23)3-2-4-18(19)24)12-26-22(28-20)27-14-5-7-15(8-6-14)31-10-9-25/h2-8,11-12H,9-10,25H2,1H3,(H,26,27,28)

>  <InChI Key>
MAXZESONWXTISA-UHFFFAOYSA-N

>  <BindingDB>
3091

>  <PubChem>
5327904

>  <ChEMBL>
CHEMBL331366

$$$$
237
Actelion Java MolfileCreator 2.0

  0  0  0  0  0  0              0 V3000
M  V30 BEGIN CTAB
M  V30 COUNTS 36 39 0 0 0
M  V30 BEGIN ATOM
M  V30 1 F 0.5 1.6339 0.0 0
M  V30 2 C 0.0 2.4999 0.0 0
M  V30 3 F -0.866 1.9999 0.0 0
M  V30 4 F -0.5 3.366 0.0 0
M  V30 5 C 0.866 2.9999 0.0 0
M  V30 6 C 1.732 2.5 0.0 0
M  V30 7 C 0.866 3.9999 0.0 0
M  V30 8 N 1.732 1.4999 0.0 0
M  V30 9 C 2.598 3.0 0.0 0
M  V30 10 N 1.732 4.5 0.0 0
M  V30 11 C 2.598 1.0 0.0 0
M  V30 12 C 2.598 4.0 0.0 0
M  V30 13 C 2.598 0.0 0.0 0
M  V30 14 C 3.4641 1.4999 0.0 0
M  V30 15 N 3.4641 4.5 0.0 0
M  V30 16 C 1.732 -0.5 0.0 0
M  V30 17 C 3.4641 -0.5 0.0 0
M  V30 18 C 4.3301 1.0 0.0 0
M  V30 19 C 3.4641 5.5 0.0 0
M  V30 20 O 1.732 -1.5 0.0 0
M  V30 21 N 0.866 0.0 0.0 0
M  V30 22 C 4.3301 0.0 0.0 0
M  V30 23 C 4.3301 6.0 0.0 0
M  V30 24 C 2.598 6.0 0.0 0
M  V30 25 C 0.0 -0.5 0.0 0
M  V30 26 O 5.1961 5.5 0.0 0
M  V30 27 C 4.3301 7.0 0.0 0
M  V30 28 C 2.598 7.0 0.0 0
M  V30 29 C 6.0621 6.0 0.0 0
M  V30 30 C 3.4641 7.5 0.0 0
M  V30 31 N 3.4641 8.5 0.0 0
M  V30 32 C 4.3301 9.0 0.0 0
M  V30 33 C 2.598 9.0 0.0 0
M  V30 34 C 4.3301 10.0 0.0 0
M  V30 35 C 2.598 10.0 0.0 0
M  V30 36 O 3.4641 10.5 0.0 0
M  V30 END ATOM
M  V30 BEGIN BOND
M  V30 1 1 1 2
M  V30 2 1 2 3
M  V30 3 1 2 4
M  V30 4 1 2 5
M  V30 5 2 5 6
M  V30 6 1 5 7
M  V30 7 1 6 8
M  V30 8 1 6 9
M  V30 9 2 7 10
M  V30 10 1 8 11
M  V30 11 2 9 12
M  V30 12 2 11 13
M  V30 13 1 11 14
M  V30 14 1 12 15
M  V30 15 1 13 16
M  V30 16 1 13 17
M  V30 17 2 14 18
M  V30 18 1 15 19
M  V30 19 2 16 20
M  V30 20 1 16 21
M  V30 21 2 17 22
M  V30 22 2 19 23
M  V30 23 1 19 24
M  V30 24 1 21 25
M  V30 25 1 23 26
M  V30 26 1 23 27
M  V30 27 2 24 28
M  V30 28 1 26 29
M  V30 29 2 27 30
M  V30 30 1 30 31
M  V30 31 1 31 32
M  V30 32 1 31 33
M  V30 33 1 32 34
M  V30 34 1 33 35
M  V30 35 1 34 36
M  V30 36 1 10 12
M  V30 37 1 18 22
M  V30 38 1 28 30
M  V30 39 1 35 36
M  V30 END BOND
M  V30 END CTAB
M  END
>  <Molecule Name>
Compound 868

>  <Molecule Name 2>
Compound 868

>  <Compound ID>
237

>  <Name>
PND-1186

>  <Uniprot>
O14965

>  <Target>
AURKA

>  <Smiles>
CNC(=O)C1=CC=CC=C1NC1=CC(NC2=CC=C(N3CCOCC3)C=C2OC)=NC=C1C(F)(F)F

>  <Kd (nM)>


>  <Assay (Kd)>


>  <Ki (nM)>


>  <Assay (Ki)>


>  <IC50 (nM)>


>  <Assay (IC50)>


>  <EC50 (nM)>


>  <Assay (EC50)>


>  <Article DOI>
10.1016/j.cell.2020.10.038

>  <Molecular Weight>
501.509

>  <Exact Mass>
501.1987744

>  <XLogP3>
4.7

>  <Heavy Atom Count>
36

>  <Ring Count>
4

>  <Hydrogen Bond Acceptor Count>
7

>  <Hydrogen Bond Donor Count>
3

>  <Rotatable Bond Count>
7

>  <Topological Polar Surface Area>
87.75

>  <Molecular Formula>
C25H26F3N5O3

>  <InChI>
InChI=1S/C25H26F3N5O3/c1-29-24(34)17-5-3-4-6-19(17)31-21-14-23(30-15-18(21)25(26,27)28)32-20-8-7-16(13-22(20)35-2)33-9-11-36-12-10-33/h3-8,13-15H,9-12H2,1-2H3,(H,29,34)(H2,30,31,32)

>  <InChI Key>
IGUBBWJDMLCRIK-UHFFFAOYSA-N

>  <BindingDB>
50440659

>  <PubChem>
25073775

>  <ChEMBL>
CHEMBL3040440

$$$$
237
Actelion Java MolfileCreator 2.0

  0  0  0  0  0  0              0 V3000
M  V30 BEGIN CTAB
M  V30 COUNTS 36 39 0 0 0
M  V30 BEGIN ATOM
M  V30 1 F 0.5 1.6339 0.0 0
M  V30 2 C 0.0 2.4999 0.0 0
M  V30 3 F -0.866 1.9999 0.0 0
M  V30 4 F -0.5 3.366 0.0 0
M  V30 5 C 0.866 2.9999 0.0 0
M  V30 6 C 1.732 2.5 0.0 0
M  V30 7 C 0.866 3.9999 0.0 0
M  V30 8 N 1.732 1.4999 0.0 0
M  V30 9 C 2.598 3.0 0.0 0
M  V30 10 N 1.732 4.5 0.0 0
M  V30 11 C 2.598 1.0 0.0 0
M  V30 12 C 2.598 4.0 0.0 0
M  V30 13 C 2.598 0.0 0.0 0
M  V30 14 C 3.4641 1.4999 0.0 0
M  V30 15 N 3.4641 4.5 0.0 0
M  V30 16 C 1.732 -0.5 0.0 0
M  V30 17 C 3.4641 -0.5 0.0 0
M  V30 18 C 4.3301 1.0 0.0 0
M  V30 19 C 3.4641 5.5 0.0 0
M  V30 20 O 1.732 -1.5 0.0 0
M  V30 21 N 0.866 0.0 0.0 0
M  V30 22 C 4.3301 0.0 0.0 0
M  V30 23 C 4.3301 6.0 0.0 0
M  V30 24 C 2.598 6.0 0.0 0
M  V30 25 C 0.0 -0.5 0.0 0
M  V30 26 O 5.1961 5.5 0.0 0
M  V30 27 C 4.3301 7.0 0.0 0
M  V30 28 C 2.598 7.0 0.0 0
M  V30 29 C 6.0621 6.0 0.0 0
M  V30 30 C 3.4641 7.5 0.0 0
M  V30 31 N 3.4641 8.5 0.0 0
M  V30 32 C 4.3301 9.0 0.0 0
M  V30 33 C 2.598 9.0 0.0 0
M  V30 34 C 4.3301 10.0 0.0 0
M  V30 35 C 2.598 10.0 0.0 0
M  V30 36 O 3.4641 10.5 0.0 0
M  V30 END ATOM
M  V30 BEGIN BOND
M  V30 1 1 1 2
M  V30 2 1 2 3
M  V30 3 1 2 4
M  V30 4 1 2 5
M  V30 5 2 5 6
M  V30 6 1 5 7
M  V30 7 1 6 8
M  V30 8 1 6 9
M  V30 9 2 7 10
M  V30 10 1 8 11
M  V30 11 2 9 12
M  V30 12 2 11 13
M  V30 13 1 11 14
M  V30 14 1 12 15
M  V30 15 1 13 16
M  V30 16 1 13 17
M  V30 17 2 14 18
M  V30 18 1 15 19
M  V30 19 2 16 20
M  V30 20 1 16 21
M  V30 21 2 17 22
M  V30 22 2 19 23
M  V30 23 1 19 24
M  V30 24 1 21 25
M  V30 25 1 23 26
M  V30 26 1 23 27
M  V30 27 2 24 28
M  V30 28 1 26 29
M  V30 29 2 27 30
M  V30 30 1 30 31
M  V30 31 1 31 32
M  V30 32 1 31 33
M  V30 33 1 32 34
M  V30 34 1 33 35
M  V30 35 1 34 36
M  V30 36 1 10 12
M  V30 37 1 18 22
M  V30 38 1 28 30
M  V30 39 1 35 36
M  V30 END BOND
M  V30 END CTAB
M  END
>  <Molecule Name>
Compound 869

>  <Molecule Name 2>
Compound 869

>  <Compound ID>
237

>  <Name>
PND-1186

>  <Uniprot>
Q15131

>  <Target>
CDK10

>  <Smiles>
CNC(=O)C1=CC=CC=C1NC1=CC(NC2=CC=C(N3CCOCC3)C=C2OC)=NC=C1C(F)(F)F

>  <Kd (nM)>


>  <Assay (Kd)>


>  <Ki (nM)>


>  <Assay (Ki)>


>  <IC50 (nM)>


>  <Assay (IC50)>


>  <EC50 (nM)>


>  <Assay (EC50)>


>  <Article DOI>
10.1016/j.cell.2020.10.038

>  <Molecular Weight>
501.509

>  <Exact Mass>
501.1987744

>  <XLogP3>
4.7

>  <Heavy Atom Count>
36

>  <Ring Count>
4

>  <Hydrogen Bond Acceptor Count>
7

>  <Hydrogen Bond Donor Count>
3

>  <Rotatable Bond Count>
7

>  <Topological Polar Surface Area>
87.75

>  <Molecular Formula>
C25H26F3N5O3

>  <InChI>
InChI=1S/C25H26F3N5O3/c1-29-24(34)17-5-3-4-6-19(17)31-21-14-23(30-15-18(21)25(26,27)28)32-20-8-7-16(13-22(20)35-2)33-9-11-36-12-10-33/h3-8,13-15H,9-12H2,1-2H3,(H,29,34)(H2,30,31,32)

>  <InChI Key>
IGUBBWJDMLCRIK-UHFFFAOYSA-N

>  <BindingDB>
50440659

>  <PubChem>
25073775

>  <ChEMBL>
CHEMBL3040440

$$$$
237
Actelion Java MolfileCreator 2.0

  0  0  0  0  0  0              0 V3000
M  V30 BEGIN CTAB
M  V30 COUNTS 36 39 0 0 0
M  V30 BEGIN ATOM
M  V30 1 F 0.5 1.6339 0.0 0
M  V30 2 C 0.0 2.4999 0.0 0
M  V30 3 F -0.866 1.9999 0.0 0
M  V30 4 F -0.5 3.366 0.0 0
M  V30 5 C 0.866 2.9999 0.0 0
M  V30 6 C 1.732 2.5 0.0 0
M  V30 7 C 0.866 3.9999 0.0 0
M  V30 8 N 1.732 1.4999 0.0 0
M  V30 9 C 2.598 3.0 0.0 0
M  V30 10 N 1.732 4.5 0.0 0
M  V30 11 C 2.598 1.0 0.0 0
M  V30 12 C 2.598 4.0 0.0 0
M  V30 13 C 2.598 0.0 0.0 0
M  V30 14 C 3.4641 1.4999 0.0 0
M  V30 15 N 3.4641 4.5 0.0 0
M  V30 16 C 1.732 -0.5 0.0 0
M  V30 17 C 3.4641 -0.5 0.0 0
M  V30 18 C 4.3301 1.0 0.0 0
M  V30 19 C 3.4641 5.5 0.0 0
M  V30 20 O 1.732 -1.5 0.0 0
M  V30 21 N 0.866 0.0 0.0 0
M  V30 22 C 4.3301 0.0 0.0 0
M  V30 23 C 4.3301 6.0 0.0 0
M  V30 24 C 2.598 6.0 0.0 0
M  V30 25 C 0.0 -0.5 0.0 0
M  V30 26 O 5.1961 5.5 0.0 0
M  V30 27 C 4.3301 7.0 0.0 0
M  V30 28 C 2.598 7.0 0.0 0
M  V30 29 C 6.0621 6.0 0.0 0
M  V30 30 C 3.4641 7.5 0.0 0
M  V30 31 N 3.4641 8.5 0.0 0
M  V30 32 C 4.3301 9.0 0.0 0
M  V30 33 C 2.598 9.0 0.0 0
M  V30 34 C 4.3301 10.0 0.0 0
M  V30 35 C 2.598 10.0 0.0 0
M  V30 36 O 3.4641 10.5 0.0 0
M  V30 END ATOM
M  V30 BEGIN BOND
M  V30 1 1 1 2
M  V30 2 1 2 3
M  V30 3 1 2 4
M  V30 4 1 2 5
M  V30 5 2 5 6
M  V30 6 1 5 7
M  V30 7 1 6 8
M  V30 8 1 6 9
M  V30 9 2 7 10
M  V30 10 1 8 11
M  V30 11 2 9 12
M  V30 12 2 11 13
M  V30 13 1 11 14
M  V30 14 1 12 15
M  V30 15 1 13 16
M  V30 16 1 13 17
M  V30 17 2 14 18
M  V30 18 1 15 19
M  V30 19 2 16 20
M  V30 20 1 16 21
M  V30 21 2 17 22
M  V30 22 2 19 23
M  V30 23 1 19 24
M  V30 24 1 21 25
M  V30 25 1 23 26
M  V30 26 1 23 27
M  V30 27 2 24 28
M  V30 28 1 26 29
M  V30 29 2 27 30
M  V30 30 1 30 31
M  V30 31 1 31 32
M  V30 32 1 31 33
M  V30 33 1 32 34
M  V30 34 1 33 35
M  V30 35 1 34 36
M  V30 36 1 10 12
M  V30 37 1 18 22
M  V30 38 1 28 30
M  V30 39 1 35 36
M  V30 END BOND
M  V30 END CTAB
M  END
>  <Molecule Name>
Compound 870

>  <Molecule Name 2>
Compound 870

>  <Compound ID>
237

>  <Name>
PND-1186

>  <Uniprot>
P50613

>  <Target>
CDK7

>  <Smiles>
CNC(=O)C1=CC=CC=C1NC1=CC(NC2=CC=C(N3CCOCC3)C=C2OC)=NC=C1C(F)(F)F

>  <Kd (nM)>


>  <Assay (Kd)>


>  <Ki (nM)>


>  <Assay (Ki)>


>  <IC50 (nM)>


>  <Assay (IC50)>


>  <EC50 (nM)>


>  <Assay (EC50)>


>  <Article DOI>
10.1016/j.cell.2020.10.038

>  <Molecular Weight>
501.509

>  <Exact Mass>
501.1987744

>  <XLogP3>
4.7

>  <Heavy Atom Count>
36

>  <Ring Count>
4

>  <Hydrogen Bond Acceptor Count>
7

>  <Hydrogen Bond Donor Count>
3

>  <Rotatable Bond Count>
7

>  <Topological Polar Surface Area>
87.75

>  <Molecular Formula>
C25H26F3N5O3

>  <InChI>
InChI=1S/C25H26F3N5O3/c1-29-24(34)17-5-3-4-6-19(17)31-21-14-23(30-15-18(21)25(26,27)28)32-20-8-7-16(13-22(20)35-2)33-9-11-36-12-10-33/h3-8,13-15H,9-12H2,1-2H3,(H,29,34)(H2,30,31,32)

>  <InChI Key>
IGUBBWJDMLCRIK-UHFFFAOYSA-N

>  <BindingDB>
50440659

>  <PubChem>
25073775

>  <ChEMBL>
CHEMBL3040440

$$$$
237
Actelion Java MolfileCreator 2.0

  0  0  0  0  0  0              0 V3000
M  V30 BEGIN CTAB
M  V30 COUNTS 36 39 0 0 0
M  V30 BEGIN ATOM
M  V30 1 F 0.5 1.6339 0.0 0
M  V30 2 C 0.0 2.4999 0.0 0
M  V30 3 F -0.866 1.9999 0.0 0
M  V30 4 F -0.5 3.366 0.0 0
M  V30 5 C 0.866 2.9999 0.0 0
M  V30 6 C 1.732 2.5 0.0 0
M  V30 7 C 0.866 3.9999 0.0 0
M  V30 8 N 1.732 1.4999 0.0 0
M  V30 9 C 2.598 3.0 0.0 0
M  V30 10 N 1.732 4.5 0.0 0
M  V30 11 C 2.598 1.0 0.0 0
M  V30 12 C 2.598 4.0 0.0 0
M  V30 13 C 2.598 0.0 0.0 0
M  V30 14 C 3.4641 1.4999 0.0 0
M  V30 15 N 3.4641 4.5 0.0 0
M  V30 16 C 1.732 -0.5 0.0 0
M  V30 17 C 3.4641 -0.5 0.0 0
M  V30 18 C 4.3301 1.0 0.0 0
M  V30 19 C 3.4641 5.5 0.0 0
M  V30 20 O 1.732 -1.5 0.0 0
M  V30 21 N 0.866 0.0 0.0 0
M  V30 22 C 4.3301 0.0 0.0 0
M  V30 23 C 4.3301 6.0 0.0 0
M  V30 24 C 2.598 6.0 0.0 0
M  V30 25 C 0.0 -0.5 0.0 0
M  V30 26 O 5.1961 5.5 0.0 0
M  V30 27 C 4.3301 7.0 0.0 0
M  V30 28 C 2.598 7.0 0.0 0
M  V30 29 C 6.0621 6.0 0.0 0
M  V30 30 C 3.4641 7.5 0.0 0
M  V30 31 N 3.4641 8.5 0.0 0
M  V30 32 C 4.3301 9.0 0.0 0
M  V30 33 C 2.598 9.0 0.0 0
M  V30 34 C 4.3301 10.0 0.0 0
M  V30 35 C 2.598 10.0 0.0 0
M  V30 36 O 3.4641 10.5 0.0 0
M  V30 END ATOM
M  V30 BEGIN BOND
M  V30 1 1 1 2
M  V30 2 1 2 3
M  V30 3 1 2 4
M  V30 4 1 2 5
M  V30 5 2 5 6
M  V30 6 1 5 7
M  V30 7 1 6 8
M  V30 8 1 6 9
M  V30 9 2 7 10
M  V30 10 1 8 11
M  V30 11 2 9 12
M  V30 12 2 11 13
M  V30 13 1 11 14
M  V30 14 1 12 15
M  V30 15 1 13 16
M  V30 16 1 13 17
M  V30 17 2 14 18
M  V30 18 1 15 19
M  V30 19 2 16 20
M  V30 20 1 16 21
M  V30 21 2 17 22
M  V30 22 2 19 23
M  V30 23 1 19 24
M  V30 24 1 21 25
M  V30 25 1 23 26
M  V30 26 1 23 27
M  V30 27 2 24 28
M  V30 28 1 26 29
M  V30 29 2 27 30
M  V30 30 1 30 31
M  V30 31 1 31 32
M  V30 32 1 31 33
M  V30 33 1 32 34
M  V30 34 1 33 35
M  V30 35 1 34 36
M  V30 36 1 10 12
M  V30 37 1 18 22
M  V30 38 1 28 30
M  V30 39 1 35 36
M  V30 END BOND
M  V30 END CTAB
M  END
>  <Molecule Name>
Compound 871

>  <Molecule Name 2>
Compound 871

>  <Compound ID>
237

>  <Name>
PND-1186

>  <Uniprot>
Q05397

>  <Target>
FAK

>  <Smiles>
CNC(=O)C1=CC=CC=C1NC1=CC(NC2=CC=C(N3CCOCC3)C=C2OC)=NC=C1C(F)(F)F

>  <Kd (nM)>


>  <Assay (Kd)>


>  <Ki (nM)>


>  <Assay (Ki)>


>  <IC50 (nM)>
1.5

>  <Assay (IC50)>
Inhibition of FAK

>  <EC50 (nM)>


>  <Assay (EC50)>


>  <Article DOI>
10.1007/s00044-013-0768-0

>  <Molecular Weight>
501.509

>  <Exact Mass>
501.1987744

>  <XLogP3>
4.7

>  <Heavy Atom Count>
36

>  <Ring Count>
4

>  <Hydrogen Bond Acceptor Count>
7

>  <Hydrogen Bond Donor Count>
3

>  <Rotatable Bond Count>
7

>  <Topological Polar Surface Area>
87.75

>  <Molecular Formula>
C25H26F3N5O3

>  <InChI>
InChI=1S/C25H26F3N5O3/c1-29-24(34)17-5-3-4-6-19(17)31-21-14-23(30-15-18(21)25(26,27)28)32-20-8-7-16(13-22(20)35-2)33-9-11-36-12-10-33/h3-8,13-15H,9-12H2,1-2H3,(H,29,34)(H2,30,31,32)

>  <InChI Key>
IGUBBWJDMLCRIK-UHFFFAOYSA-N

>  <BindingDB>
50440659

>  <PubChem>
25073775

>  <ChEMBL>
CHEMBL3040440

$$$$
237
Actelion Java MolfileCreator 2.0

  0  0  0  0  0  0              0 V3000
M  V30 BEGIN CTAB
M  V30 COUNTS 36 39 0 0 0
M  V30 BEGIN ATOM
M  V30 1 F 0.5 1.6339 0.0 0
M  V30 2 C 0.0 2.4999 0.0 0
M  V30 3 F -0.866 1.9999 0.0 0
M  V30 4 F -0.5 3.366 0.0 0
M  V30 5 C 0.866 2.9999 0.0 0
M  V30 6 C 1.732 2.5 0.0 0
M  V30 7 C 0.866 3.9999 0.0 0
M  V30 8 N 1.732 1.4999 0.0 0
M  V30 9 C 2.598 3.0 0.0 0
M  V30 10 N 1.732 4.5 0.0 0
M  V30 11 C 2.598 1.0 0.0 0
M  V30 12 C 2.598 4.0 0.0 0
M  V30 13 C 2.598 0.0 0.0 0
M  V30 14 C 3.4641 1.4999 0.0 0
M  V30 15 N 3.4641 4.5 0.0 0
M  V30 16 C 1.732 -0.5 0.0 0
M  V30 17 C 3.4641 -0.5 0.0 0
M  V30 18 C 4.3301 1.0 0.0 0
M  V30 19 C 3.4641 5.5 0.0 0
M  V30 20 O 1.732 -1.5 0.0 0
M  V30 21 N 0.866 0.0 0.0 0
M  V30 22 C 4.3301 0.0 0.0 0
M  V30 23 C 4.3301 6.0 0.0 0
M  V30 24 C 2.598 6.0 0.0 0
M  V30 25 C 0.0 -0.5 0.0 0
M  V30 26 O 5.1961 5.5 0.0 0
M  V30 27 C 4.3301 7.0 0.0 0
M  V30 28 C 2.598 7.0 0.0 0
M  V30 29 C 6.0621 6.0 0.0 0
M  V30 30 C 3.4641 7.5 0.0 0
M  V30 31 N 3.4641 8.5 0.0 0
M  V30 32 C 4.3301 9.0 0.0 0
M  V30 33 C 2.598 9.0 0.0 0
M  V30 34 C 4.3301 10.0 0.0 0
M  V30 35 C 2.598 10.0 0.0 0
M  V30 36 O 3.4641 10.5 0.0 0
M  V30 END ATOM
M  V30 BEGIN BOND
M  V30 1 1 1 2
M  V30 2 1 2 3
M  V30 3 1 2 4
M  V30 4 1 2 5
M  V30 5 2 5 6
M  V30 6 1 5 7
M  V30 7 1 6 8
M  V30 8 1 6 9
M  V30 9 2 7 10
M  V30 10 1 8 11
M  V30 11 2 9 12
M  V30 12 2 11 13
M  V30 13 1 11 14
M  V30 14 1 12 15
M  V30 15 1 13 16
M  V30 16 1 13 17
M  V30 17 2 14 18
M  V30 18 1 15 19
M  V30 19 2 16 20
M  V30 20 1 16 21
M  V30 21 2 17 22
M  V30 22 2 19 23
M  V30 23 1 19 24
M  V30 24 1 21 25
M  V30 25 1 23 26
M  V30 26 1 23 27
M  V30 27 2 24 28
M  V30 28 1 26 29
M  V30 29 2 27 30
M  V30 30 1 30 31
M  V30 31 1 31 32
M  V30 32 1 31 33
M  V30 33 1 32 34
M  V30 34 1 33 35
M  V30 35 1 34 36
M  V30 36 1 10 12
M  V30 37 1 18 22
M  V30 38 1 28 30
M  V30 39 1 35 36
M  V30 END BOND
M  V30 END CTAB
M  END
>  <Molecule Name>
Compound 872

>  <Molecule Name 2>
Compound 872

>  <Compound ID>
237

>  <Name>
PND-1186

>  <Uniprot>
Q13164

>  <Target>
MAPK7

>  <Smiles>
CNC(=O)C1=CC=CC=C1NC1=CC(NC2=CC=C(N3CCOCC3)C=C2OC)=NC=C1C(F)(F)F

>  <Kd (nM)>


>  <Assay (Kd)>


>  <Ki (nM)>


>  <Assay (Ki)>


>  <IC50 (nM)>


>  <Assay (IC50)>


>  <EC50 (nM)>


>  <Assay (EC50)>


>  <Article DOI>
10.1016/j.cell.2020.10.038

>  <Molecular Weight>
501.509

>  <Exact Mass>
501.1987744

>  <XLogP3>
4.7

>  <Heavy Atom Count>
36

>  <Ring Count>
4

>  <Hydrogen Bond Acceptor Count>
7

>  <Hydrogen Bond Donor Count>
3

>  <Rotatable Bond Count>
7

>  <Topological Polar Surface Area>
87.75

>  <Molecular Formula>
C25H26F3N5O3

>  <InChI>
InChI=1S/C25H26F3N5O3/c1-29-24(34)17-5-3-4-6-19(17)31-21-14-23(30-15-18(21)25(26,27)28)32-20-8-7-16(13-22(20)35-2)33-9-11-36-12-10-33/h3-8,13-15H,9-12H2,1-2H3,(H,29,34)(H2,30,31,32)

>  <InChI Key>
IGUBBWJDMLCRIK-UHFFFAOYSA-N

>  <BindingDB>
50440659

>  <PubChem>
25073775

>  <ChEMBL>
CHEMBL3040440

$$$$
237
Actelion Java MolfileCreator 2.0

  0  0  0  0  0  0              0 V3000
M  V30 BEGIN CTAB
M  V30 COUNTS 36 39 0 0 0
M  V30 BEGIN ATOM
M  V30 1 F 0.5 1.6339 0.0 0
M  V30 2 C 0.0 2.4999 0.0 0
M  V30 3 F -0.866 1.9999 0.0 0
M  V30 4 F -0.5 3.366 0.0 0
M  V30 5 C 0.866 2.9999 0.0 0
M  V30 6 C 1.732 2.5 0.0 0
M  V30 7 C 0.866 3.9999 0.0 0
M  V30 8 N 1.732 1.4999 0.0 0
M  V30 9 C 2.598 3.0 0.0 0
M  V30 10 N 1.732 4.5 0.0 0
M  V30 11 C 2.598 1.0 0.0 0
M  V30 12 C 2.598 4.0 0.0 0
M  V30 13 C 2.598 0.0 0.0 0
M  V30 14 C 3.4641 1.4999 0.0 0
M  V30 15 N 3.4641 4.5 0.0 0
M  V30 16 C 1.732 -0.5 0.0 0
M  V30 17 C 3.4641 -0.5 0.0 0
M  V30 18 C 4.3301 1.0 0.0 0
M  V30 19 C 3.4641 5.5 0.0 0
M  V30 20 O 1.732 -1.5 0.0 0
M  V30 21 N 0.866 0.0 0.0 0
M  V30 22 C 4.3301 0.0 0.0 0
M  V30 23 C 4.3301 6.0 0.0 0
M  V30 24 C 2.598 6.0 0.0 0
M  V30 25 C 0.0 -0.5 0.0 0
M  V30 26 O 5.1961 5.5 0.0 0
M  V30 27 C 4.3301 7.0 0.0 0
M  V30 28 C 2.598 7.0 0.0 0
M  V30 29 C 6.0621 6.0 0.0 0
M  V30 30 C 3.4641 7.5 0.0 0
M  V30 31 N 3.4641 8.5 0.0 0
M  V30 32 C 4.3301 9.0 0.0 0
M  V30 33 C 2.598 9.0 0.0 0
M  V30 34 C 4.3301 10.0 0.0 0
M  V30 35 C 2.598 10.0 0.0 0
M  V30 36 O 3.4641 10.5 0.0 0
M  V30 END ATOM
M  V30 BEGIN BOND
M  V30 1 1 1 2
M  V30 2 1 2 3
M  V30 3 1 2 4
M  V30 4 1 2 5
M  V30 5 2 5 6
M  V30 6 1 5 7
M  V30 7 1 6 8
M  V30 8 1 6 9
M  V30 9 2 7 10
M  V30 10 1 8 11
M  V30 11 2 9 12
M  V30 12 2 11 13
M  V30 13 1 11 14
M  V30 14 1 12 15
M  V30 15 1 13 16
M  V30 16 1 13 17
M  V30 17 2 14 18
M  V30 18 1 15 19
M  V30 19 2 16 20
M  V30 20 1 16 21
M  V30 21 2 17 22
M  V30 22 2 19 23
M  V30 23 1 19 24
M  V30 24 1 21 25
M  V30 25 1 23 26
M  V30 26 1 23 27
M  V30 27 2 24 28
M  V30 28 1 26 29
M  V30 29 2 27 30
M  V30 30 1 30 31
M  V30 31 1 31 32
M  V30 32 1 31 33
M  V30 33 1 32 34
M  V30 34 1 33 35
M  V30 35 1 34 36
M  V30 36 1 10 12
M  V30 37 1 18 22
M  V30 38 1 28 30
M  V30 39 1 35 36
M  V30 END BOND
M  V30 END CTAB
M  END
>  <Molecule Name>
Compound 873

>  <Molecule Name 2>
Compound 873

>  <Compound ID>
237

>  <Name>
PND-1186

>  <Uniprot>
O60285

>  <Target>
NUAK1

>  <Smiles>
CNC(=O)C1=CC=CC=C1NC1=CC(NC2=CC=C(N3CCOCC3)C=C2OC)=NC=C1C(F)(F)F

>  <Kd (nM)>


>  <Assay (Kd)>


>  <Ki (nM)>


>  <Assay (Ki)>


>  <IC50 (nM)>


>  <Assay (IC50)>


>  <EC50 (nM)>


>  <Assay (EC50)>


>  <Article DOI>
10.1016/j.cell.2020.10.038

>  <Molecular Weight>
501.509

>  <Exact Mass>
501.1987744

>  <XLogP3>
4.7

>  <Heavy Atom Count>
36

>  <Ring Count>
4

>  <Hydrogen Bond Acceptor Count>
7

>  <Hydrogen Bond Donor Count>
3

>  <Rotatable Bond Count>
7

>  <Topological Polar Surface Area>
87.75

>  <Molecular Formula>
C25H26F3N5O3

>  <InChI>
InChI=1S/C25H26F3N5O3/c1-29-24(34)17-5-3-4-6-19(17)31-21-14-23(30-15-18(21)25(26,27)28)32-20-8-7-16(13-22(20)35-2)33-9-11-36-12-10-33/h3-8,13-15H,9-12H2,1-2H3,(H,29,34)(H2,30,31,32)

>  <InChI Key>
IGUBBWJDMLCRIK-UHFFFAOYSA-N

>  <BindingDB>
50440659

>  <PubChem>
25073775

>  <ChEMBL>
CHEMBL3040440

$$$$
237
Actelion Java MolfileCreator 2.0

  0  0  0  0  0  0              0 V3000
M  V30 BEGIN CTAB
M  V30 COUNTS 36 39 0 0 0
M  V30 BEGIN ATOM
M  V30 1 F 0.5 1.6339 0.0 0
M  V30 2 C 0.0 2.4999 0.0 0
M  V30 3 F -0.866 1.9999 0.0 0
M  V30 4 F -0.5 3.366 0.0 0
M  V30 5 C 0.866 2.9999 0.0 0
M  V30 6 C 1.732 2.5 0.0 0
M  V30 7 C 0.866 3.9999 0.0 0
M  V30 8 N 1.732 1.4999 0.0 0
M  V30 9 C 2.598 3.0 0.0 0
M  V30 10 N 1.732 4.5 0.0 0
M  V30 11 C 2.598 1.0 0.0 0
M  V30 12 C 2.598 4.0 0.0 0
M  V30 13 C 2.598 0.0 0.0 0
M  V30 14 C 3.4641 1.4999 0.0 0
M  V30 15 N 3.4641 4.5 0.0 0
M  V30 16 C 1.732 -0.5 0.0 0
M  V30 17 C 3.4641 -0.5 0.0 0
M  V30 18 C 4.3301 1.0 0.0 0
M  V30 19 C 3.4641 5.5 0.0 0
M  V30 20 O 1.732 -1.5 0.0 0
M  V30 21 N 0.866 0.0 0.0 0
M  V30 22 C 4.3301 0.0 0.0 0
M  V30 23 C 4.3301 6.0 0.0 0
M  V30 24 C 2.598 6.0 0.0 0
M  V30 25 C 0.0 -0.5 0.0 0
M  V30 26 O 5.1961 5.5 0.0 0
M  V30 27 C 4.3301 7.0 0.0 0
M  V30 28 C 2.598 7.0 0.0 0
M  V30 29 C 6.0621 6.0 0.0 0
M  V30 30 C 3.4641 7.5 0.0 0
M  V30 31 N 3.4641 8.5 0.0 0
M  V30 32 C 4.3301 9.0 0.0 0
M  V30 33 C 2.598 9.0 0.0 0
M  V30 34 C 4.3301 10.0 0.0 0
M  V30 35 C 2.598 10.0 0.0 0
M  V30 36 O 3.4641 10.5 0.0 0
M  V30 END ATOM
M  V30 BEGIN BOND
M  V30 1 1 1 2
M  V30 2 1 2 3
M  V30 3 1 2 4
M  V30 4 1 2 5
M  V30 5 2 5 6
M  V30 6 1 5 7
M  V30 7 1 6 8
M  V30 8 1 6 9
M  V30 9 2 7 10
M  V30 10 1 8 11
M  V30 11 2 9 12
M  V30 12 2 11 13
M  V30 13 1 11 14
M  V30 14 1 12 15
M  V30 15 1 13 16
M  V30 16 1 13 17
M  V30 17 2 14 18
M  V30 18 1 15 19
M  V30 19 2 16 20
M  V30 20 1 16 21
M  V30 21 2 17 22
M  V30 22 2 19 23
M  V30 23 1 19 24
M  V30 24 1 21 25
M  V30 25 1 23 26
M  V30 26 1 23 27
M  V30 27 2 24 28
M  V30 28 1 26 29
M  V30 29 2 27 30
M  V30 30 1 30 31
M  V30 31 1 31 32
M  V30 32 1 31 33
M  V30 33 1 32 34
M  V30 34 1 33 35
M  V30 35 1 34 36
M  V30 36 1 10 12
M  V30 37 1 18 22
M  V30 38 1 28 30
M  V30 39 1 35 36
M  V30 END BOND
M  V30 END CTAB
M  END
>  <Molecule Name>
Compound 874

>  <Molecule Name 2>
Compound 874

>  <Compound ID>
237

>  <Name>
PND-1186

>  <Uniprot>
Q14289

>  <Target>
PTK2B

>  <Smiles>
CNC(=O)C1=CC=CC=C1NC1=CC(NC2=CC=C(N3CCOCC3)C=C2OC)=NC=C1C(F)(F)F

>  <Kd (nM)>


>  <Assay (Kd)>


>  <Ki (nM)>


>  <Assay (Ki)>


>  <IC50 (nM)>


>  <Assay (IC50)>


>  <EC50 (nM)>


>  <Assay (EC50)>


>  <Article DOI>
10.1016/j.cell.2020.10.038

>  <Molecular Weight>
501.509

>  <Exact Mass>
501.1987744

>  <XLogP3>
4.7

>  <Heavy Atom Count>
36

>  <Ring Count>
4

>  <Hydrogen Bond Acceptor Count>
7

>  <Hydrogen Bond Donor Count>
3

>  <Rotatable Bond Count>
7

>  <Topological Polar Surface Area>
87.75

>  <Molecular Formula>
C25H26F3N5O3

>  <InChI>
InChI=1S/C25H26F3N5O3/c1-29-24(34)17-5-3-4-6-19(17)31-21-14-23(30-15-18(21)25(26,27)28)32-20-8-7-16(13-22(20)35-2)33-9-11-36-12-10-33/h3-8,13-15H,9-12H2,1-2H3,(H,29,34)(H2,30,31,32)

>  <InChI Key>
IGUBBWJDMLCRIK-UHFFFAOYSA-N

>  <BindingDB>
50440659

>  <PubChem>
25073775

>  <ChEMBL>
CHEMBL3040440

$$$$
237
Actelion Java MolfileCreator 2.0

  0  0  0  0  0  0              0 V3000
M  V30 BEGIN CTAB
M  V30 COUNTS 36 39 0 0 0
M  V30 BEGIN ATOM
M  V30 1 F 0.5 1.6339 0.0 0
M  V30 2 C 0.0 2.4999 0.0 0
M  V30 3 F -0.866 1.9999 0.0 0
M  V30 4 F -0.5 3.366 0.0 0
M  V30 5 C 0.866 2.9999 0.0 0
M  V30 6 C 1.732 2.5 0.0 0
M  V30 7 C 0.866 3.9999 0.0 0
M  V30 8 N 1.732 1.4999 0.0 0
M  V30 9 C 2.598 3.0 0.0 0
M  V30 10 N 1.732 4.5 0.0 0
M  V30 11 C 2.598 1.0 0.0 0
M  V30 12 C 2.598 4.0 0.0 0
M  V30 13 C 2.598 0.0 0.0 0
M  V30 14 C 3.4641 1.4999 0.0 0
M  V30 15 N 3.4641 4.5 0.0 0
M  V30 16 C 1.732 -0.5 0.0 0
M  V30 17 C 3.4641 -0.5 0.0 0
M  V30 18 C 4.3301 1.0 0.0 0
M  V30 19 C 3.4641 5.5 0.0 0
M  V30 20 O 1.732 -1.5 0.0 0
M  V30 21 N 0.866 0.0 0.0 0
M  V30 22 C 4.3301 0.0 0.0 0
M  V30 23 C 4.3301 6.0 0.0 0
M  V30 24 C 2.598 6.0 0.0 0
M  V30 25 C 0.0 -0.5 0.0 0
M  V30 26 O 5.1961 5.5 0.0 0
M  V30 27 C 4.3301 7.0 0.0 0
M  V30 28 C 2.598 7.0 0.0 0
M  V30 29 C 6.0621 6.0 0.0 0
M  V30 30 C 3.4641 7.5 0.0 0
M  V30 31 N 3.4641 8.5 0.0 0
M  V30 32 C 4.3301 9.0 0.0 0
M  V30 33 C 2.598 9.0 0.0 0
M  V30 34 C 4.3301 10.0 0.0 0
M  V30 35 C 2.598 10.0 0.0 0
M  V30 36 O 3.4641 10.5 0.0 0
M  V30 END ATOM
M  V30 BEGIN BOND
M  V30 1 1 1 2
M  V30 2 1 2 3
M  V30 3 1 2 4
M  V30 4 1 2 5
M  V30 5 2 5 6
M  V30 6 1 5 7
M  V30 7 1 6 8
M  V30 8 1 6 9
M  V30 9 2 7 10
M  V30 10 1 8 11
M  V30 11 2 9 12
M  V30 12 2 11 13
M  V30 13 1 11 14
M  V30 14 1 12 15
M  V30 15 1 13 16
M  V30 16 1 13 17
M  V30 17 2 14 18
M  V30 18 1 15 19
M  V30 19 2 16 20
M  V30 20 1 16 21
M  V30 21 2 17 22
M  V30 22 2 19 23
M  V30 23 1 19 24
M  V30 24 1 21 25
M  V30 25 1 23 26
M  V30 26 1 23 27
M  V30 27 2 24 28
M  V30 28 1 26 29
M  V30 29 2 27 30
M  V30 30 1 30 31
M  V30 31 1 31 32
M  V30 32 1 31 33
M  V30 33 1 32 34
M  V30 34 1 33 35
M  V30 35 1 34 36
M  V30 36 1 10 12
M  V30 37 1 18 22
M  V30 38 1 28 30
M  V30 39 1 35 36
M  V30 END BOND
M  V30 END CTAB
M  END
>  <Molecule Name>
Compound 875

>  <Molecule Name 2>
Compound 875

>  <Compound ID>
237

>  <Name>
PND-1186

>  <Uniprot>
Q15418

>  <Target>
RPS6KA1

>  <Smiles>
CNC(=O)C1=CC=CC=C1NC1=CC(NC2=CC=C(N3CCOCC3)C=C2OC)=NC=C1C(F)(F)F

>  <Kd (nM)>


>  <Assay (Kd)>


>  <Ki (nM)>


>  <Assay (Ki)>


>  <IC50 (nM)>


>  <Assay (IC50)>


>  <EC50 (nM)>


>  <Assay (EC50)>


>  <Article DOI>
10.1016/j.cell.2020.10.038

>  <Molecular Weight>
501.509

>  <Exact Mass>
501.1987744

>  <XLogP3>
4.7

>  <Heavy Atom Count>
36

>  <Ring Count>
4

>  <Hydrogen Bond Acceptor Count>
7

>  <Hydrogen Bond Donor Count>
3

>  <Rotatable Bond Count>
7

>  <Topological Polar Surface Area>
87.75

>  <Molecular Formula>
C25H26F3N5O3

>  <InChI>
InChI=1S/C25H26F3N5O3/c1-29-24(34)17-5-3-4-6-19(17)31-21-14-23(30-15-18(21)25(26,27)28)32-20-8-7-16(13-22(20)35-2)33-9-11-36-12-10-33/h3-8,13-15H,9-12H2,1-2H3,(H,29,34)(H2,30,31,32)

>  <InChI Key>
IGUBBWJDMLCRIK-UHFFFAOYSA-N

>  <BindingDB>
50440659

>  <PubChem>
25073775

>  <ChEMBL>
CHEMBL3040440

$$$$
237
Actelion Java MolfileCreator 2.0

  0  0  0  0  0  0              0 V3000
M  V30 BEGIN CTAB
M  V30 COUNTS 36 39 0 0 0
M  V30 BEGIN ATOM
M  V30 1 F 0.5 1.6339 0.0 0
M  V30 2 C 0.0 2.4999 0.0 0
M  V30 3 F -0.866 1.9999 0.0 0
M  V30 4 F -0.5 3.366 0.0 0
M  V30 5 C 0.866 2.9999 0.0 0
M  V30 6 C 1.732 2.5 0.0 0
M  V30 7 C 0.866 3.9999 0.0 0
M  V30 8 N 1.732 1.4999 0.0 0
M  V30 9 C 2.598 3.0 0.0 0
M  V30 10 N 1.732 4.5 0.0 0
M  V30 11 C 2.598 1.0 0.0 0
M  V30 12 C 2.598 4.0 0.0 0
M  V30 13 C 2.598 0.0 0.0 0
M  V30 14 C 3.4641 1.4999 0.0 0
M  V30 15 N 3.4641 4.5 0.0 0
M  V30 16 C 1.732 -0.5 0.0 0
M  V30 17 C 3.4641 -0.5 0.0 0
M  V30 18 C 4.3301 1.0 0.0 0
M  V30 19 C 3.4641 5.5 0.0 0
M  V30 20 O 1.732 -1.5 0.0 0
M  V30 21 N 0.866 0.0 0.0 0
M  V30 22 C 4.3301 0.0 0.0 0
M  V30 23 C 4.3301 6.0 0.0 0
M  V30 24 C 2.598 6.0 0.0 0
M  V30 25 C 0.0 -0.5 0.0 0
M  V30 26 O 5.1961 5.5 0.0 0
M  V30 27 C 4.3301 7.0 0.0 0
M  V30 28 C 2.598 7.0 0.0 0
M  V30 29 C 6.0621 6.0 0.0 0
M  V30 30 C 3.4641 7.5 0.0 0
M  V30 31 N 3.4641 8.5 0.0 0
M  V30 32 C 4.3301 9.0 0.0 0
M  V30 33 C 2.598 9.0 0.0 0
M  V30 34 C 4.3301 10.0 0.0 0
M  V30 35 C 2.598 10.0 0.0 0
M  V30 36 O 3.4641 10.5 0.0 0
M  V30 END ATOM
M  V30 BEGIN BOND
M  V30 1 1 1 2
M  V30 2 1 2 3
M  V30 3 1 2 4
M  V30 4 1 2 5
M  V30 5 2 5 6
M  V30 6 1 5 7
M  V30 7 1 6 8
M  V30 8 1 6 9
M  V30 9 2 7 10
M  V30 10 1 8 11
M  V30 11 2 9 12
M  V30 12 2 11 13
M  V30 13 1 11 14
M  V30 14 1 12 15
M  V30 15 1 13 16
M  V30 16 1 13 17
M  V30 17 2 14 18
M  V30 18 1 15 19
M  V30 19 2 16 20
M  V30 20 1 16 21
M  V30 21 2 17 22
M  V30 22 2 19 23
M  V30 23 1 19 24
M  V30 24 1 21 25
M  V30 25 1 23 26
M  V30 26 1 23 27
M  V30 27 2 24 28
M  V30 28 1 26 29
M  V30 29 2 27 30
M  V30 30 1 30 31
M  V30 31 1 31 32
M  V30 32 1 31 33
M  V30 33 1 32 34
M  V30 34 1 33 35
M  V30 35 1 34 36
M  V30 36 1 10 12
M  V30 37 1 18 22
M  V30 38 1 28 30
M  V30 39 1 35 36
M  V30 END BOND
M  V30 END CTAB
M  END
>  <Molecule Name>
Compound 876

>  <Molecule Name 2>
Compound 876

>  <Compound ID>
237

>  <Name>
PND-1186

>  <Uniprot>
P51812

>  <Target>
RPS6KA3

>  <Smiles>
CNC(=O)C1=CC=CC=C1NC1=CC(NC2=CC=C(N3CCOCC3)C=C2OC)=NC=C1C(F)(F)F

>  <Kd (nM)>


>  <Assay (Kd)>


>  <Ki (nM)>


>  <Assay (Ki)>


>  <IC50 (nM)>


>  <Assay (IC50)>


>  <EC50 (nM)>


>  <Assay (EC50)>


>  <Article DOI>
10.1016/j.cell.2020.10.038

>  <Molecular Weight>
501.509

>  <Exact Mass>
501.1987744

>  <XLogP3>
4.7

>  <Heavy Atom Count>
36

>  <Ring Count>
4

>  <Hydrogen Bond Acceptor Count>
7

>  <Hydrogen Bond Donor Count>
3

>  <Rotatable Bond Count>
7

>  <Topological Polar Surface Area>
87.75

>  <Molecular Formula>
C25H26F3N5O3

>  <InChI>
InChI=1S/C25H26F3N5O3/c1-29-24(34)17-5-3-4-6-19(17)31-21-14-23(30-15-18(21)25(26,27)28)32-20-8-7-16(13-22(20)35-2)33-9-11-36-12-10-33/h3-8,13-15H,9-12H2,1-2H3,(H,29,34)(H2,30,31,32)

>  <InChI Key>
IGUBBWJDMLCRIK-UHFFFAOYSA-N

>  <BindingDB>
50440659

>  <PubChem>
25073775

>  <ChEMBL>
CHEMBL3040440

$$$$
237
Actelion Java MolfileCreator 2.0

  0  0  0  0  0  0              0 V3000
M  V30 BEGIN CTAB
M  V30 COUNTS 36 39 0 0 0
M  V30 BEGIN ATOM
M  V30 1 F 0.5 1.6339 0.0 0
M  V30 2 C 0.0 2.4999 0.0 0
M  V30 3 F -0.866 1.9999 0.0 0
M  V30 4 F -0.5 3.366 0.0 0
M  V30 5 C 0.866 2.9999 0.0 0
M  V30 6 C 1.732 2.5 0.0 0
M  V30 7 C 0.866 3.9999 0.0 0
M  V30 8 N 1.732 1.4999 0.0 0
M  V30 9 C 2.598 3.0 0.0 0
M  V30 10 N 1.732 4.5 0.0 0
M  V30 11 C 2.598 1.0 0.0 0
M  V30 12 C 2.598 4.0 0.0 0
M  V30 13 C 2.598 0.0 0.0 0
M  V30 14 C 3.4641 1.4999 0.0 0
M  V30 15 N 3.4641 4.5 0.0 0
M  V30 16 C 1.732 -0.5 0.0 0
M  V30 17 C 3.4641 -0.5 0.0 0
M  V30 18 C 4.3301 1.0 0.0 0
M  V30 19 C 3.4641 5.5 0.0 0
M  V30 20 O 1.732 -1.5 0.0 0
M  V30 21 N 0.866 0.0 0.0 0
M  V30 22 C 4.3301 0.0 0.0 0
M  V30 23 C 4.3301 6.0 0.0 0
M  V30 24 C 2.598 6.0 0.0 0
M  V30 25 C 0.0 -0.5 0.0 0
M  V30 26 O 5.1961 5.5 0.0 0
M  V30 27 C 4.3301 7.0 0.0 0
M  V30 28 C 2.598 7.0 0.0 0
M  V30 29 C 6.0621 6.0 0.0 0
M  V30 30 C 3.4641 7.5 0.0 0
M  V30 31 N 3.4641 8.5 0.0 0
M  V30 32 C 4.3301 9.0 0.0 0
M  V30 33 C 2.598 9.0 0.0 0
M  V30 34 C 4.3301 10.0 0.0 0
M  V30 35 C 2.598 10.0 0.0 0
M  V30 36 O 3.4641 10.5 0.0 0
M  V30 END ATOM
M  V30 BEGIN BOND
M  V30 1 1 1 2
M  V30 2 1 2 3
M  V30 3 1 2 4
M  V30 4 1 2 5
M  V30 5 2 5 6
M  V30 6 1 5 7
M  V30 7 1 6 8
M  V30 8 1 6 9
M  V30 9 2 7 10
M  V30 10 1 8 11
M  V30 11 2 9 12
M  V30 12 2 11 13
M  V30 13 1 11 14
M  V30 14 1 12 15
M  V30 15 1 13 16
M  V30 16 1 13 17
M  V30 17 2 14 18
M  V30 18 1 15 19
M  V30 19 2 16 20
M  V30 20 1 16 21
M  V30 21 2 17 22
M  V30 22 2 19 23
M  V30 23 1 19 24
M  V30 24 1 21 25
M  V30 25 1 23 26
M  V30 26 1 23 27
M  V30 27 2 24 28
M  V30 28 1 26 29
M  V30 29 2 27 30
M  V30 30 1 30 31
M  V30 31 1 31 32
M  V30 32 1 31 33
M  V30 33 1 32 34
M  V30 34 1 33 35
M  V30 35 1 34 36
M  V30 36 1 10 12
M  V30 37 1 18 22
M  V30 38 1 28 30
M  V30 39 1 35 36
M  V30 END BOND
M  V30 END CTAB
M  END
>  <Molecule Name>
Compound 877

>  <Molecule Name 2>
Compound 877

>  <Compound ID>
237

>  <Name>
PND-1186

>  <Uniprot>
Q9BYT3

>  <Target>
STK33

>  <Smiles>
CNC(=O)C1=CC=CC=C1NC1=CC(NC2=CC=C(N3CCOCC3)C=C2OC)=NC=C1C(F)(F)F

>  <Kd (nM)>


>  <Assay (Kd)>


>  <Ki (nM)>


>  <Assay (Ki)>


>  <IC50 (nM)>


>  <Assay (IC50)>


>  <EC50 (nM)>


>  <Assay (EC50)>


>  <Article DOI>
10.1016/j.cell.2020.10.038

>  <Molecular Weight>
501.509

>  <Exact Mass>
501.1987744

>  <XLogP3>
4.7

>  <Heavy Atom Count>
36

>  <Ring Count>
4

>  <Hydrogen Bond Acceptor Count>
7

>  <Hydrogen Bond Donor Count>
3

>  <Rotatable Bond Count>
7

>  <Topological Polar Surface Area>
87.75

>  <Molecular Formula>
C25H26F3N5O3

>  <InChI>
InChI=1S/C25H26F3N5O3/c1-29-24(34)17-5-3-4-6-19(17)31-21-14-23(30-15-18(21)25(26,27)28)32-20-8-7-16(13-22(20)35-2)33-9-11-36-12-10-33/h3-8,13-15H,9-12H2,1-2H3,(H,29,34)(H2,30,31,32)

>  <InChI Key>
IGUBBWJDMLCRIK-UHFFFAOYSA-N

>  <BindingDB>
50440659

>  <PubChem>
25073775

>  <ChEMBL>
CHEMBL3040440

$$$$
237
Actelion Java MolfileCreator 2.0

  0  0  0  0  0  0              0 V3000
M  V30 BEGIN CTAB
M  V30 COUNTS 36 39 0 0 0
M  V30 BEGIN ATOM
M  V30 1 F 0.5 1.6339 0.0 0
M  V30 2 C 0.0 2.4999 0.0 0
M  V30 3 F -0.866 1.9999 0.0 0
M  V30 4 F -0.5 3.366 0.0 0
M  V30 5 C 0.866 2.9999 0.0 0
M  V30 6 C 1.732 2.5 0.0 0
M  V30 7 C 0.866 3.9999 0.0 0
M  V30 8 N 1.732 1.4999 0.0 0
M  V30 9 C 2.598 3.0 0.0 0
M  V30 10 N 1.732 4.5 0.0 0
M  V30 11 C 2.598 1.0 0.0 0
M  V30 12 C 2.598 4.0 0.0 0
M  V30 13 C 2.598 0.0 0.0 0
M  V30 14 C 3.4641 1.4999 0.0 0
M  V30 15 N 3.4641 4.5 0.0 0
M  V30 16 C 1.732 -0.5 0.0 0
M  V30 17 C 3.4641 -0.5 0.0 0
M  V30 18 C 4.3301 1.0 0.0 0
M  V30 19 C 3.4641 5.5 0.0 0
M  V30 20 O 1.732 -1.5 0.0 0
M  V30 21 N 0.866 0.0 0.0 0
M  V30 22 C 4.3301 0.0 0.0 0
M  V30 23 C 4.3301 6.0 0.0 0
M  V30 24 C 2.598 6.0 0.0 0
M  V30 25 C 0.0 -0.5 0.0 0
M  V30 26 O 5.1961 5.5 0.0 0
M  V30 27 C 4.3301 7.0 0.0 0
M  V30 28 C 2.598 7.0 0.0 0
M  V30 29 C 6.0621 6.0 0.0 0
M  V30 30 C 3.4641 7.5 0.0 0
M  V30 31 N 3.4641 8.5 0.0 0
M  V30 32 C 4.3301 9.0 0.0 0
M  V30 33 C 2.598 9.0 0.0 0
M  V30 34 C 4.3301 10.0 0.0 0
M  V30 35 C 2.598 10.0 0.0 0
M  V30 36 O 3.4641 10.5 0.0 0
M  V30 END ATOM
M  V30 BEGIN BOND
M  V30 1 1 1 2
M  V30 2 1 2 3
M  V30 3 1 2 4
M  V30 4 1 2 5
M  V30 5 2 5 6
M  V30 6 1 5 7
M  V30 7 1 6 8
M  V30 8 1 6 9
M  V30 9 2 7 10
M  V30 10 1 8 11
M  V30 11 2 9 12
M  V30 12 2 11 13
M  V30 13 1 11 14
M  V30 14 1 12 15
M  V30 15 1 13 16
M  V30 16 1 13 17
M  V30 17 2 14 18
M  V30 18 1 15 19
M  V30 19 2 16 20
M  V30 20 1 16 21
M  V30 21 2 17 22
M  V30 22 2 19 23
M  V30 23 1 19 24
M  V30 24 1 21 25
M  V30 25 1 23 26
M  V30 26 1 23 27
M  V30 27 2 24 28
M  V30 28 1 26 29
M  V30 29 2 27 30
M  V30 30 1 30 31
M  V30 31 1 31 32
M  V30 32 1 31 33
M  V30 33 1 32 34
M  V30 34 1 33 35
M  V30 35 1 34 36
M  V30 36 1 10 12
M  V30 37 1 18 22
M  V30 38 1 28 30
M  V30 39 1 35 36
M  V30 END BOND
M  V30 END CTAB
M  END
>  <Molecule Name>
Compound 878

>  <Molecule Name 2>
Compound 878

>  <Compound ID>
237

>  <Name>
PND-1186

>  <Uniprot>
P30291

>  <Target>
Wee1

>  <Smiles>
CNC(=O)C1=CC=CC=C1NC1=CC(NC2=CC=C(N3CCOCC3)C=C2OC)=NC=C1C(F)(F)F

>  <Kd (nM)>


>  <Assay (Kd)>


>  <Ki (nM)>


>  <Assay (Ki)>


>  <IC50 (nM)>


>  <Assay (IC50)>


>  <EC50 (nM)>


>  <Assay (EC50)>


>  <Article DOI>
10.1016/j.cell.2020.10.038

>  <Molecular Weight>
501.509

>  <Exact Mass>
501.1987744

>  <XLogP3>
4.7

>  <Heavy Atom Count>
36

>  <Ring Count>
4

>  <Hydrogen Bond Acceptor Count>
7

>  <Hydrogen Bond Donor Count>
3

>  <Rotatable Bond Count>
7

>  <Topological Polar Surface Area>
87.75

>  <Molecular Formula>
C25H26F3N5O3

>  <InChI>
InChI=1S/C25H26F3N5O3/c1-29-24(34)17-5-3-4-6-19(17)31-21-14-23(30-15-18(21)25(26,27)28)32-20-8-7-16(13-22(20)35-2)33-9-11-36-12-10-33/h3-8,13-15H,9-12H2,1-2H3,(H,29,34)(H2,30,31,32)

>  <InChI Key>
IGUBBWJDMLCRIK-UHFFFAOYSA-N

>  <BindingDB>
50440659

>  <PubChem>
25073775

>  <ChEMBL>
CHEMBL3040440

$$$$
238
Actelion Java MolfileCreator 2.0

  0  0  0  0  0  0              0 V3000
M  V30 BEGIN CTAB
M  V30 COUNTS 38 43 0 0 0
M  V30 BEGIN ATOM
M  V30 1 F 12.8636 1.1421 0.0 0
M  V30 2 C 13.3271 -0.2844 0.0 0
M  V30 3 F 14.7943 -0.5962 0.0 0
M  V30 4 C 12.3234 -1.3991 0.0 0
M  V30 5 C 12.7869 -2.8257 0.0 0
M  V30 6 C 10.8562 -1.0872 0.0 0
M  V30 7 C 14.2541 -3.1375 0.0 0
M  V30 8 C 11.7832 -3.9404 0.0 0
M  V30 9 C 9.8525 -2.2019 0.0 0
M  V30 10 C 15.3689 -2.1338 0.0 0
M  V30 11 C 14.8642 -4.5078 0.0 0
M  V30 12 C 10.316 -3.6285 0.0 0
M  V30 13 N 8.3853 -1.8901 0.0 0
M  V30 14 N 16.6679 -2.8838 0.0 0
M  V30 15 N 16.356 -4.3511 0.0 0
M  V30 16 C 9.3123 -4.7432 0.0 0
M  V30 17 C 7.9217 -0.4635 0.0 0
M  V30 18 C 7.3816 -3.0048 0.0 0
M  V30 19 C 17.3597 -5.4658 0.0 0
M  V30 20 C 7.8451 -4.4314 0.0 0
M  V30 21 N 8.8034 0.75 0.0 0
M  V30 22 C 6.4951 0.0 0.0 0
M  V30 23 N 7.9217 1.9635 0.0 0
M  V30 24 C 6.4951 1.5 0.0 0
M  V30 25 C 5.1961 -0.7499 0.0 0
M  V30 26 C 8.3853 3.3901 0.0 0
M  V30 27 C 5.1961 2.25 0.0 0
M  V30 28 N 3.8971 0.0 0.0 0
M  V30 29 C 9.8525 3.7019 0.0 0
M  V30 30 C 7.3816 4.5048 0.0 0
M  V30 31 C 3.8971 1.4999 0.0 0
M  V30 32 C 2.598 -0.75 0.0 0
M  V30 33 C 10.316 5.1285 0.0 0
M  V30 34 C 7.8451 5.9314 0.0 0
M  V30 35 O 1.299 0.0 0.0 0
M  V30 36 N 2.598 -2.25 0.0 0
M  V30 37 O 9.3123 6.2432 0.0 0
M  V30 38 C 1.299 -3.0 0.0 0
M  V30 END ATOM
M  V30 BEGIN BOND
M  V30 1 1 1 2
M  V30 2 1 2 3
M  V30 3 1 2 4
M  V30 4 2 4 5
M  V30 5 1 4 6
M  V30 6 1 5 7
M  V30 7 1 5 8
M  V30 8 2 6 9
M  V30 9 1 7 10
M  V30 10 2 7 11
M  V30 11 2 8 12
M  V30 12 1 9 13
M  V30 13 2 10 14
M  V30 14 1 11 15
M  V30 15 1 12 16
M  V30 16 1 13 17
M  V30 17 1 13 18
M  V30 18 1 15 19
M  V30 19 1 16 20
M  V30 20 2 17 21
M  V30 21 1 17 22
M  V30 22 1 21 23
M  V30 23 2 22 24
M  V30 24 1 22 25
M  V30 25 1 23 26
M  V30 26 1 24 27
M  V30 27 1 25 28
M  V30 28 1 26 29
M  V30 29 1 26 30
M  V30 30 1 27 31
M  V30 31 1 28 32
M  V30 32 1 29 33
M  V30 33 1 30 34
M  V30 34 2 32 35
M  V30 35 1 32 36
M  V30 36 1 33 37
M  V30 37 1 36 38
M  V30 38 1 9 12
M  V30 39 1 14 15
M  V30 40 1 18 20
M  V30 41 1 23 24
M  V30 42 1 28 31
M  V30 43 1 34 37
M  V30 END BOND
M  V30 END CTAB
M  END
>  <Molecule Name>
Compound 879

>  <Molecule Name 2>
Compound 879

>  <Compound ID>
238

>  <Name>
GNE-781

>  <Uniprot>
Q92793

>  <Target>
CBP

>  <Smiles>
CNC(=O)N1CCC2=C(C1)C(N1CCCC3=CC(C4=CN(C)N=C4)=C(C(F)F)C=C31)=NN2C1CCOCC1

>  <Kd (nM)>


>  <Assay (Kd)>


>  <Ki (nM)>


>  <Assay (Ki)>


>  <IC50 (nM)>
0.9

>  <Assay (IC50)>
IC50 was assessed by TR-FRET

>  <EC50 (nM)>


>  <Assay (EC50)>


>  <Article DOI>
10.1021/acs.jmedchem.7b00796

>  <Molecular Weight>
525.604

>  <Exact Mass>
525.2663797

>  <XLogP3>
2.7

>  <Heavy Atom Count>
38

>  <Ring Count>
6

>  <Hydrogen Bond Acceptor Count>
7

>  <Hydrogen Bond Donor Count>
1

>  <Rotatable Bond Count>
4

>  <Topological Polar Surface Area>
80.45

>  <Molecular Formula>
C27H33F2N7O2

>  <InChI>
InChI=1S/C27H33F2N7O2/c1-30-27(37)34-9-5-23-22(16-34)26(32-36(23)19-6-10-38-11-7-19)35-8-3-4-17-12-20(18-14-31-33(2)15-18)21(25(28)29)13-24(17)35/h12-15,19,25H,3-11,16H2,1-2H3,(H,30,37)

>  <InChI Key>
CQCWHSDMJBAGDC-UHFFFAOYSA-N

>  <BindingDB>
50269847

>  <PubChem>
132275066

>  <ChEMBL>
CHEMBL4097025

$$$$
238
Actelion Java MolfileCreator 2.0

  0  0  0  0  0  0              0 V3000
M  V30 BEGIN CTAB
M  V30 COUNTS 38 43 0 0 0
M  V30 BEGIN ATOM
M  V30 1 F 12.8636 1.1421 0.0 0
M  V30 2 C 13.3271 -0.2844 0.0 0
M  V30 3 F 14.7943 -0.5962 0.0 0
M  V30 4 C 12.3234 -1.3991 0.0 0
M  V30 5 C 12.7869 -2.8257 0.0 0
M  V30 6 C 10.8562 -1.0872 0.0 0
M  V30 7 C 14.2541 -3.1375 0.0 0
M  V30 8 C 11.7832 -3.9404 0.0 0
M  V30 9 C 9.8525 -2.2019 0.0 0
M  V30 10 C 15.3689 -2.1338 0.0 0
M  V30 11 C 14.8642 -4.5078 0.0 0
M  V30 12 C 10.316 -3.6285 0.0 0
M  V30 13 N 8.3853 -1.8901 0.0 0
M  V30 14 N 16.6679 -2.8838 0.0 0
M  V30 15 N 16.356 -4.3511 0.0 0
M  V30 16 C 9.3123 -4.7432 0.0 0
M  V30 17 C 7.9217 -0.4635 0.0 0
M  V30 18 C 7.3816 -3.0048 0.0 0
M  V30 19 C 17.3597 -5.4658 0.0 0
M  V30 20 C 7.8451 -4.4314 0.0 0
M  V30 21 N 8.8034 0.75 0.0 0
M  V30 22 C 6.4951 0.0 0.0 0
M  V30 23 N 7.9217 1.9635 0.0 0
M  V30 24 C 6.4951 1.5 0.0 0
M  V30 25 C 5.1961 -0.7499 0.0 0
M  V30 26 C 8.3853 3.3901 0.0 0
M  V30 27 C 5.1961 2.25 0.0 0
M  V30 28 N 3.8971 0.0 0.0 0
M  V30 29 C 9.8525 3.7019 0.0 0
M  V30 30 C 7.3816 4.5048 0.0 0
M  V30 31 C 3.8971 1.4999 0.0 0
M  V30 32 C 2.598 -0.75 0.0 0
M  V30 33 C 10.316 5.1285 0.0 0
M  V30 34 C 7.8451 5.9314 0.0 0
M  V30 35 O 1.299 0.0 0.0 0
M  V30 36 N 2.598 -2.25 0.0 0
M  V30 37 O 9.3123 6.2432 0.0 0
M  V30 38 C 1.299 -3.0 0.0 0
M  V30 END ATOM
M  V30 BEGIN BOND
M  V30 1 1 1 2
M  V30 2 1 2 3
M  V30 3 1 2 4
M  V30 4 2 4 5
M  V30 5 1 4 6
M  V30 6 1 5 7
M  V30 7 1 5 8
M  V30 8 2 6 9
M  V30 9 1 7 10
M  V30 10 2 7 11
M  V30 11 2 8 12
M  V30 12 1 9 13
M  V30 13 2 10 14
M  V30 14 1 11 15
M  V30 15 1 12 16
M  V30 16 1 13 17
M  V30 17 1 13 18
M  V30 18 1 15 19
M  V30 19 1 16 20
M  V30 20 2 17 21
M  V30 21 1 17 22
M  V30 22 1 21 23
M  V30 23 2 22 24
M  V30 24 1 22 25
M  V30 25 1 23 26
M  V30 26 1 24 27
M  V30 27 1 25 28
M  V30 28 1 26 29
M  V30 29 1 26 30
M  V30 30 1 27 31
M  V30 31 1 28 32
M  V30 32 1 29 33
M  V30 33 1 30 34
M  V30 34 2 32 35
M  V30 35 1 32 36
M  V30 36 1 33 37
M  V30 37 1 36 38
M  V30 38 1 9 12
M  V30 39 1 14 15
M  V30 40 1 18 20
M  V30 41 1 23 24
M  V30 42 1 28 31
M  V30 43 1 34 37
M  V30 END BOND
M  V30 END CTAB
M  END
>  <Molecule Name>
Compound 880

>  <Molecule Name 2>
Compound 880

>  <Compound ID>
238

>  <Name>
GNE-781

>  <Uniprot>
Q09472

>  <Target>
EP300

>  <Smiles>
CNC(=O)N1CCC2=C(C1)C(N1CCCC3=CC(C4=CN(C)N=C4)=C(C(F)F)C=C31)=NN2C1CCOCC1

>  <Kd (nM)>


>  <Assay (Kd)>


>  <Ki (nM)>


>  <Assay (Ki)>


>  <IC50 (nM)>
1.2

>  <Assay (IC50)>
IC50 was assessed by TR-FRET

>  <EC50 (nM)>


>  <Assay (EC50)>


>  <Article DOI>
10.1021/acs.jmedchem.7b00796

>  <Molecular Weight>
525.604

>  <Exact Mass>
525.2663797

>  <XLogP3>
2.7

>  <Heavy Atom Count>
38

>  <Ring Count>
6

>  <Hydrogen Bond Acceptor Count>
7

>  <Hydrogen Bond Donor Count>
1

>  <Rotatable Bond Count>
4

>  <Topological Polar Surface Area>
80.45

>  <Molecular Formula>
C27H33F2N7O2

>  <InChI>
InChI=1S/C27H33F2N7O2/c1-30-27(37)34-9-5-23-22(16-34)26(32-36(23)19-6-10-38-11-7-19)35-8-3-4-17-12-20(18-14-31-33(2)15-18)21(25(28)29)13-24(17)35/h12-15,19,25H,3-11,16H2,1-2H3,(H,30,37)

>  <InChI Key>
CQCWHSDMJBAGDC-UHFFFAOYSA-N

>  <BindingDB>
50269847

>  <PubChem>
132275066

>  <ChEMBL>
CHEMBL4097025

$$$$
239
Actelion Java MolfileCreator 2.0

  0  0  0  0  0  0              0 V3000
M  V30 BEGIN CTAB
M  V30 COUNTS 37 41 0 0 0
M  V30 BEGIN ATOM
M  V30 1 Cl 1.5647 -5.8555 0.0 0
M  V30 2 C 1.8595 -4.8999 0.0 0
M  V30 3 C 2.8344 -4.6774 0.0 0
M  V30 4 C 1.1793 -4.1669 0.0 0
M  V30 5 C 3.1292 -3.7218 0.0 0
M  V30 6 C 1.4741 -3.2113 0.0 0
M  V30 7 C 4.1264 -3.6471 0.0 0
M  V30 8 C 2.449 -2.9888 0.0 0
M  V30 9 N 4.6897 -2.8209 0.0 0
M  V30 10 C 4.6264 -4.5131 0.0 0
M  V30 11 C 2.598 -2.0 0.0 0
M  V30 12 C 4.3949 -1.8653 0.0 0
M  V30 13 C 4.1264 -5.3792 0.0 0
M  V30 14 C 5.6264 -4.5131 0.0 0
M  V30 15 N 1.732 -1.5 0.0 0
M  V30 16 C 3.4641 -1.5 0.0 0
M  V30 17 F 3.1264 -5.3792 0.0 0
M  V30 18 C 4.6264 -6.2452 0.0 0
M  V30 19 O 6.1264 -3.6471 0.0 0
M  V30 20 C 6.1264 -5.3792 0.0 0
M  V30 21 C 1.732 -0.5 0.0 0
M  V30 22 C 3.4641 -0.5 0.0 0
M  V30 23 C 5.6264 -6.2452 0.0 0
M  V30 24 C 7.1264 -3.6471 0.0 0
M  V30 25 N 2.598 0.0 0.0 0
M  V30 26 N 0.866 0.0 0.0 0
M  V30 27 C 0.0 -0.5 0.0 0
M  V30 28 C -0.866 0.0 0.0 0
M  V30 29 C 0.0 -1.4999 0.0 0
M  V30 30 C -1.732 -0.4999 0.0 0
M  V30 31 C -0.866 -1.9999 0.0 0
M  V30 32 O -2.598 0.0 0.0 0
M  V30 33 C -1.732 -1.4999 0.0 0
M  V30 34 C -3.4641 -0.4999 0.0 0
M  V30 35 C -2.598 -1.9999 0.0 0
M  V30 36 O -3.4641 -1.4999 0.0 0
M  V30 37 O -2.598 -2.9999 0.0 0
M  V30 END ATOM
M  V30 BEGIN BOND
M  V30 1 1 1 2
M  V30 2 2 2 3
M  V30 3 1 2 4
M  V30 4 1 3 5
M  V30 5 2 4 6
M  V30 6 1 5 7
M  V30 7 2 5 8
M  V30 8 2 7 9
M  V30 9 1 7 10
M  V30 10 1 8 11
M  V30 11 1 9 12
M  V30 12 2 10 13
M  V30 13 1 10 14
M  V30 14 2 11 15
M  V30 15 1 11 16
M  V30 16 1 13 17
M  V30 17 1 13 18
M  V30 18 1 14 19
M  V30 19 2 14 20
M  V30 20 1 15 21
M  V30 21 2 16 22
M  V30 22 2 18 23
M  V30 23 1 19 24
M  V30 24 2 21 25
M  V30 25 1 21 26
M  V30 26 1 26 27
M  V30 27 2 27 28
M  V30 28 1 27 29
M  V30 29 1 28 30
M  V30 30 2 29 31
M  V30 31 1 30 32
M  V30 32 2 30 33
M  V30 33 1 32 34
M  V30 34 1 33 35
M  V30 35 2 35 36
M  V30 36 1 35 37
M  V30 37 1 6 8
M  V30 38 1 12 16
M  V30 39 1 20 23
M  V30 40 1 22 25
M  V30 41 1 31 33
M  V30 END BOND
M  V30 END CTAB
M  END
>  <Molecule Name>
Compound 881

>  <Molecule Name 2>
Compound 881

>  <Compound ID>
239

>  <Name>
Alisertib

>  <Uniprot>
O14965

>  <Target>
AURKA

>  <Smiles>
COC1=CC(NC2=NC=C3CN=C(C4=C(F)C=CC=C4OC)C4=CC(Cl)=CC=C4C3=N2)=CC=C1C(=O)O

>  <Kd (nM)>


>  <Assay (Kd)>


>  <Ki (nM)>


>  <Assay (Ki)>


>  <IC50 (nM)>
1

>  <Assay (IC50)>
Inhibition of AURKA

>  <EC50 (nM)>


>  <Assay (EC50)>


>  <Article DOI>
10.1021/jm501326k

>  <Molecular Weight>
518.932

>  <Exact Mass>
518.115711

>  <XLogP3>
5.02

>  <Heavy Atom Count>
37

>  <Ring Count>
5

>  <Hydrogen Bond Acceptor Count>
7

>  <Hydrogen Bond Donor Count>
2

>  <Rotatable Bond Count>
6

>  <Topological Polar Surface Area>
105.93

>  <Molecular Formula>
C27H20ClFN4O4

>  <InChI>
InChI=1S/C27H20ClFN4O4/c1-36-21-5-3-4-20(29)23(21)25-19-10-15(28)6-8-17(19)24-14(12-30-25)13-31-27(33-24)32-16-7-9-18(26(34)35)22(11-16)37-2/h3-11,13H,12H2,1-2H3,(H,34,35)(H,31,32,33)

>  <InChI Key>
ZLHFILGSQDJULK-UHFFFAOYSA-N

>  <BindingDB>
50277545

>  <PubChem>
24771867

>  <ChEMBL>
CHEMBL483158

$$$$
239
Actelion Java MolfileCreator 2.0

  0  0  0  0  0  0              0 V3000
M  V30 BEGIN CTAB
M  V30 COUNTS 37 41 0 0 0
M  V30 BEGIN ATOM
M  V30 1 Cl 1.5647 -5.8555 0.0 0
M  V30 2 C 1.8595 -4.8999 0.0 0
M  V30 3 C 2.8344 -4.6774 0.0 0
M  V30 4 C 1.1793 -4.1669 0.0 0
M  V30 5 C 3.1292 -3.7218 0.0 0
M  V30 6 C 1.4741 -3.2113 0.0 0
M  V30 7 C 4.1264 -3.6471 0.0 0
M  V30 8 C 2.449 -2.9888 0.0 0
M  V30 9 N 4.6897 -2.8209 0.0 0
M  V30 10 C 4.6264 -4.5131 0.0 0
M  V30 11 C 2.598 -2.0 0.0 0
M  V30 12 C 4.3949 -1.8653 0.0 0
M  V30 13 C 4.1264 -5.3792 0.0 0
M  V30 14 C 5.6264 -4.5131 0.0 0
M  V30 15 N 1.732 -1.5 0.0 0
M  V30 16 C 3.4641 -1.5 0.0 0
M  V30 17 F 3.1264 -5.3792 0.0 0
M  V30 18 C 4.6264 -6.2452 0.0 0
M  V30 19 O 6.1264 -3.6471 0.0 0
M  V30 20 C 6.1264 -5.3792 0.0 0
M  V30 21 C 1.732 -0.5 0.0 0
M  V30 22 C 3.4641 -0.5 0.0 0
M  V30 23 C 5.6264 -6.2452 0.0 0
M  V30 24 C 7.1264 -3.6471 0.0 0
M  V30 25 N 2.598 0.0 0.0 0
M  V30 26 N 0.866 0.0 0.0 0
M  V30 27 C 0.0 -0.5 0.0 0
M  V30 28 C -0.866 0.0 0.0 0
M  V30 29 C 0.0 -1.4999 0.0 0
M  V30 30 C -1.732 -0.4999 0.0 0
M  V30 31 C -0.866 -1.9999 0.0 0
M  V30 32 O -2.598 0.0 0.0 0
M  V30 33 C -1.732 -1.4999 0.0 0
M  V30 34 C -3.4641 -0.4999 0.0 0
M  V30 35 C -2.598 -1.9999 0.0 0
M  V30 36 O -3.4641 -1.4999 0.0 0
M  V30 37 O -2.598 -2.9999 0.0 0
M  V30 END ATOM
M  V30 BEGIN BOND
M  V30 1 1 1 2
M  V30 2 2 2 3
M  V30 3 1 2 4
M  V30 4 1 3 5
M  V30 5 2 4 6
M  V30 6 1 5 7
M  V30 7 2 5 8
M  V30 8 2 7 9
M  V30 9 1 7 10
M  V30 10 1 8 11
M  V30 11 1 9 12
M  V30 12 2 10 13
M  V30 13 1 10 14
M  V30 14 2 11 15
M  V30 15 1 11 16
M  V30 16 1 13 17
M  V30 17 1 13 18
M  V30 18 1 14 19
M  V30 19 2 14 20
M  V30 20 1 15 21
M  V30 21 2 16 22
M  V30 22 2 18 23
M  V30 23 1 19 24
M  V30 24 2 21 25
M  V30 25 1 21 26
M  V30 26 1 26 27
M  V30 27 2 27 28
M  V30 28 1 27 29
M  V30 29 1 28 30
M  V30 30 2 29 31
M  V30 31 1 30 32
M  V30 32 2 30 33
M  V30 33 1 32 34
M  V30 34 1 33 35
M  V30 35 2 35 36
M  V30 36 1 35 37
M  V30 37 1 6 8
M  V30 38 1 12 16
M  V30 39 1 20 23
M  V30 40 1 22 25
M  V30 41 1 31 33
M  V30 END BOND
M  V30 END CTAB
M  END
>  <Molecule Name>
Compound 882

>  <Molecule Name 2>
Compound 882

>  <Compound ID>
239

>  <Name>
Alisertib

>  <Uniprot>
Q96GD4

>  <Target>
AURKB

>  <Smiles>
COC1=CC(NC2=NC=C3CN=C(C4=C(F)C=CC=C4OC)C4=CC(Cl)=CC=C4C3=N2)=CC=C1C(=O)O

>  <Kd (nM)>


>  <Assay (Kd)>


>  <Ki (nM)>


>  <Assay (Ki)>


>  <IC50 (nM)>
>200

>  <Assay (IC50)>
Inhibition of AURKB

>  <EC50 (nM)>


>  <Assay (EC50)>


>  <Article DOI>
10.1021/jm501326k

>  <Molecular Weight>
518.932

>  <Exact Mass>
518.115711

>  <XLogP3>
5.02

>  <Heavy Atom Count>
37

>  <Ring Count>
5

>  <Hydrogen Bond Acceptor Count>
7

>  <Hydrogen Bond Donor Count>
2

>  <Rotatable Bond Count>
6

>  <Topological Polar Surface Area>
105.93

>  <Molecular Formula>
C27H20ClFN4O4

>  <InChI>
InChI=1S/C27H20ClFN4O4/c1-36-21-5-3-4-20(29)23(21)25-19-10-15(28)6-8-17(19)24-14(12-30-25)13-31-27(33-24)32-16-7-9-18(26(34)35)22(11-16)37-2/h3-11,13H,12H2,1-2H3,(H,34,35)(H,31,32,33)

>  <InChI Key>
ZLHFILGSQDJULK-UHFFFAOYSA-N

>  <BindingDB>
50277545

>  <PubChem>
24771867

>  <ChEMBL>
CHEMBL483158

$$$$
240
Actelion Java MolfileCreator 2.0

  0  0  0  0  0  0              0 V3000
M  V30 BEGIN CTAB
M  V30 COUNTS 28 31 0 0 0
M  V30 BEGIN ATOM
M  V30 1 O 1.732 -0.5 0.0 0
M  V30 2 C 0.866 0.0 0.0 0
M  V30 3 N 0.866 1.0 0.0 0
M  V30 4 C 0.0 -0.5 0.0 0
M  V30 5 C 1.732 1.4999 0.0 0
M  V30 6 C 0.0 1.4999 0.0 0
M  V30 7 O -0.9135 -0.0932 0.0 0
M  V30 8 C -0.1045 -1.4945 0.0 0
M  V30 9 C 1.732 2.5 0.0 0
M  V30 10 C 0.0 2.5 0.0 0
M  V30 11 C -1.5826 -0.8364 0.0 0
M  V30 12 C -1.0826 -1.7024 0.0 0
M  V30 13 N 0.866 3.0 0.0 0
M  V30 14 C 0.866 4.0 0.0 0
M  V30 15 N 1.732 4.5 0.0 0
M  V30 16 N 0.0 4.4999 0.0 0
M  V30 17 C 1.732 5.5 0.0 0
M  V30 18 C 0.0 5.4999 0.0 0
M  V30 19 N 2.598 6.0 0.0 0
M  V30 20 C 0.866 6.0 0.0 0
M  V30 21 C -0.866 5.9999 0.0 0
M  V30 22 C 0.866 7.0 0.0 0
M  V30 23 C -0.866 6.9999 0.0 0
M  V30 24 C 0.0 7.4999 0.0 0
M  V30 25 O -1.732 7.5 0.0 0
M  V30 26 O 0.0 8.5 0.0 0
M  V30 27 C -2.598 6.9999 0.0 0
M  V30 28 C -0.866 8.9999 0.0 0
M  V30 END ATOM
M  V30 BEGIN BOND
M  V30 1 2 1 2
M  V30 2 1 2 3
M  V30 3 1 2 4
M  V30 4 1 3 5
M  V30 5 1 3 6
M  V30 6 1 4 7
M  V30 7 2 4 8
M  V30 8 1 5 9
M  V30 9 1 6 10
M  V30 10 1 7 11
M  V30 11 1 8 12
M  V30 12 1 9 13
M  V30 13 1 13 14
M  V30 14 1 14 15
M  V30 15 2 14 16
M  V30 16 2 15 17
M  V30 17 1 16 18
M  V30 18 1 17 19
M  V30 19 1 17 20
M  V30 20 2 18 21
M  V30 21 2 20 22
M  V30 22 1 21 23
M  V30 23 1 22 24
M  V30 24 1 23 25
M  V30 25 1 24 26
M  V30 26 1 25 27
M  V30 27 1 26 28
M  V30 28 1 10 13
M  V30 29 2 11 12
M  V30 30 1 18 20
M  V30 31 2 23 24
M  V30 END BOND
M  V30 END CTAB
M  END
>  <Molecule Name>
Compound 883

>  <Molecule Name 2>
Compound 883

>  <Compound ID>
240

>  <Name>
Prazosin

>  <Uniprot>
P35348

>  <Target>
ADRA1A

>  <Smiles>
COC1=CC2=NC(N3CCN(C(=O)C4=CC=CO4)CC3)=NC(N)=C2C=C1OC

>  <Kd (nM)>


>  <Assay (Kd)>


>  <Ki (nM)>
0.04

>  <Assay (Ki)>
Displacement of [3H]prazosin from human recombinant ADRA1A expressed in CHO cells

>  <IC50 (nM)>


>  <Assay (IC50)>


>  <EC50 (nM)>


>  <Assay (EC50)>


>  <Article DOI>
10.1021/jm401895u

>  <Molecular Weight>
383.408

>  <Exact Mass>
383.1593542

>  <XLogP3>
1.91

>  <Heavy Atom Count>
28

>  <Ring Count>
4

>  <Hydrogen Bond Acceptor Count>
8

>  <Hydrogen Bond Donor Count>
1

>  <Rotatable Bond Count>
4

>  <Topological Polar Surface Area>
106.95

>  <Molecular Formula>
C19H21N5O4

>  <InChI>
InChI=1S/C19H21N5O4/c1-26-15-10-12-13(11-16(15)27-2)21-19(22-17(12)20)24-7-5-23(6-8-24)18(25)14-4-3-9-28-14/h3-4,9-11H,5-8H2,1-2H3,(H2,20,21,22)

>  <InChI Key>
IENZQIKPVFGBNW-UHFFFAOYSA-N

>  <BindingDB>
29568

>  <PubChem>
4893

>  <ChEMBL>
CHEMBL2

$$$$
241
Actelion Java MolfileCreator 2.0

  0  0  0  0  0  0              0 V3000
M  V30 BEGIN CTAB
M  V30 COUNTS 32 36 0 0 0
M  V30 BEGIN ATOM
M  V30 1 S 6.3147 2.6276 0.0 0
M  V30 2 O 7.1807 2.1276 0.0 0
M  V30 3 O 5.4487 3.1276 0.0 0
M  V30 4 C 5.8147 1.7616 0.0 0
M  V30 5 C 6.8147 3.4937 0.0 0
M  V30 6 C 4.8147 1.7616 0.0 0
M  V30 7 C 6.3147 0.8956 0.0 0
M  V30 8 C 4.3147 0.8956 0.0 0
M  V30 9 C 5.8147 0.0296 0.0 0
M  V30 10 C 4.8147 0.0296 0.0 0
M  V30 11 C 4.3147 -0.8364 0.0 0
M  V30 12 C 3.3147 -0.8364 0.0 0
M  V30 13 C 4.8147 -1.7024 0.0 0
M  V30 14 N 2.6455 -0.0932 0.0 0
M  V30 15 N 2.8147 -1.7024 0.0 0
M  V30 16 C 4.3147 -2.5684 0.0 0
M  V30 17 C 1.732 -0.5 0.0 0
M  V30 18 N 1.8365 -1.4945 0.0 0
M  V30 19 C 3.3147 -2.5684 0.0 0
M  V30 20 N 0.866 0.0 0.0 0
M  V30 21 C 0.0 -0.5 0.0 0
M  V30 22 C -0.866 0.0 0.0 0
M  V30 23 C 0.0 -1.4999 0.0 0
M  V30 24 C -1.732 -0.4999 0.0 0
M  V30 25 C -0.866 -1.9999 0.0 0
M  V30 26 N -2.598 0.0 0.0 0
M  V30 27 C -1.732 -1.4999 0.0 0
M  V30 28 C -2.598 1.0 0.0 0
M  V30 29 C -3.4641 -0.4999 0.0 0
M  V30 30 C -3.4641 1.5 0.0 0
M  V30 31 C -4.3301 0.0 0.0 0
M  V30 32 N -4.3301 1.0 0.0 0
M  V30 END ATOM
M  V30 BEGIN BOND
M  V30 1 2 1 2
M  V30 2 2 1 3
M  V30 3 1 1 4
M  V30 4 1 1 5
M  V30 5 2 4 6
M  V30 6 1 4 7
M  V30 7 1 6 8
M  V30 8 2 7 9
M  V30 9 2 8 10
M  V30 10 1 10 11
M  V30 11 1 11 12
M  V30 12 2 11 13
M  V30 13 2 12 14
M  V30 14 1 12 15
M  V30 15 1 13 16
M  V30 16 1 14 17
M  V30 17 1 15 18
M  V30 18 1 15 19
M  V30 19 1 17 20
M  V30 20 1 20 21
M  V30 21 2 21 22
M  V30 22 1 21 23
M  V30 23 1 22 24
M  V30 24 2 23 25
M  V30 25 1 24 26
M  V30 26 2 24 27
M  V30 27 1 26 28
M  V30 28 1 26 29
M  V30 29 1 28 30
M  V30 30 1 29 31
M  V30 31 1 30 32
M  V30 32 1 9 10
M  V30 33 2 16 19
M  V30 34 2 17 18
M  V30 35 1 25 27
M  V30 36 1 31 32
M  V30 END BOND
M  V30 END CTAB
M  END
>  <Molecule Name>
Compound 884

>  <Molecule Name 2>
Compound 884

>  <Compound ID>
241

>  <Name>


>  <Uniprot>
Q2M2I8

>  <Target>
AAK1

>  <Smiles>
CS(=O)(=O)C1=CC=C(C2=CC=CN3N=C(NC4=CC=CC(N5CCNCC5)=C4)N=C23)C=C1

>  <Kd (nM)>


>  <Assay (Kd)>


>  <Ki (nM)>


>  <Assay (Ki)>


>  <IC50 (nM)>


>  <Assay (IC50)>


>  <EC50 (nM)>


>  <Assay (EC50)>


>  <Article DOI>
10.1016/j.cell.2020.10.038

>  <Molecular Weight>
448.552

>  <Exact Mass>
448.168145

>  <XLogP3>
2.95

>  <Heavy Atom Count>
32

>  <Ring Count>
5

>  <Hydrogen Bond Acceptor Count>
8

>  <Hydrogen Bond Donor Count>
2

>  <Rotatable Bond Count>
5

>  <Topological Polar Surface Area>
91.63

>  <Molecular Formula>
C23H24N6O2S

>  <InChI>
InChI=1S/C23H24N6O2S/c1-32(30,31)20-9-7-17(8-10-20)21-6-3-13-29-22(21)26-23(27-29)25-18-4-2-5-19(16-18)28-14-11-24-12-15-28/h2-10,13,16,24H,11-12,14-15H2,1H3,(H,25,27)

>  <InChI Key>
QZQNIZMXGYSGDX-UHFFFAOYSA-N

>  <BindingDB>
99680

>  <PubChem>
59612339

>  <ChEMBL>
CHEMBL3642402

$$$$
241
Actelion Java MolfileCreator 2.0

  0  0  0  0  0  0              0 V3000
M  V30 BEGIN CTAB
M  V30 COUNTS 32 36 0 0 0
M  V30 BEGIN ATOM
M  V30 1 S 6.3147 2.6276 0.0 0
M  V30 2 O 7.1807 2.1276 0.0 0
M  V30 3 O 5.4487 3.1276 0.0 0
M  V30 4 C 5.8147 1.7616 0.0 0
M  V30 5 C 6.8147 3.4937 0.0 0
M  V30 6 C 4.8147 1.7616 0.0 0
M  V30 7 C 6.3147 0.8956 0.0 0
M  V30 8 C 4.3147 0.8956 0.0 0
M  V30 9 C 5.8147 0.0296 0.0 0
M  V30 10 C 4.8147 0.0296 0.0 0
M  V30 11 C 4.3147 -0.8364 0.0 0
M  V30 12 C 3.3147 -0.8364 0.0 0
M  V30 13 C 4.8147 -1.7024 0.0 0
M  V30 14 N 2.6455 -0.0932 0.0 0
M  V30 15 N 2.8147 -1.7024 0.0 0
M  V30 16 C 4.3147 -2.5684 0.0 0
M  V30 17 C 1.732 -0.5 0.0 0
M  V30 18 N 1.8365 -1.4945 0.0 0
M  V30 19 C 3.3147 -2.5684 0.0 0
M  V30 20 N 0.866 0.0 0.0 0
M  V30 21 C 0.0 -0.5 0.0 0
M  V30 22 C -0.866 0.0 0.0 0
M  V30 23 C 0.0 -1.4999 0.0 0
M  V30 24 C -1.732 -0.4999 0.0 0
M  V30 25 C -0.866 -1.9999 0.0 0
M  V30 26 N -2.598 0.0 0.0 0
M  V30 27 C -1.732 -1.4999 0.0 0
M  V30 28 C -2.598 1.0 0.0 0
M  V30 29 C -3.4641 -0.4999 0.0 0
M  V30 30 C -3.4641 1.5 0.0 0
M  V30 31 C -4.3301 0.0 0.0 0
M  V30 32 N -4.3301 1.0 0.0 0
M  V30 END ATOM
M  V30 BEGIN BOND
M  V30 1 2 1 2
M  V30 2 2 1 3
M  V30 3 1 1 4
M  V30 4 1 1 5
M  V30 5 2 4 6
M  V30 6 1 4 7
M  V30 7 1 6 8
M  V30 8 2 7 9
M  V30 9 2 8 10
M  V30 10 1 10 11
M  V30 11 1 11 12
M  V30 12 2 11 13
M  V30 13 2 12 14
M  V30 14 1 12 15
M  V30 15 1 13 16
M  V30 16 1 14 17
M  V30 17 1 15 18
M  V30 18 1 15 19
M  V30 19 1 17 20
M  V30 20 1 20 21
M  V30 21 2 21 22
M  V30 22 1 21 23
M  V30 23 1 22 24
M  V30 24 2 23 25
M  V30 25 1 24 26
M  V30 26 2 24 27
M  V30 27 1 26 28
M  V30 28 1 26 29
M  V30 29 1 28 30
M  V30 30 1 29 31
M  V30 31 1 30 32
M  V30 32 1 9 10
M  V30 33 2 16 19
M  V30 34 2 17 18
M  V30 35 1 25 27
M  V30 36 1 31 32
M  V30 END BOND
M  V30 END CTAB
M  END
>  <Molecule Name>
Compound 885

>  <Molecule Name 2>
Compound 885

>  <Compound ID>
241

>  <Name>


>  <Uniprot>
O14965

>  <Target>
AURKA

>  <Smiles>
CS(=O)(=O)C1=CC=C(C2=CC=CN3N=C(NC4=CC=CC(N5CCNCC5)=C4)N=C23)C=C1

>  <Kd (nM)>


>  <Assay (Kd)>


>  <Ki (nM)>


>  <Assay (Ki)>


>  <IC50 (nM)>


>  <Assay (IC50)>


>  <EC50 (nM)>


>  <Assay (EC50)>


>  <Article DOI>
10.1016/j.cell.2020.10.038

>  <Molecular Weight>
448.552

>  <Exact Mass>
448.168145

>  <XLogP3>
2.95

>  <Heavy Atom Count>
32

>  <Ring Count>
5

>  <Hydrogen Bond Acceptor Count>
8

>  <Hydrogen Bond Donor Count>
2

>  <Rotatable Bond Count>
5

>  <Topological Polar Surface Area>
91.63

>  <Molecular Formula>
C23H24N6O2S

>  <InChI>
InChI=1S/C23H24N6O2S/c1-32(30,31)20-9-7-17(8-10-20)21-6-3-13-29-22(21)26-23(27-29)25-18-4-2-5-19(16-18)28-14-11-24-12-15-28/h2-10,13,16,24H,11-12,14-15H2,1H3,(H,25,27)

>  <InChI Key>
QZQNIZMXGYSGDX-UHFFFAOYSA-N

>  <BindingDB>
99680

>  <PubChem>
59612339

>  <ChEMBL>
CHEMBL3642402

$$$$
241
Actelion Java MolfileCreator 2.0

  0  0  0  0  0  0              0 V3000
M  V30 BEGIN CTAB
M  V30 COUNTS 32 36 0 0 0
M  V30 BEGIN ATOM
M  V30 1 S 6.3147 2.6276 0.0 0
M  V30 2 O 7.1807 2.1276 0.0 0
M  V30 3 O 5.4487 3.1276 0.0 0
M  V30 4 C 5.8147 1.7616 0.0 0
M  V30 5 C 6.8147 3.4937 0.0 0
M  V30 6 C 4.8147 1.7616 0.0 0
M  V30 7 C 6.3147 0.8956 0.0 0
M  V30 8 C 4.3147 0.8956 0.0 0
M  V30 9 C 5.8147 0.0296 0.0 0
M  V30 10 C 4.8147 0.0296 0.0 0
M  V30 11 C 4.3147 -0.8364 0.0 0
M  V30 12 C 3.3147 -0.8364 0.0 0
M  V30 13 C 4.8147 -1.7024 0.0 0
M  V30 14 N 2.6455 -0.0932 0.0 0
M  V30 15 N 2.8147 -1.7024 0.0 0
M  V30 16 C 4.3147 -2.5684 0.0 0
M  V30 17 C 1.732 -0.5 0.0 0
M  V30 18 N 1.8365 -1.4945 0.0 0
M  V30 19 C 3.3147 -2.5684 0.0 0
M  V30 20 N 0.866 0.0 0.0 0
M  V30 21 C 0.0 -0.5 0.0 0
M  V30 22 C -0.866 0.0 0.0 0
M  V30 23 C 0.0 -1.4999 0.0 0
M  V30 24 C -1.732 -0.4999 0.0 0
M  V30 25 C -0.866 -1.9999 0.0 0
M  V30 26 N -2.598 0.0 0.0 0
M  V30 27 C -1.732 -1.4999 0.0 0
M  V30 28 C -2.598 1.0 0.0 0
M  V30 29 C -3.4641 -0.4999 0.0 0
M  V30 30 C -3.4641 1.5 0.0 0
M  V30 31 C -4.3301 0.0 0.0 0
M  V30 32 N -4.3301 1.0 0.0 0
M  V30 END ATOM
M  V30 BEGIN BOND
M  V30 1 2 1 2
M  V30 2 2 1 3
M  V30 3 1 1 4
M  V30 4 1 1 5
M  V30 5 2 4 6
M  V30 6 1 4 7
M  V30 7 1 6 8
M  V30 8 2 7 9
M  V30 9 2 8 10
M  V30 10 1 10 11
M  V30 11 1 11 12
M  V30 12 2 11 13
M  V30 13 2 12 14
M  V30 14 1 12 15
M  V30 15 1 13 16
M  V30 16 1 14 17
M  V30 17 1 15 18
M  V30 18 1 15 19
M  V30 19 1 17 20
M  V30 20 1 20 21
M  V30 21 2 21 22
M  V30 22 1 21 23
M  V30 23 1 22 24
M  V30 24 2 23 25
M  V30 25 1 24 26
M  V30 26 2 24 27
M  V30 27 1 26 28
M  V30 28 1 26 29
M  V30 29 1 28 30
M  V30 30 1 29 31
M  V30 31 1 30 32
M  V30 32 1 9 10
M  V30 33 2 16 19
M  V30 34 2 17 18
M  V30 35 1 25 27
M  V30 36 1 31 32
M  V30 END BOND
M  V30 END CTAB
M  END
>  <Molecule Name>
Compound 886

>  <Molecule Name 2>
Compound 886

>  <Compound ID>
241

>  <Name>


>  <Uniprot>
O60674

>  <Target>
JAK2

>  <Smiles>
CS(=O)(=O)C1=CC=C(C2=CC=CN3N=C(NC4=CC=CC(N5CCNCC5)=C4)N=C23)C=C1

>  <Kd (nM)>


>  <Assay (Kd)>


>  <Ki (nM)>


>  <Assay (Ki)>


>  <IC50 (nM)>
0.97

>  <Assay (IC50)>
Inhibition of JAK2

>  <EC50 (nM)>


>  <Assay (EC50)>


>  <Article DOI>


>  <Molecular Weight>
448.552

>  <Exact Mass>
448.168145

>  <XLogP3>
2.95

>  <Heavy Atom Count>
32

>  <Ring Count>
5

>  <Hydrogen Bond Acceptor Count>
8

>  <Hydrogen Bond Donor Count>
2

>  <Rotatable Bond Count>
5

>  <Topological Polar Surface Area>
91.63

>  <Molecular Formula>
C23H24N6O2S

>  <InChI>
InChI=1S/C23H24N6O2S/c1-32(30,31)20-9-7-17(8-10-20)21-6-3-13-29-22(21)26-23(27-29)25-18-4-2-5-19(16-18)28-14-11-24-12-15-28/h2-10,13,16,24H,11-12,14-15H2,1H3,(H,25,27)

>  <InChI Key>
QZQNIZMXGYSGDX-UHFFFAOYSA-N

>  <BindingDB>
99680

>  <PubChem>
59612339

>  <ChEMBL>
CHEMBL3642402

$$$$
242
Actelion Java MolfileCreator 2.0

  0  0  0  0  0  0              0 V3000
M  V30 BEGIN CTAB
M  V30 COUNTS 32 34 0 0 0
M  V30 BEGIN ATOM
M  V30 1 S 4.3301 0.9999 0.0 0
M  V30 2 O 4.8301 1.866 0.0 0
M  V30 3 O 3.8301 0.1339 0.0 0
M  V30 4 C 3.4641 1.4999 0.0 0
M  V30 5 C 5.1961 0.4999 0.0 0
M  V30 6 C 2.598 0.9999 0.0 0
M  V30 7 C 3.4641 2.4999 0.0 0
M  V30 8 C 1.732 1.4999 0.0 0
M  V30 9 C 2.598 3.0 0.0 0
M  V30 10 C 1.732 2.4999 0.0 0
M  V30 11 C 0.866 0.9999 0.0 0
M  V30 12 N 0.866 0.0 0.0 0
M  V30 13 C 0.0 -0.5 0.0 0
M  V30 14 N -0.866 0.0 0.0 0
M  V30 15 C 0.0 -1.4999 0.0 0
M  V30 16 C -1.732 -0.4999 0.0 0
M  V30 17 C -0.866 -1.9999 0.0 0
M  V30 18 C 0.866 -2.0 0.0 0
M  V30 19 N -1.732 -1.4999 0.0 0
M  V30 20 N -2.598 0.0 0.0 0
M  V30 21 F 1.366 -1.1339 0.0 0
M  V30 22 F 1.732 -2.5 0.0 0
M  V30 23 F 0.366 -2.866 0.0 0
M  V30 24 C -3.4641 -0.4999 0.0 0
M  V30 25 C -4.3301 0.0 0.0 0
M  V30 26 C -3.4641 -1.4999 0.0 0
M  V30 27 C -5.1961 -0.4999 0.0 0
M  V30 28 C -4.3301 -1.9999 0.0 0
M  V30 29 C -5.1961 -1.4999 0.0 0
M  V30 30 C -6.0621 -1.9999 0.0 0
M  V30 31 O -6.9282 -1.4999 0.0 0
M  V30 32 N -6.0621 -2.9999 0.0 0
M  V30 END ATOM
M  V30 BEGIN BOND
M  V30 1 2 1 2
M  V30 2 2 1 3
M  V30 3 1 1 4
M  V30 4 1 1 5
M  V30 5 2 4 6
M  V30 6 1 4 7
M  V30 7 1 6 8
M  V30 8 2 7 9
M  V30 9 2 8 10
M  V30 10 1 8 11
M  V30 11 1 11 12
M  V30 12 1 12 13
M  V30 13 2 13 14
M  V30 14 1 13 15
M  V30 15 1 14 16
M  V30 16 2 15 17
M  V30 17 1 15 18
M  V30 18 2 16 19
M  V30 19 1 16 20
M  V30 20 1 18 21
M  V30 21 1 18 22
M  V30 22 1 18 23
M  V30 23 1 20 24
M  V30 24 2 24 25
M  V30 25 1 24 26
M  V30 26 1 25 27
M  V30 27 2 26 28
M  V30 28 2 27 29
M  V30 29 1 29 30
M  V30 30 2 30 31
M  V30 31 1 30 32
M  V30 32 1 9 10
M  V30 33 1 17 19
M  V30 34 1 28 29
M  V30 END BOND
M  V30 END CTAB
M  END
>  <Molecule Name>
Compound 887

>  <Molecule Name 2>
Compound 887

>  <Compound ID>
242

>  <Name>


>  <Uniprot>
Q05397

>  <Target>
FAK

>  <Smiles>
CS(=O)(=O)C1=CC=CC(CNC2=NC(NC3=CC=C(C(N)=O)C=C3)=NC=C2C(F)(F)F)=C1

>  <Kd (nM)>


>  <Assay (Kd)>


>  <Ki (nM)>


>  <Assay (Ki)>


>  <IC50 (nM)>
3.56

>  <Assay (IC50)>
Inhibition of FAK

>  <EC50 (nM)>


>  <Assay (EC50)>


>  <Article DOI>


>  <Molecular Weight>
465.457

>  <Exact Mass>
465.1082451

>  <XLogP3>
2.89

>  <Heavy Atom Count>
32

>  <Ring Count>
3

>  <Hydrogen Bond Acceptor Count>
7

>  <Hydrogen Bond Donor Count>
3

>  <Rotatable Bond Count>
7

>  <Topological Polar Surface Area>
127.07

>  <Molecular Formula>
C20H18F3N5O3S

>  <InChI>
InChI=1S/C20H18F3N5O3S/c1-32(30,31)15-4-2-3-12(9-15)10-25-18-16(20(21,22)23)11-26-19(28-18)27-14-7-5-13(6-8-14)17(24)29/h2-9,11H,10H2,1H3,(H2,24,29)(H2,25,26,27,28)

>  <InChI Key>
HESLPWPFBZVCFH-UHFFFAOYSA-N

>  <BindingDB>
418581

>  <PubChem>
57584452

>  <ChEMBL>


$$$$
243
Actelion Java MolfileCreator 2.0

  0  0  0  0  0  0              0 V3000
M  V30 BEGIN CTAB
M  V30 COUNTS 36 40 0 0 0
M  V30 BEGIN ATOM
M  V30 1 S 4.3301 -1.9999 0.0 0
M  V30 2 O 4.8301 -1.1339 0.0 0
M  V30 3 O 3.8301 -2.866 0.0 0
M  V30 4 C 3.4641 -1.4999 0.0 0
M  V30 5 C 5.1961 -2.4999 0.0 0
M  V30 6 C 3.4641 -0.4999 0.0 0
M  V30 7 C 2.598 0.0 0.0 0
M  V30 8 C 4.3301 0.0 0.0 0
M  V30 9 C 1.732 -0.5 0.0 0
M  V30 10 C 2.598 1.0 0.0 0
M  V30 11 C 4.3301 0.9999 0.0 0
M  V30 12 O 1.732 -1.5 0.0 0
M  V30 13 N 0.866 0.0 0.0 0
M  V30 14 C 3.4641 1.4999 0.0 0
M  V30 15 C 5.2718 1.3542 0.0 0
M  V30 16 C 0.0 -0.5 0.0 0
M  V30 17 N 3.315 2.4888 0.0 0
M  V30 18 C 5.5378 2.3182 0.0 0
M  V30 19 C 5.9736 0.6418 0.0 0
M  V30 20 C 2.3594 2.7835 0.0 0
M  V30 21 C 3.9952 3.2218 0.0 0
M  V30 22 C 6.5056 2.5698 0.0 0
M  V30 23 C 4.9995 3.1609 0.0 0
M  V30 24 N 6.9414 0.8934 0.0 0
M  V30 25 N 1.6264 2.1034 0.0 0
M  V30 26 C 2.1369 3.7585 0.0 0
M  V30 27 N 6.5654 3.568 0.0 0
M  V30 28 C 7.2074 1.8574 0.0 0
M  V30 29 C 5.6346 3.9333 0.0 0
M  V30 30 C 7.6432 0.181 0.0 0
M  V30 31 C 0.6708 2.3981 0.0 0
M  V30 32 F 2.87 4.4386 0.0 0
M  V30 33 C 1.1813 4.0532 0.0 0
M  V30 34 O 8.1753 2.109 0.0 0
M  V30 35 C 0.4483 3.373 0.0 0
M  V30 36 F -0.5072 3.6678 0.0 0
M  V30 END ATOM
M  V30 BEGIN BOND
M  V30 1 2 1 2
M  V30 2 2 1 3
M  V30 3 1 1 4
M  V30 4 1 1 5
M  V30 5 1 4 6
M  V30 6 2 6 7
M  V30 7 1 6 8
M  V30 8 1 7 9
M  V30 9 1 7 10
M  V30 10 2 8 11
M  V30 11 2 9 12
M  V30 12 1 9 13
M  V30 13 2 10 14
M  V30 14 1 11 15
M  V30 15 1 13 16
M  V30 16 1 14 17
M  V30 17 1 15 18
M  V30 18 2 15 19
M  V30 19 1 17 20
M  V30 20 1 17 21
M  V30 21 2 18 22
M  V30 22 1 18 23
M  V30 23 1 19 24
M  V30 24 2 20 25
M  V30 25 1 20 26
M  V30 26 1 22 27
M  V30 27 1 22 28
M  V30 28 2 23 29
M  V30 29 1 24 30
M  V30 30 1 25 31
M  V30 31 1 26 32
M  V30 32 2 26 33
M  V30 33 2 28 34
M  V30 34 2 31 35
M  V30 35 1 35 36
M  V30 36 1 11 14
M  V30 37 1 21 23
M  V30 38 1 24 28
M  V30 39 1 27 29
M  V30 40 1 33 35
M  V30 END BOND
M  V30 END CTAB
M  END
>  <Molecule Name>
Compound 888

>  <Molecule Name 2>
Compound 888

>  <Compound ID>
243

>  <Name>


>  <Uniprot>
O60885

>  <Target>
BRD4

>  <Smiles>
CNC(=O)C1=CC2=C(C=C1CS(C)(=O)=O)C1=CN(C)C(=O)C3=C1C(=C[NH]3)CN2C1=NC=C(F)C=C1F

>  <Kd (nM)>


>  <Assay (Kd)>


>  <Ki (nM)>


>  <Assay (Ki)>


>  <IC50 (nM)>
1.7/1.7

>  <Assay (IC50)>
IC50 of BRD4 BD1/BD2 was tested by TR-FRET

>  <EC50 (nM)>


>  <Assay (EC50)>


>  <Article DOI>
10.1021/acs.jmedchem.0c01846

>  <Molecular Weight>
513.526

>  <Exact Mass>
513.1282316

>  <XLogP3>
0.99

>  <Heavy Atom Count>
36

>  <Ring Count>
5

>  <Hydrogen Bond Acceptor Count>
7

>  <Hydrogen Bond Donor Count>
2

>  <Rotatable Bond Count>
4

>  <Topological Polar Surface Area>
117.16

>  <Molecular Formula>
C24H21F2N5O4S

>  <InChI>
InChI=1S/C24H21F2N5O4S/c1-27-23(32)15-6-19-16(4-12(15)11-36(3,34)35)17-10-30(2)24(33)21-20(17)13(7-28-21)9-31(19)22-18(26)5-14(25)8-29-22/h4-8,10,28H,9,11H2,1-3H3,(H,27,32)

>  <InChI Key>
KGTUURPJIKQHBX-UHFFFAOYSA-N

>  <BindingDB>


>  <PubChem>


>  <ChEMBL>


$$$$
244
Actelion Java MolfileCreator 2.0

  0  0  0  0  0  0              0 V3000
M  V30 BEGIN CTAB
M  V30 COUNTS 27 29 0 0 0
M  V30 BEGIN ATOM
M  V30 1 S 4.3301 -1.9999 0.0 0
M  V30 2 O 3.8301 -2.866 0.0 0
M  V30 3 O 4.8301 -1.1339 0.0 0
M  V30 4 N 5.1961 -2.5 0.0 0
M  V30 5 C 3.4641 -1.4999 0.0 0
M  V30 6 C 3.4641 -0.5 0.0 0
M  V30 7 C 2.598 -1.9999 0.0 0
M  V30 8 C 2.598 0.0 0.0 0
M  V30 9 C 1.732 -1.5 0.0 0
M  V30 10 C 1.732 -0.5 0.0 0
M  V30 11 N 0.866 0.0 0.0 0
M  V30 12 C 0.0 -0.5 0.0 0
M  V30 13 N -0.9135 -0.0932 0.0 0
M  V30 14 N -0.1045 -1.4945 0.0 0
M  V30 15 N -1.5826 -0.8364 0.0 0
M  V30 16 C -1.0826 -1.7024 0.0 0
M  V30 17 C -2.5771 -0.7318 0.0 0
M  V30 18 N -1.4894 -2.6159 0.0 0
M  V30 19 O -3.1649 -1.5408 0.0 0
M  V30 20 C -2.9839 0.1816 0.0 0
M  V30 21 C -3.9784 0.2861 0.0 0
M  V30 22 C -2.3961 0.9906 0.0 0
M  V30 23 F -4.5662 -0.5228 0.0 0
M  V30 24 C -4.3851 1.1997 0.0 0
M  V30 25 F -1.4016 0.8861 0.0 0
M  V30 26 C -2.8028 1.9042 0.0 0
M  V30 27 C -3.7974 2.0087 0.0 0
M  V30 END ATOM
M  V30 BEGIN BOND
M  V30 1 2 1 2
M  V30 2 2 1 3
M  V30 3 1 1 4
M  V30 4 1 1 5
M  V30 5 2 5 6
M  V30 6 1 5 7
M  V30 7 1 6 8
M  V30 8 2 7 9
M  V30 9 2 8 10
M  V30 10 1 10 11
M  V30 11 1 11 12
M  V30 12 2 12 13
M  V30 13 1 12 14
M  V30 14 1 13 15
M  V30 15 2 14 16
M  V30 16 1 15 17
M  V30 17 1 16 18
M  V30 18 2 17 19
M  V30 19 1 17 20
M  V30 20 2 20 21
M  V30 21 1 20 22
M  V30 22 1 21 23
M  V30 23 1 21 24
M  V30 24 1 22 25
M  V30 25 2 22 26
M  V30 26 2 24 27
M  V30 27 1 9 10
M  V30 28 1 15 16
M  V30 29 1 26 27
M  V30 END BOND
M  V30 END CTAB
M  END
>  <Molecule Name>
Compound 889

>  <Molecule Name 2>
Compound 889

>  <Compound ID>
244

>  <Name>
JNJ-7706621

>  <Uniprot>
P24941

>  <Target>
CDK2

>  <Smiles>
NC1=NC(NC2=CC=C(S(N)(=O)=O)C=C2)=NN1C(=O)C1=C(F)C=CC=C1F

>  <Kd (nM)>


>  <Assay (Kd)>


>  <Ki (nM)>


>  <Assay (Ki)>


>  <IC50 (nM)>
2

>  <Assay (IC50)>
IC50 was assessed by RET Kinase Enzymatic Assay

>  <EC50 (nM)>


>  <Assay (EC50)>


>  <Article DOI>
10.1021/jm050267e

>  <Molecular Weight>
394.363

>  <Exact Mass>
394.0659657

>  <XLogP3>
2.39

>  <Heavy Atom Count>
27

>  <Ring Count>
3

>  <Hydrogen Bond Acceptor Count>
8

>  <Hydrogen Bond Donor Count>
3

>  <Rotatable Bond Count>
4

>  <Topological Polar Surface Area>
145.99

>  <Molecular Formula>
C15H12F2N6O3S

>  <InChI>
InChI=1S/C15H12F2N6O3S/c16-10-2-1-3-11(17)12(10)13(24)23-14(18)21-15(22-23)20-8-4-6-9(7-5-8)27(19,25)26/h1-7H,(H2,19,25,26)(H3,18,20,21,22)

>  <InChI Key>
KDKUVYLMPJIGKA-UHFFFAOYSA-N

>  <BindingDB>
6866

>  <PubChem>
5330790

>  <ChEMBL>
CHEMBL191003

$$$$
245
Actelion Java MolfileCreator 2.0

  0  0  0  0  0  0              0 V3000
M  V30 BEGIN CTAB
M  V30 COUNTS 23 26 0 0 0
M  V30 BEGIN ATOM
M  V30 1 O 2.598 0.9999 0.0 0
M  V30 2 C 1.732 1.4999 0.0 0
M  V30 3 C 2.598 0.0 0.0 0
M  V30 4 C 0.866 0.9999 0.0 0
M  V30 5 C 1.732 -0.5 0.0 0
M  V30 6 N 0.866 0.0 0.0 0
M  V30 7 C 0.0 -0.5 0.0 0
M  V30 8 N -0.866 0.0 0.0 0
M  V30 9 C 0.0 -1.4999 0.0 0
M  V30 10 C -1.732 -0.4999 0.0 0
M  V30 11 C -0.866 -1.9999 0.0 0
M  V30 12 C 0.7431 -2.1691 0.0 0
M  V30 13 N -1.732 -1.4999 0.0 0
M  V30 14 N -0.6581 -2.9781 0.0 0
M  V30 15 C 1.7212 -1.9612 0.0 0
M  V30 16 C 0.3364 -3.0826 0.0 0
M  V30 17 C 2.3904 -2.7043 0.0 0
M  V30 18 C 2.0303 -1.0101 0.0 0
M  V30 19 C 3.3685 -2.4964 0.0 0
M  V30 20 C 3.0084 -0.8022 0.0 0
M  V30 21 C 4.0377 -3.2395 0.0 0
M  V30 22 C 3.6775 -1.5453 0.0 0
M  V30 23 N 4.7068 -3.9827 0.0 0
M  V30 END ATOM
M  V30 BEGIN BOND
M  V30 1 1 1 2
M  V30 2 1 1 3
M  V30 3 1 2 4
M  V30 4 1 3 5
M  V30 5 1 4 6
M  V30 6 1 6 7
M  V30 7 2 7 8
M  V30 8 1 7 9
M  V30 9 1 8 10
M  V30 10 2 9 11
M  V30 11 1 9 12
M  V30 12 2 10 13
M  V30 13 1 11 14
M  V30 14 1 12 15
M  V30 15 2 12 16
M  V30 16 2 15 17
M  V30 17 1 15 18
M  V30 18 1 17 19
M  V30 19 2 18 20
M  V30 20 1 19 21
M  V30 21 2 19 22
M  V30 22 3 21 23
M  V30 23 1 5 6
M  V30 24 1 11 13
M  V30 25 1 14 16
M  V30 26 1 20 22
M  V30 END BOND
M  V30 END CTAB
M  END
>  <Molecule Name>
Compound 890

>  <Molecule Name 2>
Compound 890

>  <Compound ID>
245

>  <Name>
PF-06447475

>  <Uniprot>
Q5S007

>  <Target>
LRRK2

>  <Smiles>
N#CC1=CC=CC(C2=C[NH]C3=NC=NC(N4CCOCC4)=C23)=C1

>  <Kd (nM)>


>  <Assay (Kd)>


>  <Ki (nM)>


>  <Assay (Ki)>


>  <IC50 (nM)>
3

>  <Assay (IC50)>
Inhibition of LRRK2

>  <EC50 (nM)>


>  <Assay (EC50)>


>  <Article DOI>
10.1021/jm5014055

>  <Molecular Weight>
305.341

>  <Exact Mass>
305.1276601

>  <XLogP3>
2.09

>  <Heavy Atom Count>
23

>  <Ring Count>
4

>  <Hydrogen Bond Acceptor Count>
5

>  <Hydrogen Bond Donor Count>
1

>  <Rotatable Bond Count>
2

>  <Topological Polar Surface Area>
77.83

>  <Molecular Formula>
C17H15N5O

>  <InChI>
InChI=1S/C17H15N5O/c18-9-12-2-1-3-13(8-12)14-10-19-16-15(14)17(21-11-20-16)22-4-6-23-7-5-22/h1-3,8,10-11H,4-7H2,(H,19,20,21)

>  <InChI Key>
BHTWDJBVZQBRKP-UHFFFAOYSA-N

>  <BindingDB>
50059277

>  <PubChem>
72706840

>  <ChEMBL>
CHEMBL3393348

$$$$
246
Actelion Java MolfileCreator 2.0

  0  0  0  0  0  0              0 V3000
M  V30 BEGIN CTAB
M  V30 COUNTS 21 23 0 0 0
M  V30 BEGIN ATOM
M  V30 1 Cl 2.598 -3.0 0.0 0
M  V30 2 C 2.598 -1.9999 0.0 0
M  V30 3 C 3.4641 -1.5 0.0 0
M  V30 4 C 1.732 -1.5 0.0 0
M  V30 5 C 4.3301 -2.0 0.0 0
M  V30 6 C 3.4641 -0.5 0.0 0
M  V30 7 C 1.732 -0.5 0.0 0
M  V30 8 N 5.1961 -2.5 0.0 0
M  V30 9 C 2.598 0.0 0.0 0
M  V30 10 O 0.866 0.0 0.0 0
M  V30 11 C 0.0 -0.5 0.0 0 CFG=1
M  V30 12 C -0.9135 -0.0932 0.0 0
M  V30 13 C -0.1045 -1.4945 0.0 0
M  V30 14 C -1.5826 -0.8364 0.0 0 CFG=1
M  V30 15 C -1.0826 -1.7024 0.0 0 CFG=2
M  V30 16 C -2.5608 -1.0443 0.0 0
M  V30 17 C -2.0826 0.0296 0.0 0
M  V30 18 C -1.7518 -2.4455 0.0 0
M  V30 19 C -0.5826 -2.5684 0.0 0
M  V30 20 C -2.6653 -2.0388 0.0 0 CFG=1
M  V30 21 N -3.5313 -2.5388 0.0 0
M  V30 END ATOM
M  V30 BEGIN BOND
M  V30 1 1 1 2
M  V30 2 2 2 3
M  V30 3 1 2 4
M  V30 4 1 3 5
M  V30 5 1 3 6
M  V30 6 2 4 7
M  V30 7 3 5 8
M  V30 8 2 6 9
M  V30 9 1 7 10
M  V30 10 1 11 10 CFG=3
M  V30 11 1 11 12
M  V30 12 1 11 13
M  V30 13 1 14 12
M  V30 14 1 15 13
M  V30 15 1 14 16
M  V30 16 1 14 17 CFG=3
M  V30 17 1 15 18
M  V30 18 1 15 19 CFG=3
M  V30 19 1 20 16
M  V30 20 1 20 21 CFG=1
M  V30 21 1 7 9
M  V30 22 1 14 15
M  V30 23 1 18 20
M  V30 END BOND
M  V30 BEGIN COLLECTION
M  V30 MDLV30/STEABS ATOMS=(4 11 14 15 20)
M  V30 END COLLECTION
M  V30 END CTAB
M  END
>  <Molecule Name>
Compound 891

>  <Molecule Name 2>
Compound 891

>  <Compound ID>
246

>  <Name>


>  <Uniprot>
P10275

>  <Target>
AR

>  <Smiles>
C[C@@]12C[C@H](N)C[C@]1(C)C[C@@H](OC1=CC=C(C#N)C(Cl)=C1)C2

>  <Kd (nM)>


>  <Assay (Kd)>


>  <Ki (nM)>


>  <Assay (Ki)>


>  <IC50 (nM)>


>  <Assay (IC50)>


>  <EC50 (nM)>


>  <Assay (EC50)>


>  <Article DOI>
10.1016/j.ejmech.2021.113307

>  <Molecular Weight>
304.821

>  <Exact Mass>
304.134241

>  <XLogP3>
3.71

>  <Heavy Atom Count>
21

>  <Ring Count>
3

>  <Hydrogen Bond Acceptor Count>
3

>  <Hydrogen Bond Donor Count>
1

>  <Rotatable Bond Count>
2

>  <Topological Polar Surface Area>
59.04

>  <Molecular Formula>
C17H21ClN2O

>  <InChI>
InChI=1S/C17H21ClN2O/c1-16-6-12(20)7-17(16,2)9-14(8-16)21-13-4-3-11(10-19)15(18)5-13/h3-5,12,14H,6-9,20H2,1-2H3/t12-,14-,16-,17+

>  <InChI Key>
RFQDHBZIHFPOPH-TXXPCCECSA-N

>  <BindingDB>


>  <PubChem>


>  <ChEMBL>


$$$$
247
Actelion Java MolfileCreator 2.0

  0  0  0  0  0  0              0 V3000
M  V30 BEGIN CTAB
M  V30 COUNTS 25 28 0 0 0
M  V30 BEGIN ATOM
M  V30 1 N 6.0621 -1.0 0.0 0
M  V30 2 C 5.1961 -1.5 0.0 0
M  V30 3 C 4.3301 -1.9999 0.0 0
M  V30 4 C 3.4641 -1.4999 0.0 0
M  V30 5 C 3.4641 -0.5 0.0 0
M  V30 6 C 2.598 -1.9999 0.0 0
M  V30 7 C 2.598 0.0 0.0 0
M  V30 8 C 1.732 -1.5 0.0 0
M  V30 9 C 1.732 -0.5 0.0 0
M  V30 10 N 0.866 0.0 0.0 0
M  V30 11 C 0.0 -0.5 0.0 0
M  V30 12 N -0.866 0.0 0.0 0
M  V30 13 N 0.0 -1.4999 0.0 0
M  V30 14 C -1.732 -0.4999 0.0 0
M  V30 15 C -0.866 -2.0 0.0 0
M  V30 16 N -2.598 0.0 0.0 0
M  V30 17 C -1.732 -1.5 0.0 0
M  V30 18 C -3.4641 -0.4999 0.0 0
M  V30 19 N -4.3776 -0.0932 0.0 0
M  V30 20 C -3.5686 -1.4945 0.0 0
M  V30 21 N -5.0467 -0.8364 0.0 0
M  V30 22 C -4.5467 -1.7024 0.0 0
M  V30 23 C -4.9535 -2.6159 0.0 0
M  V30 24 C -5.7625 -3.2037 0.0 0
M  V30 25 C -4.8489 -3.6105 0.0 0
M  V30 END ATOM
M  V30 BEGIN BOND
M  V30 1 3 1 2
M  V30 2 1 2 3
M  V30 3 1 3 4
M  V30 4 2 4 5
M  V30 5 1 4 6
M  V30 6 1 5 7
M  V30 7 2 6 8
M  V30 8 2 7 9
M  V30 9 1 9 10
M  V30 10 1 10 11
M  V30 11 2 11 12
M  V30 12 1 11 13
M  V30 13 1 12 14
M  V30 14 2 13 15
M  V30 15 1 14 16
M  V30 16 2 14 17
M  V30 17 1 16 18
M  V30 18 2 18 19
M  V30 19 1 18 20
M  V30 20 1 19 21
M  V30 21 2 20 22
M  V30 22 1 22 23
M  V30 23 1 23 24
M  V30 24 1 23 25
M  V30 25 1 8 9
M  V30 26 1 15 17
M  V30 27 1 21 22
M  V30 28 1 24 25
M  V30 END BOND
M  V30 END CTAB
M  END
>  <Molecule Name>
Compound 892

>  <Molecule Name 2>
Compound 892

>  <Compound ID>
247

>  <Name>


>  <Uniprot>
Q2M2I8

>  <Target>
AAK1

>  <Smiles>
N#CCC1=CC=C(NC2=NC=CC(NC3=N[NH]C(C4CC4)=C3)=N2)C=C1

>  <Kd (nM)>


>  <Assay (Kd)>


>  <Ki (nM)>


>  <Assay (Ki)>


>  <IC50 (nM)>


>  <Assay (IC50)>


>  <EC50 (nM)>


>  <Assay (EC50)>


>  <Article DOI>
10.1016/j.cell.2020.10.038

>  <Molecular Weight>
331.383

>  <Exact Mass>
331.1545435

>  <XLogP3>
2.81

>  <Heavy Atom Count>
25

>  <Ring Count>
4

>  <Hydrogen Bond Acceptor Count>
6

>  <Hydrogen Bond Donor Count>
3

>  <Rotatable Bond Count>
6

>  <Topological Polar Surface Area>
102.31

>  <Molecular Formula>
C18H17N7

>  <InChI>
InChI=1S/C18H17N7/c19-9-7-12-1-5-14(6-2-12)21-18-20-10-8-16(23-18)22-17-11-15(24-25-17)13-3-4-13/h1-2,5-6,8,10-11,13H,3-4,7H2,(H3,20,21,22,23,24,25)

>  <InChI Key>
YRRRHSNOXWKVDL-UHFFFAOYSA-N

>  <BindingDB>


>  <PubChem>
45111332

>  <ChEMBL>


$$$$
247
Actelion Java MolfileCreator 2.0

  0  0  0  0  0  0              0 V3000
M  V30 BEGIN CTAB
M  V30 COUNTS 25 28 0 0 0
M  V30 BEGIN ATOM
M  V30 1 N 6.0621 -1.0 0.0 0
M  V30 2 C 5.1961 -1.5 0.0 0
M  V30 3 C 4.3301 -1.9999 0.0 0
M  V30 4 C 3.4641 -1.4999 0.0 0
M  V30 5 C 3.4641 -0.5 0.0 0
M  V30 6 C 2.598 -1.9999 0.0 0
M  V30 7 C 2.598 0.0 0.0 0
M  V30 8 C 1.732 -1.5 0.0 0
M  V30 9 C 1.732 -0.5 0.0 0
M  V30 10 N 0.866 0.0 0.0 0
M  V30 11 C 0.0 -0.5 0.0 0
M  V30 12 N -0.866 0.0 0.0 0
M  V30 13 N 0.0 -1.4999 0.0 0
M  V30 14 C -1.732 -0.4999 0.0 0
M  V30 15 C -0.866 -2.0 0.0 0
M  V30 16 N -2.598 0.0 0.0 0
M  V30 17 C -1.732 -1.5 0.0 0
M  V30 18 C -3.4641 -0.4999 0.0 0
M  V30 19 N -4.3776 -0.0932 0.0 0
M  V30 20 C -3.5686 -1.4945 0.0 0
M  V30 21 N -5.0467 -0.8364 0.0 0
M  V30 22 C -4.5467 -1.7024 0.0 0
M  V30 23 C -4.9535 -2.6159 0.0 0
M  V30 24 C -5.7625 -3.2037 0.0 0
M  V30 25 C -4.8489 -3.6105 0.0 0
M  V30 END ATOM
M  V30 BEGIN BOND
M  V30 1 3 1 2
M  V30 2 1 2 3
M  V30 3 1 3 4
M  V30 4 2 4 5
M  V30 5 1 4 6
M  V30 6 1 5 7
M  V30 7 2 6 8
M  V30 8 2 7 9
M  V30 9 1 9 10
M  V30 10 1 10 11
M  V30 11 2 11 12
M  V30 12 1 11 13
M  V30 13 1 12 14
M  V30 14 2 13 15
M  V30 15 1 14 16
M  V30 16 2 14 17
M  V30 17 1 16 18
M  V30 18 2 18 19
M  V30 19 1 18 20
M  V30 20 1 19 21
M  V30 21 2 20 22
M  V30 22 1 22 23
M  V30 23 1 23 24
M  V30 24 1 23 25
M  V30 25 1 8 9
M  V30 26 1 15 17
M  V30 27 1 21 22
M  V30 28 1 24 25
M  V30 END BOND
M  V30 END CTAB
M  END
>  <Molecule Name>
Compound 893

>  <Molecule Name 2>
Compound 893

>  <Compound ID>
247

>  <Name>


>  <Uniprot>
O14965

>  <Target>
AURKA

>  <Smiles>
N#CCC1=CC=C(NC2=NC=CC(NC3=N[NH]C(C4CC4)=C3)=N2)C=C1

>  <Kd (nM)>


>  <Assay (Kd)>


>  <Ki (nM)>


>  <Assay (Ki)>


>  <IC50 (nM)>


>  <Assay (IC50)>


>  <EC50 (nM)>


>  <Assay (EC50)>


>  <Article DOI>
10.1016/j.cell.2020.10.038

>  <Molecular Weight>
331.383

>  <Exact Mass>
331.1545435

>  <XLogP3>
2.81

>  <Heavy Atom Count>
25

>  <Ring Count>
4

>  <Hydrogen Bond Acceptor Count>
6

>  <Hydrogen Bond Donor Count>
3

>  <Rotatable Bond Count>
6

>  <Topological Polar Surface Area>
102.31

>  <Molecular Formula>
C18H17N7

>  <InChI>
InChI=1S/C18H17N7/c19-9-7-12-1-5-14(6-2-12)21-18-20-10-8-16(23-18)22-17-11-15(24-25-17)13-3-4-13/h1-2,5-6,8,10-11,13H,3-4,7H2,(H3,20,21,22,23,24,25)

>  <InChI Key>
YRRRHSNOXWKVDL-UHFFFAOYSA-N

>  <BindingDB>


>  <PubChem>
45111332

>  <ChEMBL>


$$$$
247
Actelion Java MolfileCreator 2.0

  0  0  0  0  0  0              0 V3000
M  V30 BEGIN CTAB
M  V30 COUNTS 25 28 0 0 0
M  V30 BEGIN ATOM
M  V30 1 N 6.0621 -1.0 0.0 0
M  V30 2 C 5.1961 -1.5 0.0 0
M  V30 3 C 4.3301 -1.9999 0.0 0
M  V30 4 C 3.4641 -1.4999 0.0 0
M  V30 5 C 3.4641 -0.5 0.0 0
M  V30 6 C 2.598 -1.9999 0.0 0
M  V30 7 C 2.598 0.0 0.0 0
M  V30 8 C 1.732 -1.5 0.0 0
M  V30 9 C 1.732 -0.5 0.0 0
M  V30 10 N 0.866 0.0 0.0 0
M  V30 11 C 0.0 -0.5 0.0 0
M  V30 12 N -0.866 0.0 0.0 0
M  V30 13 N 0.0 -1.4999 0.0 0
M  V30 14 C -1.732 -0.4999 0.0 0
M  V30 15 C -0.866 -2.0 0.0 0
M  V30 16 N -2.598 0.0 0.0 0
M  V30 17 C -1.732 -1.5 0.0 0
M  V30 18 C -3.4641 -0.4999 0.0 0
M  V30 19 N -4.3776 -0.0932 0.0 0
M  V30 20 C -3.5686 -1.4945 0.0 0
M  V30 21 N -5.0467 -0.8364 0.0 0
M  V30 22 C -4.5467 -1.7024 0.0 0
M  V30 23 C -4.9535 -2.6159 0.0 0
M  V30 24 C -5.7625 -3.2037 0.0 0
M  V30 25 C -4.8489 -3.6105 0.0 0
M  V30 END ATOM
M  V30 BEGIN BOND
M  V30 1 3 1 2
M  V30 2 1 2 3
M  V30 3 1 3 4
M  V30 4 2 4 5
M  V30 5 1 4 6
M  V30 6 1 5 7
M  V30 7 2 6 8
M  V30 8 2 7 9
M  V30 9 1 9 10
M  V30 10 1 10 11
M  V30 11 2 11 12
M  V30 12 1 11 13
M  V30 13 1 12 14
M  V30 14 2 13 15
M  V30 15 1 14 16
M  V30 16 2 14 17
M  V30 17 1 16 18
M  V30 18 2 18 19
M  V30 19 1 18 20
M  V30 20 1 19 21
M  V30 21 2 20 22
M  V30 22 1 22 23
M  V30 23 1 23 24
M  V30 24 1 23 25
M  V30 25 1 8 9
M  V30 26 1 15 17
M  V30 27 1 21 22
M  V30 28 1 24 25
M  V30 END BOND
M  V30 END CTAB
M  END
>  <Molecule Name>
Compound 894

>  <Molecule Name 2>
Compound 894

>  <Compound ID>
247

>  <Name>


>  <Uniprot>
Q96GD4

>  <Target>
AURKB

>  <Smiles>
N#CCC1=CC=C(NC2=NC=CC(NC3=N[NH]C(C4CC4)=C3)=N2)C=C1

>  <Kd (nM)>


>  <Assay (Kd)>


>  <Ki (nM)>


>  <Assay (Ki)>


>  <IC50 (nM)>


>  <Assay (IC50)>


>  <EC50 (nM)>


>  <Assay (EC50)>


>  <Article DOI>
10.1016/j.cell.2020.10.038

>  <Molecular Weight>
331.383

>  <Exact Mass>
331.1545435

>  <XLogP3>
2.81

>  <Heavy Atom Count>
25

>  <Ring Count>
4

>  <Hydrogen Bond Acceptor Count>
6

>  <Hydrogen Bond Donor Count>
3

>  <Rotatable Bond Count>
6

>  <Topological Polar Surface Area>
102.31

>  <Molecular Formula>
C18H17N7

>  <InChI>
InChI=1S/C18H17N7/c19-9-7-12-1-5-14(6-2-12)21-18-20-10-8-16(23-18)22-17-11-15(24-25-17)13-3-4-13/h1-2,5-6,8,10-11,13H,3-4,7H2,(H3,20,21,22,23,24,25)

>  <InChI Key>
YRRRHSNOXWKVDL-UHFFFAOYSA-N

>  <BindingDB>


>  <PubChem>
45111332

>  <ChEMBL>


$$$$
247
Actelion Java MolfileCreator 2.0

  0  0  0  0  0  0              0 V3000
M  V30 BEGIN CTAB
M  V30 COUNTS 25 28 0 0 0
M  V30 BEGIN ATOM
M  V30 1 N 6.0621 -1.0 0.0 0
M  V30 2 C 5.1961 -1.5 0.0 0
M  V30 3 C 4.3301 -1.9999 0.0 0
M  V30 4 C 3.4641 -1.4999 0.0 0
M  V30 5 C 3.4641 -0.5 0.0 0
M  V30 6 C 2.598 -1.9999 0.0 0
M  V30 7 C 2.598 0.0 0.0 0
M  V30 8 C 1.732 -1.5 0.0 0
M  V30 9 C 1.732 -0.5 0.0 0
M  V30 10 N 0.866 0.0 0.0 0
M  V30 11 C 0.0 -0.5 0.0 0
M  V30 12 N -0.866 0.0 0.0 0
M  V30 13 N 0.0 -1.4999 0.0 0
M  V30 14 C -1.732 -0.4999 0.0 0
M  V30 15 C -0.866 -2.0 0.0 0
M  V30 16 N -2.598 0.0 0.0 0
M  V30 17 C -1.732 -1.5 0.0 0
M  V30 18 C -3.4641 -0.4999 0.0 0
M  V30 19 N -4.3776 -0.0932 0.0 0
M  V30 20 C -3.5686 -1.4945 0.0 0
M  V30 21 N -5.0467 -0.8364 0.0 0
M  V30 22 C -4.5467 -1.7024 0.0 0
M  V30 23 C -4.9535 -2.6159 0.0 0
M  V30 24 C -5.7625 -3.2037 0.0 0
M  V30 25 C -4.8489 -3.6105 0.0 0
M  V30 END ATOM
M  V30 BEGIN BOND
M  V30 1 3 1 2
M  V30 2 1 2 3
M  V30 3 1 3 4
M  V30 4 2 4 5
M  V30 5 1 4 6
M  V30 6 1 5 7
M  V30 7 2 6 8
M  V30 8 2 7 9
M  V30 9 1 9 10
M  V30 10 1 10 11
M  V30 11 2 11 12
M  V30 12 1 11 13
M  V30 13 1 12 14
M  V30 14 2 13 15
M  V30 15 1 14 16
M  V30 16 2 14 17
M  V30 17 1 16 18
M  V30 18 2 18 19
M  V30 19 1 18 20
M  V30 20 1 19 21
M  V30 21 2 20 22
M  V30 22 1 22 23
M  V30 23 1 23 24
M  V30 24 1 23 25
M  V30 25 1 8 9
M  V30 26 1 15 17
M  V30 27 1 21 22
M  V30 28 1 24 25
M  V30 END BOND
M  V30 END CTAB
M  END
>  <Molecule Name>
Compound 895

>  <Molecule Name 2>
Compound 895

>  <Compound ID>
247

>  <Name>


>  <Uniprot>
Q9NSY1

>  <Target>
BMP2K

>  <Smiles>
N#CCC1=CC=C(NC2=NC=CC(NC3=N[NH]C(C4CC4)=C3)=N2)C=C1

>  <Kd (nM)>


>  <Assay (Kd)>


>  <Ki (nM)>


>  <Assay (Ki)>


>  <IC50 (nM)>


>  <Assay (IC50)>


>  <EC50 (nM)>


>  <Assay (EC50)>


>  <Article DOI>
10.1016/j.cell.2020.10.038

>  <Molecular Weight>
331.383

>  <Exact Mass>
331.1545435

>  <XLogP3>
2.81

>  <Heavy Atom Count>
25

>  <Ring Count>
4

>  <Hydrogen Bond Acceptor Count>
6

>  <Hydrogen Bond Donor Count>
3

>  <Rotatable Bond Count>
6

>  <Topological Polar Surface Area>
102.31

>  <Molecular Formula>
C18H17N7

>  <InChI>
InChI=1S/C18H17N7/c19-9-7-12-1-5-14(6-2-12)21-18-20-10-8-16(23-18)22-17-11-15(24-25-17)13-3-4-13/h1-2,5-6,8,10-11,13H,3-4,7H2,(H3,20,21,22,23,24,25)

>  <InChI Key>
YRRRHSNOXWKVDL-UHFFFAOYSA-N

>  <BindingDB>


>  <PubChem>
45111332

>  <ChEMBL>


$$$$
247
Actelion Java MolfileCreator 2.0

  0  0  0  0  0  0              0 V3000
M  V30 BEGIN CTAB
M  V30 COUNTS 25 28 0 0 0
M  V30 BEGIN ATOM
M  V30 1 N 6.0621 -1.0 0.0 0
M  V30 2 C 5.1961 -1.5 0.0 0
M  V30 3 C 4.3301 -1.9999 0.0 0
M  V30 4 C 3.4641 -1.4999 0.0 0
M  V30 5 C 3.4641 -0.5 0.0 0
M  V30 6 C 2.598 -1.9999 0.0 0
M  V30 7 C 2.598 0.0 0.0 0
M  V30 8 C 1.732 -1.5 0.0 0
M  V30 9 C 1.732 -0.5 0.0 0
M  V30 10 N 0.866 0.0 0.0 0
M  V30 11 C 0.0 -0.5 0.0 0
M  V30 12 N -0.866 0.0 0.0 0
M  V30 13 N 0.0 -1.4999 0.0 0
M  V30 14 C -1.732 -0.4999 0.0 0
M  V30 15 C -0.866 -2.0 0.0 0
M  V30 16 N -2.598 0.0 0.0 0
M  V30 17 C -1.732 -1.5 0.0 0
M  V30 18 C -3.4641 -0.4999 0.0 0
M  V30 19 N -4.3776 -0.0932 0.0 0
M  V30 20 C -3.5686 -1.4945 0.0 0
M  V30 21 N -5.0467 -0.8364 0.0 0
M  V30 22 C -4.5467 -1.7024 0.0 0
M  V30 23 C -4.9535 -2.6159 0.0 0
M  V30 24 C -5.7625 -3.2037 0.0 0
M  V30 25 C -4.8489 -3.6105 0.0 0
M  V30 END ATOM
M  V30 BEGIN BOND
M  V30 1 3 1 2
M  V30 2 1 2 3
M  V30 3 1 3 4
M  V30 4 2 4 5
M  V30 5 1 4 6
M  V30 6 1 5 7
M  V30 7 2 6 8
M  V30 8 2 7 9
M  V30 9 1 9 10
M  V30 10 1 10 11
M  V30 11 2 11 12
M  V30 12 1 11 13
M  V30 13 1 12 14
M  V30 14 2 13 15
M  V30 15 1 14 16
M  V30 16 2 14 17
M  V30 17 1 16 18
M  V30 18 2 18 19
M  V30 19 1 18 20
M  V30 20 1 19 21
M  V30 21 2 20 22
M  V30 22 1 22 23
M  V30 23 1 23 24
M  V30 24 1 23 25
M  V30 25 1 8 9
M  V30 26 1 15 17
M  V30 27 1 21 22
M  V30 28 1 24 25
M  V30 END BOND
M  V30 END CTAB
M  END
>  <Molecule Name>
Compound 896

>  <Molecule Name 2>
Compound 896

>  <Compound ID>
247

>  <Name>


>  <Uniprot>
P50750

>  <Target>
CDK9

>  <Smiles>
N#CCC1=CC=C(NC2=NC=CC(NC3=N[NH]C(C4CC4)=C3)=N2)C=C1

>  <Kd (nM)>


>  <Assay (Kd)>


>  <Ki (nM)>


>  <Assay (Ki)>


>  <IC50 (nM)>


>  <Assay (IC50)>


>  <EC50 (nM)>


>  <Assay (EC50)>


>  <Article DOI>
10.1016/j.cell.2020.10.038

>  <Molecular Weight>
331.383

>  <Exact Mass>
331.1545435

>  <XLogP3>
2.81

>  <Heavy Atom Count>
25

>  <Ring Count>
4

>  <Hydrogen Bond Acceptor Count>
6

>  <Hydrogen Bond Donor Count>
3

>  <Rotatable Bond Count>
6

>  <Topological Polar Surface Area>
102.31

>  <Molecular Formula>
C18H17N7

>  <InChI>
InChI=1S/C18H17N7/c19-9-7-12-1-5-14(6-2-12)21-18-20-10-8-16(23-18)22-17-11-15(24-25-17)13-3-4-13/h1-2,5-6,8,10-11,13H,3-4,7H2,(H3,20,21,22,23,24,25)

>  <InChI Key>
YRRRHSNOXWKVDL-UHFFFAOYSA-N

>  <BindingDB>


>  <PubChem>
45111332

>  <ChEMBL>


$$$$
247
Actelion Java MolfileCreator 2.0

  0  0  0  0  0  0              0 V3000
M  V30 BEGIN CTAB
M  V30 COUNTS 25 28 0 0 0
M  V30 BEGIN ATOM
M  V30 1 N 6.0621 -1.0 0.0 0
M  V30 2 C 5.1961 -1.5 0.0 0
M  V30 3 C 4.3301 -1.9999 0.0 0
M  V30 4 C 3.4641 -1.4999 0.0 0
M  V30 5 C 3.4641 -0.5 0.0 0
M  V30 6 C 2.598 -1.9999 0.0 0
M  V30 7 C 2.598 0.0 0.0 0
M  V30 8 C 1.732 -1.5 0.0 0
M  V30 9 C 1.732 -0.5 0.0 0
M  V30 10 N 0.866 0.0 0.0 0
M  V30 11 C 0.0 -0.5 0.0 0
M  V30 12 N -0.866 0.0 0.0 0
M  V30 13 N 0.0 -1.4999 0.0 0
M  V30 14 C -1.732 -0.4999 0.0 0
M  V30 15 C -0.866 -2.0 0.0 0
M  V30 16 N -2.598 0.0 0.0 0
M  V30 17 C -1.732 -1.5 0.0 0
M  V30 18 C -3.4641 -0.4999 0.0 0
M  V30 19 N -4.3776 -0.0932 0.0 0
M  V30 20 C -3.5686 -1.4945 0.0 0
M  V30 21 N -5.0467 -0.8364 0.0 0
M  V30 22 C -4.5467 -1.7024 0.0 0
M  V30 23 C -4.9535 -2.6159 0.0 0
M  V30 24 C -5.7625 -3.2037 0.0 0
M  V30 25 C -4.8489 -3.6105 0.0 0
M  V30 END ATOM
M  V30 BEGIN BOND
M  V30 1 3 1 2
M  V30 2 1 2 3
M  V30 3 1 3 4
M  V30 4 2 4 5
M  V30 5 1 4 6
M  V30 6 1 5 7
M  V30 7 2 6 8
M  V30 8 2 7 9
M  V30 9 1 9 10
M  V30 10 1 10 11
M  V30 11 2 11 12
M  V30 12 1 11 13
M  V30 13 1 12 14
M  V30 14 2 13 15
M  V30 15 1 14 16
M  V30 16 2 14 17
M  V30 17 1 16 18
M  V30 18 2 18 19
M  V30 19 1 18 20
M  V30 20 1 19 21
M  V30 21 2 20 22
M  V30 22 1 22 23
M  V30 23 1 23 24
M  V30 24 1 23 25
M  V30 25 1 8 9
M  V30 26 1 15 17
M  V30 27 1 21 22
M  V30 28 1 24 25
M  V30 END BOND
M  V30 END CTAB
M  END
>  <Molecule Name>
Compound 897

>  <Molecule Name 2>
Compound 897

>  <Compound ID>
247

>  <Name>


>  <Uniprot>
P29323

>  <Target>
EPHB2

>  <Smiles>
N#CCC1=CC=C(NC2=NC=CC(NC3=N[NH]C(C4CC4)=C3)=N2)C=C1

>  <Kd (nM)>


>  <Assay (Kd)>


>  <Ki (nM)>


>  <Assay (Ki)>


>  <IC50 (nM)>


>  <Assay (IC50)>


>  <EC50 (nM)>


>  <Assay (EC50)>


>  <Article DOI>
10.1016/j.cell.2020.10.038

>  <Molecular Weight>
331.383

>  <Exact Mass>
331.1545435

>  <XLogP3>
2.81

>  <Heavy Atom Count>
25

>  <Ring Count>
4

>  <Hydrogen Bond Acceptor Count>
6

>  <Hydrogen Bond Donor Count>
3

>  <Rotatable Bond Count>
6

>  <Topological Polar Surface Area>
102.31

>  <Molecular Formula>
C18H17N7

>  <InChI>
InChI=1S/C18H17N7/c19-9-7-12-1-5-14(6-2-12)21-18-20-10-8-16(23-18)22-17-11-15(24-25-17)13-3-4-13/h1-2,5-6,8,10-11,13H,3-4,7H2,(H3,20,21,22,23,24,25)

>  <InChI Key>
YRRRHSNOXWKVDL-UHFFFAOYSA-N

>  <BindingDB>


>  <PubChem>
45111332

>  <ChEMBL>


$$$$
247
Actelion Java MolfileCreator 2.0

  0  0  0  0  0  0              0 V3000
M  V30 BEGIN CTAB
M  V30 COUNTS 25 28 0 0 0
M  V30 BEGIN ATOM
M  V30 1 N 6.0621 -1.0 0.0 0
M  V30 2 C 5.1961 -1.5 0.0 0
M  V30 3 C 4.3301 -1.9999 0.0 0
M  V30 4 C 3.4641 -1.4999 0.0 0
M  V30 5 C 3.4641 -0.5 0.0 0
M  V30 6 C 2.598 -1.9999 0.0 0
M  V30 7 C 2.598 0.0 0.0 0
M  V30 8 C 1.732 -1.5 0.0 0
M  V30 9 C 1.732 -0.5 0.0 0
M  V30 10 N 0.866 0.0 0.0 0
M  V30 11 C 0.0 -0.5 0.0 0
M  V30 12 N -0.866 0.0 0.0 0
M  V30 13 N 0.0 -1.4999 0.0 0
M  V30 14 C -1.732 -0.4999 0.0 0
M  V30 15 C -0.866 -2.0 0.0 0
M  V30 16 N -2.598 0.0 0.0 0
M  V30 17 C -1.732 -1.5 0.0 0
M  V30 18 C -3.4641 -0.4999 0.0 0
M  V30 19 N -4.3776 -0.0932 0.0 0
M  V30 20 C -3.5686 -1.4945 0.0 0
M  V30 21 N -5.0467 -0.8364 0.0 0
M  V30 22 C -4.5467 -1.7024 0.0 0
M  V30 23 C -4.9535 -2.6159 0.0 0
M  V30 24 C -5.7625 -3.2037 0.0 0
M  V30 25 C -4.8489 -3.6105 0.0 0
M  V30 END ATOM
M  V30 BEGIN BOND
M  V30 1 3 1 2
M  V30 2 1 2 3
M  V30 3 1 3 4
M  V30 4 2 4 5
M  V30 5 1 4 6
M  V30 6 1 5 7
M  V30 7 2 6 8
M  V30 8 2 7 9
M  V30 9 1 9 10
M  V30 10 1 10 11
M  V30 11 2 11 12
M  V30 12 1 11 13
M  V30 13 1 12 14
M  V30 14 2 13 15
M  V30 15 1 14 16
M  V30 16 2 14 17
M  V30 17 1 16 18
M  V30 18 2 18 19
M  V30 19 1 18 20
M  V30 20 1 19 21
M  V30 21 2 20 22
M  V30 22 1 22 23
M  V30 23 1 23 24
M  V30 24 1 23 25
M  V30 25 1 8 9
M  V30 26 1 15 17
M  V30 27 1 21 22
M  V30 28 1 24 25
M  V30 END BOND
M  V30 END CTAB
M  END
>  <Molecule Name>
Compound 898

>  <Molecule Name 2>
Compound 898

>  <Compound ID>
247

>  <Name>


>  <Uniprot>
P49841

>  <Target>
GSK-3beta

>  <Smiles>
N#CCC1=CC=C(NC2=NC=CC(NC3=N[NH]C(C4CC4)=C3)=N2)C=C1

>  <Kd (nM)>


>  <Assay (Kd)>


>  <Ki (nM)>


>  <Assay (Ki)>


>  <IC50 (nM)>


>  <Assay (IC50)>


>  <EC50 (nM)>


>  <Assay (EC50)>


>  <Article DOI>
10.1016/j.cell.2020.10.038

>  <Molecular Weight>
331.383

>  <Exact Mass>
331.1545435

>  <XLogP3>
2.81

>  <Heavy Atom Count>
25

>  <Ring Count>
4

>  <Hydrogen Bond Acceptor Count>
6

>  <Hydrogen Bond Donor Count>
3

>  <Rotatable Bond Count>
6

>  <Topological Polar Surface Area>
102.31

>  <Molecular Formula>
C18H17N7

>  <InChI>
InChI=1S/C18H17N7/c19-9-7-12-1-5-14(6-2-12)21-18-20-10-8-16(23-18)22-17-11-15(24-25-17)13-3-4-13/h1-2,5-6,8,10-11,13H,3-4,7H2,(H3,20,21,22,23,24,25)

>  <InChI Key>
YRRRHSNOXWKVDL-UHFFFAOYSA-N

>  <BindingDB>


>  <PubChem>
45111332

>  <ChEMBL>


$$$$
247
Actelion Java MolfileCreator 2.0

  0  0  0  0  0  0              0 V3000
M  V30 BEGIN CTAB
M  V30 COUNTS 25 28 0 0 0
M  V30 BEGIN ATOM
M  V30 1 N 6.0621 -1.0 0.0 0
M  V30 2 C 5.1961 -1.5 0.0 0
M  V30 3 C 4.3301 -1.9999 0.0 0
M  V30 4 C 3.4641 -1.4999 0.0 0
M  V30 5 C 3.4641 -0.5 0.0 0
M  V30 6 C 2.598 -1.9999 0.0 0
M  V30 7 C 2.598 0.0 0.0 0
M  V30 8 C 1.732 -1.5 0.0 0
M  V30 9 C 1.732 -0.5 0.0 0
M  V30 10 N 0.866 0.0 0.0 0
M  V30 11 C 0.0 -0.5 0.0 0
M  V30 12 N -0.866 0.0 0.0 0
M  V30 13 N 0.0 -1.4999 0.0 0
M  V30 14 C -1.732 -0.4999 0.0 0
M  V30 15 C -0.866 -2.0 0.0 0
M  V30 16 N -2.598 0.0 0.0 0
M  V30 17 C -1.732 -1.5 0.0 0
M  V30 18 C -3.4641 -0.4999 0.0 0
M  V30 19 N -4.3776 -0.0932 0.0 0
M  V30 20 C -3.5686 -1.4945 0.0 0
M  V30 21 N -5.0467 -0.8364 0.0 0
M  V30 22 C -4.5467 -1.7024 0.0 0
M  V30 23 C -4.9535 -2.6159 0.0 0
M  V30 24 C -5.7625 -3.2037 0.0 0
M  V30 25 C -4.8489 -3.6105 0.0 0
M  V30 END ATOM
M  V30 BEGIN BOND
M  V30 1 3 1 2
M  V30 2 1 2 3
M  V30 3 1 3 4
M  V30 4 2 4 5
M  V30 5 1 4 6
M  V30 6 1 5 7
M  V30 7 2 6 8
M  V30 8 2 7 9
M  V30 9 1 9 10
M  V30 10 1 10 11
M  V30 11 2 11 12
M  V30 12 1 11 13
M  V30 13 1 12 14
M  V30 14 2 13 15
M  V30 15 1 14 16
M  V30 16 2 14 17
M  V30 17 1 16 18
M  V30 18 2 18 19
M  V30 19 1 18 20
M  V30 20 1 19 21
M  V30 21 2 20 22
M  V30 22 1 22 23
M  V30 23 1 23 24
M  V30 24 1 23 25
M  V30 25 1 8 9
M  V30 26 1 15 17
M  V30 27 1 21 22
M  V30 28 1 24 25
M  V30 END BOND
M  V30 END CTAB
M  END
>  <Molecule Name>
Compound 899

>  <Molecule Name 2>
Compound 899

>  <Compound ID>
247

>  <Name>


>  <Uniprot>
Q08881

>  <Target>
ITK

>  <Smiles>
N#CCC1=CC=C(NC2=NC=CC(NC3=N[NH]C(C4CC4)=C3)=N2)C=C1

>  <Kd (nM)>


>  <Assay (Kd)>


>  <Ki (nM)>


>  <Assay (Ki)>


>  <IC50 (nM)>


>  <Assay (IC50)>


>  <EC50 (nM)>


>  <Assay (EC50)>


>  <Article DOI>
10.1016/j.cell.2020.10.038

>  <Molecular Weight>
331.383

>  <Exact Mass>
331.1545435

>  <XLogP3>
2.81

>  <Heavy Atom Count>
25

>  <Ring Count>
4

>  <Hydrogen Bond Acceptor Count>
6

>  <Hydrogen Bond Donor Count>
3

>  <Rotatable Bond Count>
6

>  <Topological Polar Surface Area>
102.31

>  <Molecular Formula>
C18H17N7

>  <InChI>
InChI=1S/C18H17N7/c19-9-7-12-1-5-14(6-2-12)21-18-20-10-8-16(23-18)22-17-11-15(24-25-17)13-3-4-13/h1-2,5-6,8,10-11,13H,3-4,7H2,(H3,20,21,22,23,24,25)

>  <InChI Key>
YRRRHSNOXWKVDL-UHFFFAOYSA-N

>  <BindingDB>


>  <PubChem>
45111332

>  <ChEMBL>


$$$$
247
Actelion Java MolfileCreator 2.0

  0  0  0  0  0  0              0 V3000
M  V30 BEGIN CTAB
M  V30 COUNTS 25 28 0 0 0
M  V30 BEGIN ATOM
M  V30 1 N 6.0621 -1.0 0.0 0
M  V30 2 C 5.1961 -1.5 0.0 0
M  V30 3 C 4.3301 -1.9999 0.0 0
M  V30 4 C 3.4641 -1.4999 0.0 0
M  V30 5 C 3.4641 -0.5 0.0 0
M  V30 6 C 2.598 -1.9999 0.0 0
M  V30 7 C 2.598 0.0 0.0 0
M  V30 8 C 1.732 -1.5 0.0 0
M  V30 9 C 1.732 -0.5 0.0 0
M  V30 10 N 0.866 0.0 0.0 0
M  V30 11 C 0.0 -0.5 0.0 0
M  V30 12 N -0.866 0.0 0.0 0
M  V30 13 N 0.0 -1.4999 0.0 0
M  V30 14 C -1.732 -0.4999 0.0 0
M  V30 15 C -0.866 -2.0 0.0 0
M  V30 16 N -2.598 0.0 0.0 0
M  V30 17 C -1.732 -1.5 0.0 0
M  V30 18 C -3.4641 -0.4999 0.0 0
M  V30 19 N -4.3776 -0.0932 0.0 0
M  V30 20 C -3.5686 -1.4945 0.0 0
M  V30 21 N -5.0467 -0.8364 0.0 0
M  V30 22 C -4.5467 -1.7024 0.0 0
M  V30 23 C -4.9535 -2.6159 0.0 0
M  V30 24 C -5.7625 -3.2037 0.0 0
M  V30 25 C -4.8489 -3.6105 0.0 0
M  V30 END ATOM
M  V30 BEGIN BOND
M  V30 1 3 1 2
M  V30 2 1 2 3
M  V30 3 1 3 4
M  V30 4 2 4 5
M  V30 5 1 4 6
M  V30 6 1 5 7
M  V30 7 2 6 8
M  V30 8 2 7 9
M  V30 9 1 9 10
M  V30 10 1 10 11
M  V30 11 2 11 12
M  V30 12 1 11 13
M  V30 13 1 12 14
M  V30 14 2 13 15
M  V30 15 1 14 16
M  V30 16 2 14 17
M  V30 17 1 16 18
M  V30 18 2 18 19
M  V30 19 1 18 20
M  V30 20 1 19 21
M  V30 21 2 20 22
M  V30 22 1 22 23
M  V30 23 1 23 24
M  V30 24 1 23 25
M  V30 25 1 8 9
M  V30 26 1 15 17
M  V30 27 1 21 22
M  V30 28 1 24 25
M  V30 END BOND
M  V30 END CTAB
M  END
>  <Molecule Name>
Compound 900

>  <Molecule Name 2>
Compound 900

>  <Compound ID>
247

>  <Name>


>  <Uniprot>
O95835

>  <Target>
LATS1

>  <Smiles>
N#CCC1=CC=C(NC2=NC=CC(NC3=N[NH]C(C4CC4)=C3)=N2)C=C1

>  <Kd (nM)>


>  <Assay (Kd)>


>  <Ki (nM)>


>  <Assay (Ki)>


>  <IC50 (nM)>


>  <Assay (IC50)>


>  <EC50 (nM)>


>  <Assay (EC50)>


>  <Article DOI>
10.1016/j.cell.2020.10.038

>  <Molecular Weight>
331.383

>  <Exact Mass>
331.1545435

>  <XLogP3>
2.81

>  <Heavy Atom Count>
25

>  <Ring Count>
4

>  <Hydrogen Bond Acceptor Count>
6

>  <Hydrogen Bond Donor Count>
3

>  <Rotatable Bond Count>
6

>  <Topological Polar Surface Area>
102.31

>  <Molecular Formula>
C18H17N7

>  <InChI>
InChI=1S/C18H17N7/c19-9-7-12-1-5-14(6-2-12)21-18-20-10-8-16(23-18)22-17-11-15(24-25-17)13-3-4-13/h1-2,5-6,8,10-11,13H,3-4,7H2,(H3,20,21,22,23,24,25)

>  <InChI Key>
YRRRHSNOXWKVDL-UHFFFAOYSA-N

>  <BindingDB>


>  <PubChem>
45111332

>  <ChEMBL>


$$$$
247
Actelion Java MolfileCreator 2.0

  0  0  0  0  0  0              0 V3000
M  V30 BEGIN CTAB
M  V30 COUNTS 25 28 0 0 0
M  V30 BEGIN ATOM
M  V30 1 N 6.0621 -1.0 0.0 0
M  V30 2 C 5.1961 -1.5 0.0 0
M  V30 3 C 4.3301 -1.9999 0.0 0
M  V30 4 C 3.4641 -1.4999 0.0 0
M  V30 5 C 3.4641 -0.5 0.0 0
M  V30 6 C 2.598 -1.9999 0.0 0
M  V30 7 C 2.598 0.0 0.0 0
M  V30 8 C 1.732 -1.5 0.0 0
M  V30 9 C 1.732 -0.5 0.0 0
M  V30 10 N 0.866 0.0 0.0 0
M  V30 11 C 0.0 -0.5 0.0 0
M  V30 12 N -0.866 0.0 0.0 0
M  V30 13 N 0.0 -1.4999 0.0 0
M  V30 14 C -1.732 -0.4999 0.0 0
M  V30 15 C -0.866 -2.0 0.0 0
M  V30 16 N -2.598 0.0 0.0 0
M  V30 17 C -1.732 -1.5 0.0 0
M  V30 18 C -3.4641 -0.4999 0.0 0
M  V30 19 N -4.3776 -0.0932 0.0 0
M  V30 20 C -3.5686 -1.4945 0.0 0
M  V30 21 N -5.0467 -0.8364 0.0 0
M  V30 22 C -4.5467 -1.7024 0.0 0
M  V30 23 C -4.9535 -2.6159 0.0 0
M  V30 24 C -5.7625 -3.2037 0.0 0
M  V30 25 C -4.8489 -3.6105 0.0 0
M  V30 END ATOM
M  V30 BEGIN BOND
M  V30 1 3 1 2
M  V30 2 1 2 3
M  V30 3 1 3 4
M  V30 4 2 4 5
M  V30 5 1 4 6
M  V30 6 1 5 7
M  V30 7 2 6 8
M  V30 8 2 7 9
M  V30 9 1 9 10
M  V30 10 1 10 11
M  V30 11 2 11 12
M  V30 12 1 11 13
M  V30 13 1 12 14
M  V30 14 2 13 15
M  V30 15 1 14 16
M  V30 16 2 14 17
M  V30 17 1 16 18
M  V30 18 2 18 19
M  V30 19 1 18 20
M  V30 20 1 19 21
M  V30 21 2 20 22
M  V30 22 1 22 23
M  V30 23 1 23 24
M  V30 24 1 23 25
M  V30 25 1 8 9
M  V30 26 1 15 17
M  V30 27 1 21 22
M  V30 28 1 24 25
M  V30 END BOND
M  V30 END CTAB
M  END
>  <Molecule Name>
Compound 901

>  <Molecule Name 2>
Compound 901

>  <Compound ID>
247

>  <Name>


>  <Uniprot>
Q12851

>  <Target>
MAP4K2

>  <Smiles>
N#CCC1=CC=C(NC2=NC=CC(NC3=N[NH]C(C4CC4)=C3)=N2)C=C1

>  <Kd (nM)>


>  <Assay (Kd)>


>  <Ki (nM)>


>  <Assay (Ki)>


>  <IC50 (nM)>


>  <Assay (IC50)>


>  <EC50 (nM)>


>  <Assay (EC50)>


>  <Article DOI>
10.1016/j.cell.2020.10.038

>  <Molecular Weight>
331.383

>  <Exact Mass>
331.1545435

>  <XLogP3>
2.81

>  <Heavy Atom Count>
25

>  <Ring Count>
4

>  <Hydrogen Bond Acceptor Count>
6

>  <Hydrogen Bond Donor Count>
3

>  <Rotatable Bond Count>
6

>  <Topological Polar Surface Area>
102.31

>  <Molecular Formula>
C18H17N7

>  <InChI>
InChI=1S/C18H17N7/c19-9-7-12-1-5-14(6-2-12)21-18-20-10-8-16(23-18)22-17-11-15(24-25-17)13-3-4-13/h1-2,5-6,8,10-11,13H,3-4,7H2,(H3,20,21,22,23,24,25)

>  <InChI Key>
YRRRHSNOXWKVDL-UHFFFAOYSA-N

>  <BindingDB>


>  <PubChem>
45111332

>  <ChEMBL>


$$$$
247
Actelion Java MolfileCreator 2.0

  0  0  0  0  0  0              0 V3000
M  V30 BEGIN CTAB
M  V30 COUNTS 25 28 0 0 0
M  V30 BEGIN ATOM
M  V30 1 N 6.0621 -1.0 0.0 0
M  V30 2 C 5.1961 -1.5 0.0 0
M  V30 3 C 4.3301 -1.9999 0.0 0
M  V30 4 C 3.4641 -1.4999 0.0 0
M  V30 5 C 3.4641 -0.5 0.0 0
M  V30 6 C 2.598 -1.9999 0.0 0
M  V30 7 C 2.598 0.0 0.0 0
M  V30 8 C 1.732 -1.5 0.0 0
M  V30 9 C 1.732 -0.5 0.0 0
M  V30 10 N 0.866 0.0 0.0 0
M  V30 11 C 0.0 -0.5 0.0 0
M  V30 12 N -0.866 0.0 0.0 0
M  V30 13 N 0.0 -1.4999 0.0 0
M  V30 14 C -1.732 -0.4999 0.0 0
M  V30 15 C -0.866 -2.0 0.0 0
M  V30 16 N -2.598 0.0 0.0 0
M  V30 17 C -1.732 -1.5 0.0 0
M  V30 18 C -3.4641 -0.4999 0.0 0
M  V30 19 N -4.3776 -0.0932 0.0 0
M  V30 20 C -3.5686 -1.4945 0.0 0
M  V30 21 N -5.0467 -0.8364 0.0 0
M  V30 22 C -4.5467 -1.7024 0.0 0
M  V30 23 C -4.9535 -2.6159 0.0 0
M  V30 24 C -5.7625 -3.2037 0.0 0
M  V30 25 C -4.8489 -3.6105 0.0 0
M  V30 END ATOM
M  V30 BEGIN BOND
M  V30 1 3 1 2
M  V30 2 1 2 3
M  V30 3 1 3 4
M  V30 4 2 4 5
M  V30 5 1 4 6
M  V30 6 1 5 7
M  V30 7 2 6 8
M  V30 8 2 7 9
M  V30 9 1 9 10
M  V30 10 1 10 11
M  V30 11 2 11 12
M  V30 12 1 11 13
M  V30 13 1 12 14
M  V30 14 2 13 15
M  V30 15 1 14 16
M  V30 16 2 14 17
M  V30 17 1 16 18
M  V30 18 2 18 19
M  V30 19 1 18 20
M  V30 20 1 19 21
M  V30 21 2 20 22
M  V30 22 1 22 23
M  V30 23 1 23 24
M  V30 24 1 23 25
M  V30 25 1 8 9
M  V30 26 1 15 17
M  V30 27 1 21 22
M  V30 28 1 24 25
M  V30 END BOND
M  V30 END CTAB
M  END
>  <Molecule Name>
Compound 902

>  <Molecule Name 2>
Compound 902

>  <Compound ID>
247

>  <Name>


>  <Uniprot>
Q8TD19

>  <Target>
NEK9

>  <Smiles>
N#CCC1=CC=C(NC2=NC=CC(NC3=N[NH]C(C4CC4)=C3)=N2)C=C1

>  <Kd (nM)>


>  <Assay (Kd)>


>  <Ki (nM)>


>  <Assay (Ki)>


>  <IC50 (nM)>


>  <Assay (IC50)>


>  <EC50 (nM)>


>  <Assay (EC50)>


>  <Article DOI>
10.1016/j.cell.2020.10.038

>  <Molecular Weight>
331.383

>  <Exact Mass>
331.1545435

>  <XLogP3>
2.81

>  <Heavy Atom Count>
25

>  <Ring Count>
4

>  <Hydrogen Bond Acceptor Count>
6

>  <Hydrogen Bond Donor Count>
3

>  <Rotatable Bond Count>
6

>  <Topological Polar Surface Area>
102.31

>  <Molecular Formula>
C18H17N7

>  <InChI>
InChI=1S/C18H17N7/c19-9-7-12-1-5-14(6-2-12)21-18-20-10-8-16(23-18)22-17-11-15(24-25-17)13-3-4-13/h1-2,5-6,8,10-11,13H,3-4,7H2,(H3,20,21,22,23,24,25)

>  <InChI Key>
YRRRHSNOXWKVDL-UHFFFAOYSA-N

>  <BindingDB>


>  <PubChem>
45111332

>  <ChEMBL>


$$$$
247
Actelion Java MolfileCreator 2.0

  0  0  0  0  0  0              0 V3000
M  V30 BEGIN CTAB
M  V30 COUNTS 25 28 0 0 0
M  V30 BEGIN ATOM
M  V30 1 N 6.0621 -1.0 0.0 0
M  V30 2 C 5.1961 -1.5 0.0 0
M  V30 3 C 4.3301 -1.9999 0.0 0
M  V30 4 C 3.4641 -1.4999 0.0 0
M  V30 5 C 3.4641 -0.5 0.0 0
M  V30 6 C 2.598 -1.9999 0.0 0
M  V30 7 C 2.598 0.0 0.0 0
M  V30 8 C 1.732 -1.5 0.0 0
M  V30 9 C 1.732 -0.5 0.0 0
M  V30 10 N 0.866 0.0 0.0 0
M  V30 11 C 0.0 -0.5 0.0 0
M  V30 12 N -0.866 0.0 0.0 0
M  V30 13 N 0.0 -1.4999 0.0 0
M  V30 14 C -1.732 -0.4999 0.0 0
M  V30 15 C -0.866 -2.0 0.0 0
M  V30 16 N -2.598 0.0 0.0 0
M  V30 17 C -1.732 -1.5 0.0 0
M  V30 18 C -3.4641 -0.4999 0.0 0
M  V30 19 N -4.3776 -0.0932 0.0 0
M  V30 20 C -3.5686 -1.4945 0.0 0
M  V30 21 N -5.0467 -0.8364 0.0 0
M  V30 22 C -4.5467 -1.7024 0.0 0
M  V30 23 C -4.9535 -2.6159 0.0 0
M  V30 24 C -5.7625 -3.2037 0.0 0
M  V30 25 C -4.8489 -3.6105 0.0 0
M  V30 END ATOM
M  V30 BEGIN BOND
M  V30 1 3 1 2
M  V30 2 1 2 3
M  V30 3 1 3 4
M  V30 4 2 4 5
M  V30 5 1 4 6
M  V30 6 1 5 7
M  V30 7 2 6 8
M  V30 8 2 7 9
M  V30 9 1 9 10
M  V30 10 1 10 11
M  V30 11 2 11 12
M  V30 12 1 11 13
M  V30 13 1 12 14
M  V30 14 2 13 15
M  V30 15 1 14 16
M  V30 16 2 14 17
M  V30 17 1 16 18
M  V30 18 2 18 19
M  V30 19 1 18 20
M  V30 20 1 19 21
M  V30 21 2 20 22
M  V30 22 1 22 23
M  V30 23 1 23 24
M  V30 24 1 23 25
M  V30 25 1 8 9
M  V30 26 1 15 17
M  V30 27 1 21 22
M  V30 28 1 24 25
M  V30 END BOND
M  V30 END CTAB
M  END
>  <Molecule Name>
Compound 903

>  <Molecule Name 2>
Compound 903

>  <Compound ID>
247

>  <Name>


>  <Uniprot>
O96013

>  <Target>
PAK4

>  <Smiles>
N#CCC1=CC=C(NC2=NC=CC(NC3=N[NH]C(C4CC4)=C3)=N2)C=C1

>  <Kd (nM)>


>  <Assay (Kd)>


>  <Ki (nM)>


>  <Assay (Ki)>


>  <IC50 (nM)>


>  <Assay (IC50)>


>  <EC50 (nM)>


>  <Assay (EC50)>


>  <Article DOI>
10.1016/j.cell.2020.10.038

>  <Molecular Weight>
331.383

>  <Exact Mass>
331.1545435

>  <XLogP3>
2.81

>  <Heavy Atom Count>
25

>  <Ring Count>
4

>  <Hydrogen Bond Acceptor Count>
6

>  <Hydrogen Bond Donor Count>
3

>  <Rotatable Bond Count>
6

>  <Topological Polar Surface Area>
102.31

>  <Molecular Formula>
C18H17N7

>  <InChI>
InChI=1S/C18H17N7/c19-9-7-12-1-5-14(6-2-12)21-18-20-10-8-16(23-18)22-17-11-15(24-25-17)13-3-4-13/h1-2,5-6,8,10-11,13H,3-4,7H2,(H3,20,21,22,23,24,25)

>  <InChI Key>
YRRRHSNOXWKVDL-UHFFFAOYSA-N

>  <BindingDB>


>  <PubChem>
45111332

>  <ChEMBL>


$$$$
247
Actelion Java MolfileCreator 2.0

  0  0  0  0  0  0              0 V3000
M  V30 BEGIN CTAB
M  V30 COUNTS 25 28 0 0 0
M  V30 BEGIN ATOM
M  V30 1 N 6.0621 -1.0 0.0 0
M  V30 2 C 5.1961 -1.5 0.0 0
M  V30 3 C 4.3301 -1.9999 0.0 0
M  V30 4 C 3.4641 -1.4999 0.0 0
M  V30 5 C 3.4641 -0.5 0.0 0
M  V30 6 C 2.598 -1.9999 0.0 0
M  V30 7 C 2.598 0.0 0.0 0
M  V30 8 C 1.732 -1.5 0.0 0
M  V30 9 C 1.732 -0.5 0.0 0
M  V30 10 N 0.866 0.0 0.0 0
M  V30 11 C 0.0 -0.5 0.0 0
M  V30 12 N -0.866 0.0 0.0 0
M  V30 13 N 0.0 -1.4999 0.0 0
M  V30 14 C -1.732 -0.4999 0.0 0
M  V30 15 C -0.866 -2.0 0.0 0
M  V30 16 N -2.598 0.0 0.0 0
M  V30 17 C -1.732 -1.5 0.0 0
M  V30 18 C -3.4641 -0.4999 0.0 0
M  V30 19 N -4.3776 -0.0932 0.0 0
M  V30 20 C -3.5686 -1.4945 0.0 0
M  V30 21 N -5.0467 -0.8364 0.0 0
M  V30 22 C -4.5467 -1.7024 0.0 0
M  V30 23 C -4.9535 -2.6159 0.0 0
M  V30 24 C -5.7625 -3.2037 0.0 0
M  V30 25 C -4.8489 -3.6105 0.0 0
M  V30 END ATOM
M  V30 BEGIN BOND
M  V30 1 3 1 2
M  V30 2 1 2 3
M  V30 3 1 3 4
M  V30 4 2 4 5
M  V30 5 1 4 6
M  V30 6 1 5 7
M  V30 7 2 6 8
M  V30 8 2 7 9
M  V30 9 1 9 10
M  V30 10 1 10 11
M  V30 11 2 11 12
M  V30 12 1 11 13
M  V30 13 1 12 14
M  V30 14 2 13 15
M  V30 15 1 14 16
M  V30 16 2 14 17
M  V30 17 1 16 18
M  V30 18 2 18 19
M  V30 19 1 18 20
M  V30 20 1 19 21
M  V30 21 2 20 22
M  V30 22 1 22 23
M  V30 23 1 23 24
M  V30 24 1 23 25
M  V30 25 1 8 9
M  V30 26 1 15 17
M  V30 27 1 21 22
M  V30 28 1 24 25
M  V30 END BOND
M  V30 END CTAB
M  END
>  <Molecule Name>
Compound 904

>  <Molecule Name 2>
Compound 904

>  <Compound ID>
247

>  <Name>


>  <Uniprot>
O00444

>  <Target>
PLK4

>  <Smiles>
N#CCC1=CC=C(NC2=NC=CC(NC3=N[NH]C(C4CC4)=C3)=N2)C=C1

>  <Kd (nM)>


>  <Assay (Kd)>


>  <Ki (nM)>


>  <Assay (Ki)>


>  <IC50 (nM)>


>  <Assay (IC50)>


>  <EC50 (nM)>


>  <Assay (EC50)>


>  <Article DOI>
10.1016/j.cell.2020.10.038

>  <Molecular Weight>
331.383

>  <Exact Mass>
331.1545435

>  <XLogP3>
2.81

>  <Heavy Atom Count>
25

>  <Ring Count>
4

>  <Hydrogen Bond Acceptor Count>
6

>  <Hydrogen Bond Donor Count>
3

>  <Rotatable Bond Count>
6

>  <Topological Polar Surface Area>
102.31

>  <Molecular Formula>
C18H17N7

>  <InChI>
InChI=1S/C18H17N7/c19-9-7-12-1-5-14(6-2-12)21-18-20-10-8-16(23-18)22-17-11-15(24-25-17)13-3-4-13/h1-2,5-6,8,10-11,13H,3-4,7H2,(H3,20,21,22,23,24,25)

>  <InChI Key>
YRRRHSNOXWKVDL-UHFFFAOYSA-N

>  <BindingDB>


>  <PubChem>
45111332

>  <ChEMBL>


$$$$
247
Actelion Java MolfileCreator 2.0

  0  0  0  0  0  0              0 V3000
M  V30 BEGIN CTAB
M  V30 COUNTS 25 28 0 0 0
M  V30 BEGIN ATOM
M  V30 1 N 6.0621 -1.0 0.0 0
M  V30 2 C 5.1961 -1.5 0.0 0
M  V30 3 C 4.3301 -1.9999 0.0 0
M  V30 4 C 3.4641 -1.4999 0.0 0
M  V30 5 C 3.4641 -0.5 0.0 0
M  V30 6 C 2.598 -1.9999 0.0 0
M  V30 7 C 2.598 0.0 0.0 0
M  V30 8 C 1.732 -1.5 0.0 0
M  V30 9 C 1.732 -0.5 0.0 0
M  V30 10 N 0.866 0.0 0.0 0
M  V30 11 C 0.0 -0.5 0.0 0
M  V30 12 N -0.866 0.0 0.0 0
M  V30 13 N 0.0 -1.4999 0.0 0
M  V30 14 C -1.732 -0.4999 0.0 0
M  V30 15 C -0.866 -2.0 0.0 0
M  V30 16 N -2.598 0.0 0.0 0
M  V30 17 C -1.732 -1.5 0.0 0
M  V30 18 C -3.4641 -0.4999 0.0 0
M  V30 19 N -4.3776 -0.0932 0.0 0
M  V30 20 C -3.5686 -1.4945 0.0 0
M  V30 21 N -5.0467 -0.8364 0.0 0
M  V30 22 C -4.5467 -1.7024 0.0 0
M  V30 23 C -4.9535 -2.6159 0.0 0
M  V30 24 C -5.7625 -3.2037 0.0 0
M  V30 25 C -4.8489 -3.6105 0.0 0
M  V30 END ATOM
M  V30 BEGIN BOND
M  V30 1 3 1 2
M  V30 2 1 2 3
M  V30 3 1 3 4
M  V30 4 2 4 5
M  V30 5 1 4 6
M  V30 6 1 5 7
M  V30 7 2 6 8
M  V30 8 2 7 9
M  V30 9 1 9 10
M  V30 10 1 10 11
M  V30 11 2 11 12
M  V30 12 1 11 13
M  V30 13 1 12 14
M  V30 14 2 13 15
M  V30 15 1 14 16
M  V30 16 2 14 17
M  V30 17 1 16 18
M  V30 18 2 18 19
M  V30 19 1 18 20
M  V30 20 1 19 21
M  V30 21 2 20 22
M  V30 22 1 22 23
M  V30 23 1 23 24
M  V30 24 1 23 25
M  V30 25 1 8 9
M  V30 26 1 15 17
M  V30 27 1 21 22
M  V30 28 1 24 25
M  V30 END BOND
M  V30 END CTAB
M  END
>  <Molecule Name>
Compound 905

>  <Molecule Name 2>
Compound 905

>  <Compound ID>
247

>  <Name>


>  <Uniprot>
O94768

>  <Target>
STK17B

>  <Smiles>
N#CCC1=CC=C(NC2=NC=CC(NC3=N[NH]C(C4CC4)=C3)=N2)C=C1

>  <Kd (nM)>


>  <Assay (Kd)>


>  <Ki (nM)>


>  <Assay (Ki)>


>  <IC50 (nM)>


>  <Assay (IC50)>


>  <EC50 (nM)>


>  <Assay (EC50)>


>  <Article DOI>
10.1016/j.cell.2020.10.038

>  <Molecular Weight>
331.383

>  <Exact Mass>
331.1545435

>  <XLogP3>
2.81

>  <Heavy Atom Count>
25

>  <Ring Count>
4

>  <Hydrogen Bond Acceptor Count>
6

>  <Hydrogen Bond Donor Count>
3

>  <Rotatable Bond Count>
6

>  <Topological Polar Surface Area>
102.31

>  <Molecular Formula>
C18H17N7

>  <InChI>
InChI=1S/C18H17N7/c19-9-7-12-1-5-14(6-2-12)21-18-20-10-8-16(23-18)22-17-11-15(24-25-17)13-3-4-13/h1-2,5-6,8,10-11,13H,3-4,7H2,(H3,20,21,22,23,24,25)

>  <InChI Key>
YRRRHSNOXWKVDL-UHFFFAOYSA-N

>  <BindingDB>


>  <PubChem>
45111332

>  <ChEMBL>


$$$$
248
Actelion Java MolfileCreator 2.0

  0  0  0  0  0  0              0 V3000
M  V30 BEGIN CTAB
M  V30 COUNTS 43 48 0 0 0
M  V30 BEGIN ATOM
M  V30 1 O 1.732 -1.5 0.0 0
M  V30 2 C 1.732 -0.5 0.0 0
M  V30 3 N 2.598 0.0 0.0 0
M  V30 4 C 0.866 0.0 0.0 0
M  V30 5 C 3.4641 -0.5 0.0 0
M  V30 6 C 0.0 -0.5 0.0 0
M  V30 7 C 3.4641 -1.5 0.0 0
M  V30 8 C 4.3301 0.0 0.0 0
M  V30 9 O 2.598 -1.9999 0.0 0
M  V30 10 C 4.3301 -2.0 0.0 0
M  V30 11 C 5.1961 -0.5 0.0 0
M  V30 12 C 2.598 -2.9999 0.0 0
M  V30 13 C 5.1961 -1.5 0.0 0
M  V30 14 C 6.0621 0.0 0.0 0
M  V30 15 C 1.732 -3.4999 0.0 0
M  V30 16 C 3.4641 -3.5 0.0 0
M  V30 17 N 6.9757 -0.4067 0.0 0
M  V30 18 C 6.1667 0.9945 0.0 0
M  V30 19 C 1.732 -4.4999 0.0 0
M  V30 20 C 3.4641 -4.5 0.0 0
M  V30 21 N 7.6448 0.3364 0.0 0
M  V30 22 C 5.4975 1.7376 0.0 0
M  V30 23 C 7.1448 1.2024 0.0 0
M  V30 24 C 2.598 -5.0 0.0 0
M  V30 25 C 8.6393 0.2318 0.0 0
M  V30 26 N 5.8065 2.6887 0.0 0
M  V30 27 N 4.5194 1.5297 0.0 0
M  V30 28 N 7.4538 2.1534 0.0 0
M  V30 29 C 9.0461 -0.6816 0.0 0
M  V30 30 C 9.2271 1.0408 0.0 0
M  V30 31 C 6.7847 2.8966 0.0 0
M  V30 32 C 10.0406 -0.7861 0.0 0
M  V30 33 C 10.2216 0.9363 0.0 0
M  V30 34 C 10.6284 0.0228 0.0 0
M  V30 35 N 11.6229 -0.0817 0.0 0
M  V30 36 C 12.0296 -0.9952 0.0 0
M  V30 37 C 12.2107 0.7273 0.0 0
M  V30 38 C 13.0242 -1.0997 0.0 0
M  V30 39 C 13.2052 0.6227 0.0 0
M  V30 40 N 13.6119 -0.2907 0.0 0
M  V30 41 C 14.6065 -0.3952 0.0 0
M  V30 42 O 15.0132 -1.3088 0.0 0
M  V30 43 C 15.1942 0.4137 0.0 0
M  V30 END ATOM
M  V30 BEGIN BOND
M  V30 1 2 1 2
M  V30 2 1 2 3
M  V30 3 1 2 4
M  V30 4 1 3 5
M  V30 5 2 4 6
M  V30 6 2 5 7
M  V30 7 1 5 8
M  V30 8 1 7 9
M  V30 9 1 7 10
M  V30 10 2 8 11
M  V30 11 1 9 12
M  V30 12 2 10 13
M  V30 13 1 11 14
M  V30 14 2 12 15
M  V30 15 1 12 16
M  V30 16 2 14 17
M  V30 17 1 14 18
M  V30 18 1 15 19
M  V30 19 2 16 20
M  V30 20 1 17 21
M  V30 21 2 18 22
M  V30 22 1 18 23
M  V30 23 2 19 24
M  V30 24 1 21 25
M  V30 25 1 22 26
M  V30 26 1 22 27
M  V30 27 2 23 28
M  V30 28 1 25 29
M  V30 29 1 25 30
M  V30 30 2 26 31
M  V30 31 1 29 32
M  V30 32 1 30 33
M  V30 33 1 32 34
M  V30 34 1 34 35
M  V30 35 1 35 36
M  V30 36 1 35 37
M  V30 37 1 36 38
M  V30 38 1 37 39
M  V30 39 1 38 40
M  V30 40 1 40 41
M  V30 41 2 41 42
M  V30 42 1 41 43
M  V30 43 1 11 13
M  V30 44 1 20 24
M  V30 45 1 21 23
M  V30 46 1 28 31
M  V30 47 1 33 34
M  V30 48 1 39 40
M  V30 END BOND
M  V30 END CTAB
M  END
>  <Molecule Name>
Compound 906

>  <Molecule Name 2>
Compound 906

>  <Compound ID>
248

>  <Name>
TX1-85-1

>  <Uniprot>
P00519

>  <Target>
ABL1

>  <Smiles>
C=CC(=O)NC1=CC(C2=NN(C3CCC(N4CCN(C(C)=O)CC4)CC3)C3=NC=NC(N)=C23)=CC=C1OC1=CC=CC=C1

>  <Kd (nM)>


>  <Assay (Kd)>


>  <Ki (nM)>


>  <Assay (Ki)>


>  <IC50 (nM)>


>  <Assay (IC50)>


>  <EC50 (nM)>


>  <Assay (EC50)>


>  <Article DOI>
10.1016/j.cell.2020.10.038

>  <Molecular Weight>
580.693

>  <Exact Mass>
580.291037

>  <XLogP3>
3.34

>  <Heavy Atom Count>
43

>  <Ring Count>
6

>  <Hydrogen Bond Acceptor Count>
9

>  <Hydrogen Bond Donor Count>
2

>  <Rotatable Bond Count>
7

>  <Topological Polar Surface Area>
131.5

>  <Molecular Formula>
C32H36N8O3

>  <InChI>
InChI=1S/C32H36N8O3/c1-3-28(42)36-26-19-22(9-14-27(26)43-25-7-5-4-6-8-25)30-29-31(33)34-20-35-32(29)40(37-30)24-12-10-23(11-13-24)39-17-15-38(16-18-39)21(2)41/h3-9,14,19-20,23-24H,1,10-13,15-18H2,2H3,(H,36,42)(H2,33,34,35)

>  <InChI Key>
FYICDSWKKFSYOM-UHFFFAOYSA-N

>  <BindingDB>


>  <PubChem>
78243752

>  <ChEMBL>


$$$$
248
Actelion Java MolfileCreator 2.0

  0  0  0  0  0  0              0 V3000
M  V30 BEGIN CTAB
M  V30 COUNTS 43 48 0 0 0
M  V30 BEGIN ATOM
M  V30 1 O 1.732 -1.5 0.0 0
M  V30 2 C 1.732 -0.5 0.0 0
M  V30 3 N 2.598 0.0 0.0 0
M  V30 4 C 0.866 0.0 0.0 0
M  V30 5 C 3.4641 -0.5 0.0 0
M  V30 6 C 0.0 -0.5 0.0 0
M  V30 7 C 3.4641 -1.5 0.0 0
M  V30 8 C 4.3301 0.0 0.0 0
M  V30 9 O 2.598 -1.9999 0.0 0
M  V30 10 C 4.3301 -2.0 0.0 0
M  V30 11 C 5.1961 -0.5 0.0 0
M  V30 12 C 2.598 -2.9999 0.0 0
M  V30 13 C 5.1961 -1.5 0.0 0
M  V30 14 C 6.0621 0.0 0.0 0
M  V30 15 C 1.732 -3.4999 0.0 0
M  V30 16 C 3.4641 -3.5 0.0 0
M  V30 17 N 6.9757 -0.4067 0.0 0
M  V30 18 C 6.1667 0.9945 0.0 0
M  V30 19 C 1.732 -4.4999 0.0 0
M  V30 20 C 3.4641 -4.5 0.0 0
M  V30 21 N 7.6448 0.3364 0.0 0
M  V30 22 C 5.4975 1.7376 0.0 0
M  V30 23 C 7.1448 1.2024 0.0 0
M  V30 24 C 2.598 -5.0 0.0 0
M  V30 25 C 8.6393 0.2318 0.0 0
M  V30 26 N 5.8065 2.6887 0.0 0
M  V30 27 N 4.5194 1.5297 0.0 0
M  V30 28 N 7.4538 2.1534 0.0 0
M  V30 29 C 9.0461 -0.6816 0.0 0
M  V30 30 C 9.2271 1.0408 0.0 0
M  V30 31 C 6.7847 2.8966 0.0 0
M  V30 32 C 10.0406 -0.7861 0.0 0
M  V30 33 C 10.2216 0.9363 0.0 0
M  V30 34 C 10.6284 0.0228 0.0 0
M  V30 35 N 11.6229 -0.0817 0.0 0
M  V30 36 C 12.0296 -0.9952 0.0 0
M  V30 37 C 12.2107 0.7273 0.0 0
M  V30 38 C 13.0242 -1.0997 0.0 0
M  V30 39 C 13.2052 0.6227 0.0 0
M  V30 40 N 13.6119 -0.2907 0.0 0
M  V30 41 C 14.6065 -0.3952 0.0 0
M  V30 42 O 15.0132 -1.3088 0.0 0
M  V30 43 C 15.1942 0.4137 0.0 0
M  V30 END ATOM
M  V30 BEGIN BOND
M  V30 1 2 1 2
M  V30 2 1 2 3
M  V30 3 1 2 4
M  V30 4 1 3 5
M  V30 5 2 4 6
M  V30 6 2 5 7
M  V30 7 1 5 8
M  V30 8 1 7 9
M  V30 9 1 7 10
M  V30 10 2 8 11
M  V30 11 1 9 12
M  V30 12 2 10 13
M  V30 13 1 11 14
M  V30 14 2 12 15
M  V30 15 1 12 16
M  V30 16 2 14 17
M  V30 17 1 14 18
M  V30 18 1 15 19
M  V30 19 2 16 20
M  V30 20 1 17 21
M  V30 21 2 18 22
M  V30 22 1 18 23
M  V30 23 2 19 24
M  V30 24 1 21 25
M  V30 25 1 22 26
M  V30 26 1 22 27
M  V30 27 2 23 28
M  V30 28 1 25 29
M  V30 29 1 25 30
M  V30 30 2 26 31
M  V30 31 1 29 32
M  V30 32 1 30 33
M  V30 33 1 32 34
M  V30 34 1 34 35
M  V30 35 1 35 36
M  V30 36 1 35 37
M  V30 37 1 36 38
M  V30 38 1 37 39
M  V30 39 1 38 40
M  V30 40 1 40 41
M  V30 41 2 41 42
M  V30 42 1 41 43
M  V30 43 1 11 13
M  V30 44 1 20 24
M  V30 45 1 21 23
M  V30 46 1 28 31
M  V30 47 1 33 34
M  V30 48 1 39 40
M  V30 END BOND
M  V30 END CTAB
M  END
>  <Molecule Name>
Compound 907

>  <Molecule Name 2>
Compound 907

>  <Compound ID>
248

>  <Name>
TX1-85-1

>  <Uniprot>
P42684

>  <Target>
ABL2

>  <Smiles>
C=CC(=O)NC1=CC(C2=NN(C3CCC(N4CCN(C(C)=O)CC4)CC3)C3=NC=NC(N)=C23)=CC=C1OC1=CC=CC=C1

>  <Kd (nM)>


>  <Assay (Kd)>


>  <Ki (nM)>


>  <Assay (Ki)>


>  <IC50 (nM)>


>  <Assay (IC50)>


>  <EC50 (nM)>


>  <Assay (EC50)>


>  <Article DOI>
10.1016/j.cell.2020.10.038

>  <Molecular Weight>
580.693

>  <Exact Mass>
580.291037

>  <XLogP3>
3.34

>  <Heavy Atom Count>
43

>  <Ring Count>
6

>  <Hydrogen Bond Acceptor Count>
9

>  <Hydrogen Bond Donor Count>
2

>  <Rotatable Bond Count>
7

>  <Topological Polar Surface Area>
131.5

>  <Molecular Formula>
C32H36N8O3

>  <InChI>
InChI=1S/C32H36N8O3/c1-3-28(42)36-26-19-22(9-14-27(26)43-25-7-5-4-6-8-25)30-29-31(33)34-20-35-32(29)40(37-30)24-12-10-23(11-13-24)39-17-15-38(16-18-39)21(2)41/h3-9,14,19-20,23-24H,1,10-13,15-18H2,2H3,(H,36,42)(H2,33,34,35)

>  <InChI Key>
FYICDSWKKFSYOM-UHFFFAOYSA-N

>  <BindingDB>


>  <PubChem>
78243752

>  <ChEMBL>


$$$$
248
Actelion Java MolfileCreator 2.0

  0  0  0  0  0  0              0 V3000
M  V30 BEGIN CTAB
M  V30 COUNTS 43 48 0 0 0
M  V30 BEGIN ATOM
M  V30 1 O 1.732 -1.5 0.0 0
M  V30 2 C 1.732 -0.5 0.0 0
M  V30 3 N 2.598 0.0 0.0 0
M  V30 4 C 0.866 0.0 0.0 0
M  V30 5 C 3.4641 -0.5 0.0 0
M  V30 6 C 0.0 -0.5 0.0 0
M  V30 7 C 3.4641 -1.5 0.0 0
M  V30 8 C 4.3301 0.0 0.0 0
M  V30 9 O 2.598 -1.9999 0.0 0
M  V30 10 C 4.3301 -2.0 0.0 0
M  V30 11 C 5.1961 -0.5 0.0 0
M  V30 12 C 2.598 -2.9999 0.0 0
M  V30 13 C 5.1961 -1.5 0.0 0
M  V30 14 C 6.0621 0.0 0.0 0
M  V30 15 C 1.732 -3.4999 0.0 0
M  V30 16 C 3.4641 -3.5 0.0 0
M  V30 17 N 6.9757 -0.4067 0.0 0
M  V30 18 C 6.1667 0.9945 0.0 0
M  V30 19 C 1.732 -4.4999 0.0 0
M  V30 20 C 3.4641 -4.5 0.0 0
M  V30 21 N 7.6448 0.3364 0.0 0
M  V30 22 C 5.4975 1.7376 0.0 0
M  V30 23 C 7.1448 1.2024 0.0 0
M  V30 24 C 2.598 -5.0 0.0 0
M  V30 25 C 8.6393 0.2318 0.0 0
M  V30 26 N 5.8065 2.6887 0.0 0
M  V30 27 N 4.5194 1.5297 0.0 0
M  V30 28 N 7.4538 2.1534 0.0 0
M  V30 29 C 9.0461 -0.6816 0.0 0
M  V30 30 C 9.2271 1.0408 0.0 0
M  V30 31 C 6.7847 2.8966 0.0 0
M  V30 32 C 10.0406 -0.7861 0.0 0
M  V30 33 C 10.2216 0.9363 0.0 0
M  V30 34 C 10.6284 0.0228 0.0 0
M  V30 35 N 11.6229 -0.0817 0.0 0
M  V30 36 C 12.0296 -0.9952 0.0 0
M  V30 37 C 12.2107 0.7273 0.0 0
M  V30 38 C 13.0242 -1.0997 0.0 0
M  V30 39 C 13.2052 0.6227 0.0 0
M  V30 40 N 13.6119 -0.2907 0.0 0
M  V30 41 C 14.6065 -0.3952 0.0 0
M  V30 42 O 15.0132 -1.3088 0.0 0
M  V30 43 C 15.1942 0.4137 0.0 0
M  V30 END ATOM
M  V30 BEGIN BOND
M  V30 1 2 1 2
M  V30 2 1 2 3
M  V30 3 1 2 4
M  V30 4 1 3 5
M  V30 5 2 4 6
M  V30 6 2 5 7
M  V30 7 1 5 8
M  V30 8 1 7 9
M  V30 9 1 7 10
M  V30 10 2 8 11
M  V30 11 1 9 12
M  V30 12 2 10 13
M  V30 13 1 11 14
M  V30 14 2 12 15
M  V30 15 1 12 16
M  V30 16 2 14 17
M  V30 17 1 14 18
M  V30 18 1 15 19
M  V30 19 2 16 20
M  V30 20 1 17 21
M  V30 21 2 18 22
M  V30 22 1 18 23
M  V30 23 2 19 24
M  V30 24 1 21 25
M  V30 25 1 22 26
M  V30 26 1 22 27
M  V30 27 2 23 28
M  V30 28 1 25 29
M  V30 29 1 25 30
M  V30 30 2 26 31
M  V30 31 1 29 32
M  V30 32 1 30 33
M  V30 33 1 32 34
M  V30 34 1 34 35
M  V30 35 1 35 36
M  V30 36 1 35 37
M  V30 37 1 36 38
M  V30 38 1 37 39
M  V30 39 1 38 40
M  V30 40 1 40 41
M  V30 41 2 41 42
M  V30 42 1 41 43
M  V30 43 1 11 13
M  V30 44 1 20 24
M  V30 45 1 21 23
M  V30 46 1 28 31
M  V30 47 1 33 34
M  V30 48 1 39 40
M  V30 END BOND
M  V30 END CTAB
M  END
>  <Molecule Name>
Compound 908

>  <Molecule Name 2>
Compound 908

>  <Compound ID>
248

>  <Name>
TX1-85-1

>  <Uniprot>
O14965

>  <Target>
AURKA

>  <Smiles>
C=CC(=O)NC1=CC(C2=NN(C3CCC(N4CCN(C(C)=O)CC4)CC3)C3=NC=NC(N)=C23)=CC=C1OC1=CC=CC=C1

>  <Kd (nM)>


>  <Assay (Kd)>


>  <Ki (nM)>


>  <Assay (Ki)>


>  <IC50 (nM)>


>  <Assay (IC50)>


>  <EC50 (nM)>


>  <Assay (EC50)>


>  <Article DOI>
10.1016/j.cell.2020.10.038

>  <Molecular Weight>
580.693

>  <Exact Mass>
580.291037

>  <XLogP3>
3.34

>  <Heavy Atom Count>
43

>  <Ring Count>
6

>  <Hydrogen Bond Acceptor Count>
9

>  <Hydrogen Bond Donor Count>
2

>  <Rotatable Bond Count>
7

>  <Topological Polar Surface Area>
131.5

>  <Molecular Formula>
C32H36N8O3

>  <InChI>
InChI=1S/C32H36N8O3/c1-3-28(42)36-26-19-22(9-14-27(26)43-25-7-5-4-6-8-25)30-29-31(33)34-20-35-32(29)40(37-30)24-12-10-23(11-13-24)39-17-15-38(16-18-39)21(2)41/h3-9,14,19-20,23-24H,1,10-13,15-18H2,2H3,(H,36,42)(H2,33,34,35)

>  <InChI Key>
FYICDSWKKFSYOM-UHFFFAOYSA-N

>  <BindingDB>


>  <PubChem>
78243752

>  <ChEMBL>


$$$$
248
Actelion Java MolfileCreator 2.0

  0  0  0  0  0  0              0 V3000
M  V30 BEGIN CTAB
M  V30 COUNTS 43 48 0 0 0
M  V30 BEGIN ATOM
M  V30 1 O 1.732 -1.5 0.0 0
M  V30 2 C 1.732 -0.5 0.0 0
M  V30 3 N 2.598 0.0 0.0 0
M  V30 4 C 0.866 0.0 0.0 0
M  V30 5 C 3.4641 -0.5 0.0 0
M  V30 6 C 0.0 -0.5 0.0 0
M  V30 7 C 3.4641 -1.5 0.0 0
M  V30 8 C 4.3301 0.0 0.0 0
M  V30 9 O 2.598 -1.9999 0.0 0
M  V30 10 C 4.3301 -2.0 0.0 0
M  V30 11 C 5.1961 -0.5 0.0 0
M  V30 12 C 2.598 -2.9999 0.0 0
M  V30 13 C 5.1961 -1.5 0.0 0
M  V30 14 C 6.0621 0.0 0.0 0
M  V30 15 C 1.732 -3.4999 0.0 0
M  V30 16 C 3.4641 -3.5 0.0 0
M  V30 17 N 6.9757 -0.4067 0.0 0
M  V30 18 C 6.1667 0.9945 0.0 0
M  V30 19 C 1.732 -4.4999 0.0 0
M  V30 20 C 3.4641 -4.5 0.0 0
M  V30 21 N 7.6448 0.3364 0.0 0
M  V30 22 C 5.4975 1.7376 0.0 0
M  V30 23 C 7.1448 1.2024 0.0 0
M  V30 24 C 2.598 -5.0 0.0 0
M  V30 25 C 8.6393 0.2318 0.0 0
M  V30 26 N 5.8065 2.6887 0.0 0
M  V30 27 N 4.5194 1.5297 0.0 0
M  V30 28 N 7.4538 2.1534 0.0 0
M  V30 29 C 9.0461 -0.6816 0.0 0
M  V30 30 C 9.2271 1.0408 0.0 0
M  V30 31 C 6.7847 2.8966 0.0 0
M  V30 32 C 10.0406 -0.7861 0.0 0
M  V30 33 C 10.2216 0.9363 0.0 0
M  V30 34 C 10.6284 0.0228 0.0 0
M  V30 35 N 11.6229 -0.0817 0.0 0
M  V30 36 C 12.0296 -0.9952 0.0 0
M  V30 37 C 12.2107 0.7273 0.0 0
M  V30 38 C 13.0242 -1.0997 0.0 0
M  V30 39 C 13.2052 0.6227 0.0 0
M  V30 40 N 13.6119 -0.2907 0.0 0
M  V30 41 C 14.6065 -0.3952 0.0 0
M  V30 42 O 15.0132 -1.3088 0.0 0
M  V30 43 C 15.1942 0.4137 0.0 0
M  V30 END ATOM
M  V30 BEGIN BOND
M  V30 1 2 1 2
M  V30 2 1 2 3
M  V30 3 1 2 4
M  V30 4 1 3 5
M  V30 5 2 4 6
M  V30 6 2 5 7
M  V30 7 1 5 8
M  V30 8 1 7 9
M  V30 9 1 7 10
M  V30 10 2 8 11
M  V30 11 1 9 12
M  V30 12 2 10 13
M  V30 13 1 11 14
M  V30 14 2 12 15
M  V30 15 1 12 16
M  V30 16 2 14 17
M  V30 17 1 14 18
M  V30 18 1 15 19
M  V30 19 2 16 20
M  V30 20 1 17 21
M  V30 21 2 18 22
M  V30 22 1 18 23
M  V30 23 2 19 24
M  V30 24 1 21 25
M  V30 25 1 22 26
M  V30 26 1 22 27
M  V30 27 2 23 28
M  V30 28 1 25 29
M  V30 29 1 25 30
M  V30 30 2 26 31
M  V30 31 1 29 32
M  V30 32 1 30 33
M  V30 33 1 32 34
M  V30 34 1 34 35
M  V30 35 1 35 36
M  V30 36 1 35 37
M  V30 37 1 36 38
M  V30 38 1 37 39
M  V30 39 1 38 40
M  V30 40 1 40 41
M  V30 41 2 41 42
M  V30 42 1 41 43
M  V30 43 1 11 13
M  V30 44 1 20 24
M  V30 45 1 21 23
M  V30 46 1 28 31
M  V30 47 1 33 34
M  V30 48 1 39 40
M  V30 END BOND
M  V30 END CTAB
M  END
>  <Molecule Name>
Compound 909

>  <Molecule Name 2>
Compound 909

>  <Compound ID>
248

>  <Name>
TX1-85-1

>  <Uniprot>
P51451

>  <Target>
BLK

>  <Smiles>
C=CC(=O)NC1=CC(C2=NN(C3CCC(N4CCN(C(C)=O)CC4)CC3)C3=NC=NC(N)=C23)=CC=C1OC1=CC=CC=C1

>  <Kd (nM)>


>  <Assay (Kd)>


>  <Ki (nM)>


>  <Assay (Ki)>


>  <IC50 (nM)>


>  <Assay (IC50)>


>  <EC50 (nM)>


>  <Assay (EC50)>


>  <Article DOI>
10.1016/j.cell.2020.10.038

>  <Molecular Weight>
580.693

>  <Exact Mass>
580.291037

>  <XLogP3>
3.34

>  <Heavy Atom Count>
43

>  <Ring Count>
6

>  <Hydrogen Bond Acceptor Count>
9

>  <Hydrogen Bond Donor Count>
2

>  <Rotatable Bond Count>
7

>  <Topological Polar Surface Area>
131.5

>  <Molecular Formula>
C32H36N8O3

>  <InChI>
InChI=1S/C32H36N8O3/c1-3-28(42)36-26-19-22(9-14-27(26)43-25-7-5-4-6-8-25)30-29-31(33)34-20-35-32(29)40(37-30)24-12-10-23(11-13-24)39-17-15-38(16-18-39)21(2)41/h3-9,14,19-20,23-24H,1,10-13,15-18H2,2H3,(H,36,42)(H2,33,34,35)

>  <InChI Key>
FYICDSWKKFSYOM-UHFFFAOYSA-N

>  <BindingDB>


>  <PubChem>
78243752

>  <ChEMBL>


$$$$
248
Actelion Java MolfileCreator 2.0

  0  0  0  0  0  0              0 V3000
M  V30 BEGIN CTAB
M  V30 COUNTS 43 48 0 0 0
M  V30 BEGIN ATOM
M  V30 1 O 1.732 -1.5 0.0 0
M  V30 2 C 1.732 -0.5 0.0 0
M  V30 3 N 2.598 0.0 0.0 0
M  V30 4 C 0.866 0.0 0.0 0
M  V30 5 C 3.4641 -0.5 0.0 0
M  V30 6 C 0.0 -0.5 0.0 0
M  V30 7 C 3.4641 -1.5 0.0 0
M  V30 8 C 4.3301 0.0 0.0 0
M  V30 9 O 2.598 -1.9999 0.0 0
M  V30 10 C 4.3301 -2.0 0.0 0
M  V30 11 C 5.1961 -0.5 0.0 0
M  V30 12 C 2.598 -2.9999 0.0 0
M  V30 13 C 5.1961 -1.5 0.0 0
M  V30 14 C 6.0621 0.0 0.0 0
M  V30 15 C 1.732 -3.4999 0.0 0
M  V30 16 C 3.4641 -3.5 0.0 0
M  V30 17 N 6.9757 -0.4067 0.0 0
M  V30 18 C 6.1667 0.9945 0.0 0
M  V30 19 C 1.732 -4.4999 0.0 0
M  V30 20 C 3.4641 -4.5 0.0 0
M  V30 21 N 7.6448 0.3364 0.0 0
M  V30 22 C 5.4975 1.7376 0.0 0
M  V30 23 C 7.1448 1.2024 0.0 0
M  V30 24 C 2.598 -5.0 0.0 0
M  V30 25 C 8.6393 0.2318 0.0 0
M  V30 26 N 5.8065 2.6887 0.0 0
M  V30 27 N 4.5194 1.5297 0.0 0
M  V30 28 N 7.4538 2.1534 0.0 0
M  V30 29 C 9.0461 -0.6816 0.0 0
M  V30 30 C 9.2271 1.0408 0.0 0
M  V30 31 C 6.7847 2.8966 0.0 0
M  V30 32 C 10.0406 -0.7861 0.0 0
M  V30 33 C 10.2216 0.9363 0.0 0
M  V30 34 C 10.6284 0.0228 0.0 0
M  V30 35 N 11.6229 -0.0817 0.0 0
M  V30 36 C 12.0296 -0.9952 0.0 0
M  V30 37 C 12.2107 0.7273 0.0 0
M  V30 38 C 13.0242 -1.0997 0.0 0
M  V30 39 C 13.2052 0.6227 0.0 0
M  V30 40 N 13.6119 -0.2907 0.0 0
M  V30 41 C 14.6065 -0.3952 0.0 0
M  V30 42 O 15.0132 -1.3088 0.0 0
M  V30 43 C 15.1942 0.4137 0.0 0
M  V30 END ATOM
M  V30 BEGIN BOND
M  V30 1 2 1 2
M  V30 2 1 2 3
M  V30 3 1 2 4
M  V30 4 1 3 5
M  V30 5 2 4 6
M  V30 6 2 5 7
M  V30 7 1 5 8
M  V30 8 1 7 9
M  V30 9 1 7 10
M  V30 10 2 8 11
M  V30 11 1 9 12
M  V30 12 2 10 13
M  V30 13 1 11 14
M  V30 14 2 12 15
M  V30 15 1 12 16
M  V30 16 2 14 17
M  V30 17 1 14 18
M  V30 18 1 15 19
M  V30 19 2 16 20
M  V30 20 1 17 21
M  V30 21 2 18 22
M  V30 22 1 18 23
M  V30 23 2 19 24
M  V30 24 1 21 25
M  V30 25 1 22 26
M  V30 26 1 22 27
M  V30 27 2 23 28
M  V30 28 1 25 29
M  V30 29 1 25 30
M  V30 30 2 26 31
M  V30 31 1 29 32
M  V30 32 1 30 33
M  V30 33 1 32 34
M  V30 34 1 34 35
M  V30 35 1 35 36
M  V30 36 1 35 37
M  V30 37 1 36 38
M  V30 38 1 37 39
M  V30 39 1 38 40
M  V30 40 1 40 41
M  V30 41 2 41 42
M  V30 42 1 41 43
M  V30 43 1 11 13
M  V30 44 1 20 24
M  V30 45 1 21 23
M  V30 46 1 28 31
M  V30 47 1 33 34
M  V30 48 1 39 40
M  V30 END BOND
M  V30 END CTAB
M  END
>  <Molecule Name>
Compound 910

>  <Molecule Name 2>
Compound 910

>  <Compound ID>
248

>  <Name>
TX1-85-1

>  <Uniprot>
P41240

>  <Target>
CSK

>  <Smiles>
C=CC(=O)NC1=CC(C2=NN(C3CCC(N4CCN(C(C)=O)CC4)CC3)C3=NC=NC(N)=C23)=CC=C1OC1=CC=CC=C1

>  <Kd (nM)>


>  <Assay (Kd)>


>  <Ki (nM)>


>  <Assay (Ki)>


>  <IC50 (nM)>


>  <Assay (IC50)>


>  <EC50 (nM)>


>  <Assay (EC50)>


>  <Article DOI>
10.1016/j.cell.2020.10.038

>  <Molecular Weight>
580.693

>  <Exact Mass>
580.291037

>  <XLogP3>
3.34

>  <Heavy Atom Count>
43

>  <Ring Count>
6

>  <Hydrogen Bond Acceptor Count>
9

>  <Hydrogen Bond Donor Count>
2

>  <Rotatable Bond Count>
7

>  <Topological Polar Surface Area>
131.5

>  <Molecular Formula>
C32H36N8O3

>  <InChI>
InChI=1S/C32H36N8O3/c1-3-28(42)36-26-19-22(9-14-27(26)43-25-7-5-4-6-8-25)30-29-31(33)34-20-35-32(29)40(37-30)24-12-10-23(11-13-24)39-17-15-38(16-18-39)21(2)41/h3-9,14,19-20,23-24H,1,10-13,15-18H2,2H3,(H,36,42)(H2,33,34,35)

>  <InChI Key>
FYICDSWKKFSYOM-UHFFFAOYSA-N

>  <BindingDB>


>  <PubChem>
78243752

>  <ChEMBL>


$$$$
248
Actelion Java MolfileCreator 2.0

  0  0  0  0  0  0              0 V3000
M  V30 BEGIN CTAB
M  V30 COUNTS 43 48 0 0 0
M  V30 BEGIN ATOM
M  V30 1 O 1.732 -1.5 0.0 0
M  V30 2 C 1.732 -0.5 0.0 0
M  V30 3 N 2.598 0.0 0.0 0
M  V30 4 C 0.866 0.0 0.0 0
M  V30 5 C 3.4641 -0.5 0.0 0
M  V30 6 C 0.0 -0.5 0.0 0
M  V30 7 C 3.4641 -1.5 0.0 0
M  V30 8 C 4.3301 0.0 0.0 0
M  V30 9 O 2.598 -1.9999 0.0 0
M  V30 10 C 4.3301 -2.0 0.0 0
M  V30 11 C 5.1961 -0.5 0.0 0
M  V30 12 C 2.598 -2.9999 0.0 0
M  V30 13 C 5.1961 -1.5 0.0 0
M  V30 14 C 6.0621 0.0 0.0 0
M  V30 15 C 1.732 -3.4999 0.0 0
M  V30 16 C 3.4641 -3.5 0.0 0
M  V30 17 N 6.9757 -0.4067 0.0 0
M  V30 18 C 6.1667 0.9945 0.0 0
M  V30 19 C 1.732 -4.4999 0.0 0
M  V30 20 C 3.4641 -4.5 0.0 0
M  V30 21 N 7.6448 0.3364 0.0 0
M  V30 22 C 5.4975 1.7376 0.0 0
M  V30 23 C 7.1448 1.2024 0.0 0
M  V30 24 C 2.598 -5.0 0.0 0
M  V30 25 C 8.6393 0.2318 0.0 0
M  V30 26 N 5.8065 2.6887 0.0 0
M  V30 27 N 4.5194 1.5297 0.0 0
M  V30 28 N 7.4538 2.1534 0.0 0
M  V30 29 C 9.0461 -0.6816 0.0 0
M  V30 30 C 9.2271 1.0408 0.0 0
M  V30 31 C 6.7847 2.8966 0.0 0
M  V30 32 C 10.0406 -0.7861 0.0 0
M  V30 33 C 10.2216 0.9363 0.0 0
M  V30 34 C 10.6284 0.0228 0.0 0
M  V30 35 N 11.6229 -0.0817 0.0 0
M  V30 36 C 12.0296 -0.9952 0.0 0
M  V30 37 C 12.2107 0.7273 0.0 0
M  V30 38 C 13.0242 -1.0997 0.0 0
M  V30 39 C 13.2052 0.6227 0.0 0
M  V30 40 N 13.6119 -0.2907 0.0 0
M  V30 41 C 14.6065 -0.3952 0.0 0
M  V30 42 O 15.0132 -1.3088 0.0 0
M  V30 43 C 15.1942 0.4137 0.0 0
M  V30 END ATOM
M  V30 BEGIN BOND
M  V30 1 2 1 2
M  V30 2 1 2 3
M  V30 3 1 2 4
M  V30 4 1 3 5
M  V30 5 2 4 6
M  V30 6 2 5 7
M  V30 7 1 5 8
M  V30 8 1 7 9
M  V30 9 1 7 10
M  V30 10 2 8 11
M  V30 11 1 9 12
M  V30 12 2 10 13
M  V30 13 1 11 14
M  V30 14 2 12 15
M  V30 15 1 12 16
M  V30 16 2 14 17
M  V30 17 1 14 18
M  V30 18 1 15 19
M  V30 19 2 16 20
M  V30 20 1 17 21
M  V30 21 2 18 22
M  V30 22 1 18 23
M  V30 23 2 19 24
M  V30 24 1 21 25
M  V30 25 1 22 26
M  V30 26 1 22 27
M  V30 27 2 23 28
M  V30 28 1 25 29
M  V30 29 1 25 30
M  V30 30 2 26 31
M  V30 31 1 29 32
M  V30 32 1 30 33
M  V30 33 1 32 34
M  V30 34 1 34 35
M  V30 35 1 35 36
M  V30 36 1 35 37
M  V30 37 1 36 38
M  V30 38 1 37 39
M  V30 39 1 38 40
M  V30 40 1 40 41
M  V30 41 2 41 42
M  V30 42 1 41 43
M  V30 43 1 11 13
M  V30 44 1 20 24
M  V30 45 1 21 23
M  V30 46 1 28 31
M  V30 47 1 33 34
M  V30 48 1 39 40
M  V30 END BOND
M  V30 END CTAB
M  END
>  <Molecule Name>
Compound 911

>  <Molecule Name 2>
Compound 911

>  <Compound ID>
248

>  <Name>
TX1-85-1

>  <Uniprot>
P49674

>  <Target>
CSNK1E

>  <Smiles>
C=CC(=O)NC1=CC(C2=NN(C3CCC(N4CCN(C(C)=O)CC4)CC3)C3=NC=NC(N)=C23)=CC=C1OC1=CC=CC=C1

>  <Kd (nM)>


>  <Assay (Kd)>


>  <Ki (nM)>


>  <Assay (Ki)>


>  <IC50 (nM)>


>  <Assay (IC50)>


>  <EC50 (nM)>


>  <Assay (EC50)>


>  <Article DOI>
10.1016/j.cell.2020.10.038

>  <Molecular Weight>
580.693

>  <Exact Mass>
580.291037

>  <XLogP3>
3.34

>  <Heavy Atom Count>
43

>  <Ring Count>
6

>  <Hydrogen Bond Acceptor Count>
9

>  <Hydrogen Bond Donor Count>
2

>  <Rotatable Bond Count>
7

>  <Topological Polar Surface Area>
131.5

>  <Molecular Formula>
C32H36N8O3

>  <InChI>
InChI=1S/C32H36N8O3/c1-3-28(42)36-26-19-22(9-14-27(26)43-25-7-5-4-6-8-25)30-29-31(33)34-20-35-32(29)40(37-30)24-12-10-23(11-13-24)39-17-15-38(16-18-39)21(2)41/h3-9,14,19-20,23-24H,1,10-13,15-18H2,2H3,(H,36,42)(H2,33,34,35)

>  <InChI Key>
FYICDSWKKFSYOM-UHFFFAOYSA-N

>  <BindingDB>


>  <PubChem>
78243752

>  <ChEMBL>


$$$$
248
Actelion Java MolfileCreator 2.0

  0  0  0  0  0  0              0 V3000
M  V30 BEGIN CTAB
M  V30 COUNTS 43 48 0 0 0
M  V30 BEGIN ATOM
M  V30 1 O 1.732 -1.5 0.0 0
M  V30 2 C 1.732 -0.5 0.0 0
M  V30 3 N 2.598 0.0 0.0 0
M  V30 4 C 0.866 0.0 0.0 0
M  V30 5 C 3.4641 -0.5 0.0 0
M  V30 6 C 0.0 -0.5 0.0 0
M  V30 7 C 3.4641 -1.5 0.0 0
M  V30 8 C 4.3301 0.0 0.0 0
M  V30 9 O 2.598 -1.9999 0.0 0
M  V30 10 C 4.3301 -2.0 0.0 0
M  V30 11 C 5.1961 -0.5 0.0 0
M  V30 12 C 2.598 -2.9999 0.0 0
M  V30 13 C 5.1961 -1.5 0.0 0
M  V30 14 C 6.0621 0.0 0.0 0
M  V30 15 C 1.732 -3.4999 0.0 0
M  V30 16 C 3.4641 -3.5 0.0 0
M  V30 17 N 6.9757 -0.4067 0.0 0
M  V30 18 C 6.1667 0.9945 0.0 0
M  V30 19 C 1.732 -4.4999 0.0 0
M  V30 20 C 3.4641 -4.5 0.0 0
M  V30 21 N 7.6448 0.3364 0.0 0
M  V30 22 C 5.4975 1.7376 0.0 0
M  V30 23 C 7.1448 1.2024 0.0 0
M  V30 24 C 2.598 -5.0 0.0 0
M  V30 25 C 8.6393 0.2318 0.0 0
M  V30 26 N 5.8065 2.6887 0.0 0
M  V30 27 N 4.5194 1.5297 0.0 0
M  V30 28 N 7.4538 2.1534 0.0 0
M  V30 29 C 9.0461 -0.6816 0.0 0
M  V30 30 C 9.2271 1.0408 0.0 0
M  V30 31 C 6.7847 2.8966 0.0 0
M  V30 32 C 10.0406 -0.7861 0.0 0
M  V30 33 C 10.2216 0.9363 0.0 0
M  V30 34 C 10.6284 0.0228 0.0 0
M  V30 35 N 11.6229 -0.0817 0.0 0
M  V30 36 C 12.0296 -0.9952 0.0 0
M  V30 37 C 12.2107 0.7273 0.0 0
M  V30 38 C 13.0242 -1.0997 0.0 0
M  V30 39 C 13.2052 0.6227 0.0 0
M  V30 40 N 13.6119 -0.2907 0.0 0
M  V30 41 C 14.6065 -0.3952 0.0 0
M  V30 42 O 15.0132 -1.3088 0.0 0
M  V30 43 C 15.1942 0.4137 0.0 0
M  V30 END ATOM
M  V30 BEGIN BOND
M  V30 1 2 1 2
M  V30 2 1 2 3
M  V30 3 1 2 4
M  V30 4 1 3 5
M  V30 5 2 4 6
M  V30 6 2 5 7
M  V30 7 1 5 8
M  V30 8 1 7 9
M  V30 9 1 7 10
M  V30 10 2 8 11
M  V30 11 1 9 12
M  V30 12 2 10 13
M  V30 13 1 11 14
M  V30 14 2 12 15
M  V30 15 1 12 16
M  V30 16 2 14 17
M  V30 17 1 14 18
M  V30 18 1 15 19
M  V30 19 2 16 20
M  V30 20 1 17 21
M  V30 21 2 18 22
M  V30 22 1 18 23
M  V30 23 2 19 24
M  V30 24 1 21 25
M  V30 25 1 22 26
M  V30 26 1 22 27
M  V30 27 2 23 28
M  V30 28 1 25 29
M  V30 29 1 25 30
M  V30 30 2 26 31
M  V30 31 1 29 32
M  V30 32 1 30 33
M  V30 33 1 32 34
M  V30 34 1 34 35
M  V30 35 1 35 36
M  V30 36 1 35 37
M  V30 37 1 36 38
M  V30 38 1 37 39
M  V30 39 1 38 40
M  V30 40 1 40 41
M  V30 41 2 41 42
M  V30 42 1 41 43
M  V30 43 1 11 13
M  V30 44 1 20 24
M  V30 45 1 21 23
M  V30 46 1 28 31
M  V30 47 1 33 34
M  V30 48 1 39 40
M  V30 END BOND
M  V30 END CTAB
M  END
>  <Molecule Name>
Compound 912

>  <Molecule Name 2>
Compound 912

>  <Compound ID>
248

>  <Name>
TX1-85-1

>  <Uniprot>
P06241

>  <Target>
FYN

>  <Smiles>
C=CC(=O)NC1=CC(C2=NN(C3CCC(N4CCN(C(C)=O)CC4)CC3)C3=NC=NC(N)=C23)=CC=C1OC1=CC=CC=C1

>  <Kd (nM)>


>  <Assay (Kd)>


>  <Ki (nM)>


>  <Assay (Ki)>


>  <IC50 (nM)>


>  <Assay (IC50)>


>  <EC50 (nM)>


>  <Assay (EC50)>


>  <Article DOI>
10.1016/j.cell.2020.10.038

>  <Molecular Weight>
580.693

>  <Exact Mass>
580.291037

>  <XLogP3>
3.34

>  <Heavy Atom Count>
43

>  <Ring Count>
6

>  <Hydrogen Bond Acceptor Count>
9

>  <Hydrogen Bond Donor Count>
2

>  <Rotatable Bond Count>
7

>  <Topological Polar Surface Area>
131.5

>  <Molecular Formula>
C32H36N8O3

>  <InChI>
InChI=1S/C32H36N8O3/c1-3-28(42)36-26-19-22(9-14-27(26)43-25-7-5-4-6-8-25)30-29-31(33)34-20-35-32(29)40(37-30)24-12-10-23(11-13-24)39-17-15-38(16-18-39)21(2)41/h3-9,14,19-20,23-24H,1,10-13,15-18H2,2H3,(H,36,42)(H2,33,34,35)

>  <InChI Key>
FYICDSWKKFSYOM-UHFFFAOYSA-N

>  <BindingDB>


>  <PubChem>
78243752

>  <ChEMBL>


$$$$
248
Actelion Java MolfileCreator 2.0

  0  0  0  0  0  0              0 V3000
M  V30 BEGIN CTAB
M  V30 COUNTS 43 48 0 0 0
M  V30 BEGIN ATOM
M  V30 1 O 1.732 -1.5 0.0 0
M  V30 2 C 1.732 -0.5 0.0 0
M  V30 3 N 2.598 0.0 0.0 0
M  V30 4 C 0.866 0.0 0.0 0
M  V30 5 C 3.4641 -0.5 0.0 0
M  V30 6 C 0.0 -0.5 0.0 0
M  V30 7 C 3.4641 -1.5 0.0 0
M  V30 8 C 4.3301 0.0 0.0 0
M  V30 9 O 2.598 -1.9999 0.0 0
M  V30 10 C 4.3301 -2.0 0.0 0
M  V30 11 C 5.1961 -0.5 0.0 0
M  V30 12 C 2.598 -2.9999 0.0 0
M  V30 13 C 5.1961 -1.5 0.0 0
M  V30 14 C 6.0621 0.0 0.0 0
M  V30 15 C 1.732 -3.4999 0.0 0
M  V30 16 C 3.4641 -3.5 0.0 0
M  V30 17 N 6.9757 -0.4067 0.0 0
M  V30 18 C 6.1667 0.9945 0.0 0
M  V30 19 C 1.732 -4.4999 0.0 0
M  V30 20 C 3.4641 -4.5 0.0 0
M  V30 21 N 7.6448 0.3364 0.0 0
M  V30 22 C 5.4975 1.7376 0.0 0
M  V30 23 C 7.1448 1.2024 0.0 0
M  V30 24 C 2.598 -5.0 0.0 0
M  V30 25 C 8.6393 0.2318 0.0 0
M  V30 26 N 5.8065 2.6887 0.0 0
M  V30 27 N 4.5194 1.5297 0.0 0
M  V30 28 N 7.4538 2.1534 0.0 0
M  V30 29 C 9.0461 -0.6816 0.0 0
M  V30 30 C 9.2271 1.0408 0.0 0
M  V30 31 C 6.7847 2.8966 0.0 0
M  V30 32 C 10.0406 -0.7861 0.0 0
M  V30 33 C 10.2216 0.9363 0.0 0
M  V30 34 C 10.6284 0.0228 0.0 0
M  V30 35 N 11.6229 -0.0817 0.0 0
M  V30 36 C 12.0296 -0.9952 0.0 0
M  V30 37 C 12.2107 0.7273 0.0 0
M  V30 38 C 13.0242 -1.0997 0.0 0
M  V30 39 C 13.2052 0.6227 0.0 0
M  V30 40 N 13.6119 -0.2907 0.0 0
M  V30 41 C 14.6065 -0.3952 0.0 0
M  V30 42 O 15.0132 -1.3088 0.0 0
M  V30 43 C 15.1942 0.4137 0.0 0
M  V30 END ATOM
M  V30 BEGIN BOND
M  V30 1 2 1 2
M  V30 2 1 2 3
M  V30 3 1 2 4
M  V30 4 1 3 5
M  V30 5 2 4 6
M  V30 6 2 5 7
M  V30 7 1 5 8
M  V30 8 1 7 9
M  V30 9 1 7 10
M  V30 10 2 8 11
M  V30 11 1 9 12
M  V30 12 2 10 13
M  V30 13 1 11 14
M  V30 14 2 12 15
M  V30 15 1 12 16
M  V30 16 2 14 17
M  V30 17 1 14 18
M  V30 18 1 15 19
M  V30 19 2 16 20
M  V30 20 1 17 21
M  V30 21 2 18 22
M  V30 22 1 18 23
M  V30 23 2 19 24
M  V30 24 1 21 25
M  V30 25 1 22 26
M  V30 26 1 22 27
M  V30 27 2 23 28
M  V30 28 1 25 29
M  V30 29 1 25 30
M  V30 30 2 26 31
M  V30 31 1 29 32
M  V30 32 1 30 33
M  V30 33 1 32 34
M  V30 34 1 34 35
M  V30 35 1 35 36
M  V30 36 1 35 37
M  V30 37 1 36 38
M  V30 38 1 37 39
M  V30 39 1 38 40
M  V30 40 1 40 41
M  V30 41 2 41 42
M  V30 42 1 41 43
M  V30 43 1 11 13
M  V30 44 1 20 24
M  V30 45 1 21 23
M  V30 46 1 28 31
M  V30 47 1 33 34
M  V30 48 1 39 40
M  V30 END BOND
M  V30 END CTAB
M  END
>  <Molecule Name>
Compound 913

>  <Molecule Name 2>
Compound 913

>  <Compound ID>
248

>  <Name>
TX1-85-1

>  <Uniprot>
O95835

>  <Target>
LATS1

>  <Smiles>
C=CC(=O)NC1=CC(C2=NN(C3CCC(N4CCN(C(C)=O)CC4)CC3)C3=NC=NC(N)=C23)=CC=C1OC1=CC=CC=C1

>  <Kd (nM)>


>  <Assay (Kd)>


>  <Ki (nM)>


>  <Assay (Ki)>


>  <IC50 (nM)>


>  <Assay (IC50)>


>  <EC50 (nM)>


>  <Assay (EC50)>


>  <Article DOI>
10.1016/j.cell.2020.10.038

>  <Molecular Weight>
580.693

>  <Exact Mass>
580.291037

>  <XLogP3>
3.34

>  <Heavy Atom Count>
43

>  <Ring Count>
6

>  <Hydrogen Bond Acceptor Count>
9

>  <Hydrogen Bond Donor Count>
2

>  <Rotatable Bond Count>
7

>  <Topological Polar Surface Area>
131.5

>  <Molecular Formula>
C32H36N8O3

>  <InChI>
InChI=1S/C32H36N8O3/c1-3-28(42)36-26-19-22(9-14-27(26)43-25-7-5-4-6-8-25)30-29-31(33)34-20-35-32(29)40(37-30)24-12-10-23(11-13-24)39-17-15-38(16-18-39)21(2)41/h3-9,14,19-20,23-24H,1,10-13,15-18H2,2H3,(H,36,42)(H2,33,34,35)

>  <InChI Key>
FYICDSWKKFSYOM-UHFFFAOYSA-N

>  <BindingDB>


>  <PubChem>
78243752

>  <ChEMBL>


$$$$
248
Actelion Java MolfileCreator 2.0

  0  0  0  0  0  0              0 V3000
M  V30 BEGIN CTAB
M  V30 COUNTS 43 48 0 0 0
M  V30 BEGIN ATOM
M  V30 1 O 1.732 -1.5 0.0 0
M  V30 2 C 1.732 -0.5 0.0 0
M  V30 3 N 2.598 0.0 0.0 0
M  V30 4 C 0.866 0.0 0.0 0
M  V30 5 C 3.4641 -0.5 0.0 0
M  V30 6 C 0.0 -0.5 0.0 0
M  V30 7 C 3.4641 -1.5 0.0 0
M  V30 8 C 4.3301 0.0 0.0 0
M  V30 9 O 2.598 -1.9999 0.0 0
M  V30 10 C 4.3301 -2.0 0.0 0
M  V30 11 C 5.1961 -0.5 0.0 0
M  V30 12 C 2.598 -2.9999 0.0 0
M  V30 13 C 5.1961 -1.5 0.0 0
M  V30 14 C 6.0621 0.0 0.0 0
M  V30 15 C 1.732 -3.4999 0.0 0
M  V30 16 C 3.4641 -3.5 0.0 0
M  V30 17 N 6.9757 -0.4067 0.0 0
M  V30 18 C 6.1667 0.9945 0.0 0
M  V30 19 C 1.732 -4.4999 0.0 0
M  V30 20 C 3.4641 -4.5 0.0 0
M  V30 21 N 7.6448 0.3364 0.0 0
M  V30 22 C 5.4975 1.7376 0.0 0
M  V30 23 C 7.1448 1.2024 0.0 0
M  V30 24 C 2.598 -5.0 0.0 0
M  V30 25 C 8.6393 0.2318 0.0 0
M  V30 26 N 5.8065 2.6887 0.0 0
M  V30 27 N 4.5194 1.5297 0.0 0
M  V30 28 N 7.4538 2.1534 0.0 0
M  V30 29 C 9.0461 -0.6816 0.0 0
M  V30 30 C 9.2271 1.0408 0.0 0
M  V30 31 C 6.7847 2.8966 0.0 0
M  V30 32 C 10.0406 -0.7861 0.0 0
M  V30 33 C 10.2216 0.9363 0.0 0
M  V30 34 C 10.6284 0.0228 0.0 0
M  V30 35 N 11.6229 -0.0817 0.0 0
M  V30 36 C 12.0296 -0.9952 0.0 0
M  V30 37 C 12.2107 0.7273 0.0 0
M  V30 38 C 13.0242 -1.0997 0.0 0
M  V30 39 C 13.2052 0.6227 0.0 0
M  V30 40 N 13.6119 -0.2907 0.0 0
M  V30 41 C 14.6065 -0.3952 0.0 0
M  V30 42 O 15.0132 -1.3088 0.0 0
M  V30 43 C 15.1942 0.4137 0.0 0
M  V30 END ATOM
M  V30 BEGIN BOND
M  V30 1 2 1 2
M  V30 2 1 2 3
M  V30 3 1 2 4
M  V30 4 1 3 5
M  V30 5 2 4 6
M  V30 6 2 5 7
M  V30 7 1 5 8
M  V30 8 1 7 9
M  V30 9 1 7 10
M  V30 10 2 8 11
M  V30 11 1 9 12
M  V30 12 2 10 13
M  V30 13 1 11 14
M  V30 14 2 12 15
M  V30 15 1 12 16
M  V30 16 2 14 17
M  V30 17 1 14 18
M  V30 18 1 15 19
M  V30 19 2 16 20
M  V30 20 1 17 21
M  V30 21 2 18 22
M  V30 22 1 18 23
M  V30 23 2 19 24
M  V30 24 1 21 25
M  V30 25 1 22 26
M  V30 26 1 22 27
M  V30 27 2 23 28
M  V30 28 1 25 29
M  V30 29 1 25 30
M  V30 30 2 26 31
M  V30 31 1 29 32
M  V30 32 1 30 33
M  V30 33 1 32 34
M  V30 34 1 34 35
M  V30 35 1 35 36
M  V30 36 1 35 37
M  V30 37 1 36 38
M  V30 38 1 37 39
M  V30 39 1 38 40
M  V30 40 1 40 41
M  V30 41 2 41 42
M  V30 42 1 41 43
M  V30 43 1 11 13
M  V30 44 1 20 24
M  V30 45 1 21 23
M  V30 46 1 28 31
M  V30 47 1 33 34
M  V30 48 1 39 40
M  V30 END BOND
M  V30 END CTAB
M  END
>  <Molecule Name>
Compound 914

>  <Molecule Name 2>
Compound 914

>  <Compound ID>
248

>  <Name>
TX1-85-1

>  <Uniprot>
P06239

>  <Target>
LCK

>  <Smiles>
C=CC(=O)NC1=CC(C2=NN(C3CCC(N4CCN(C(C)=O)CC4)CC3)C3=NC=NC(N)=C23)=CC=C1OC1=CC=CC=C1

>  <Kd (nM)>


>  <Assay (Kd)>


>  <Ki (nM)>


>  <Assay (Ki)>


>  <IC50 (nM)>


>  <Assay (IC50)>


>  <EC50 (nM)>


>  <Assay (EC50)>


>  <Article DOI>
10.1016/j.cell.2020.10.038

>  <Molecular Weight>
580.693

>  <Exact Mass>
580.291037

>  <XLogP3>
3.34

>  <Heavy Atom Count>
43

>  <Ring Count>
6

>  <Hydrogen Bond Acceptor Count>
9

>  <Hydrogen Bond Donor Count>
2

>  <Rotatable Bond Count>
7

>  <Topological Polar Surface Area>
131.5

>  <Molecular Formula>
C32H36N8O3

>  <InChI>
InChI=1S/C32H36N8O3/c1-3-28(42)36-26-19-22(9-14-27(26)43-25-7-5-4-6-8-25)30-29-31(33)34-20-35-32(29)40(37-30)24-12-10-23(11-13-24)39-17-15-38(16-18-39)21(2)41/h3-9,14,19-20,23-24H,1,10-13,15-18H2,2H3,(H,36,42)(H2,33,34,35)

>  <InChI Key>
FYICDSWKKFSYOM-UHFFFAOYSA-N

>  <BindingDB>


>  <PubChem>
78243752

>  <ChEMBL>


$$$$
248
Actelion Java MolfileCreator 2.0

  0  0  0  0  0  0              0 V3000
M  V30 BEGIN CTAB
M  V30 COUNTS 43 48 0 0 0
M  V30 BEGIN ATOM
M  V30 1 O 1.732 -1.5 0.0 0
M  V30 2 C 1.732 -0.5 0.0 0
M  V30 3 N 2.598 0.0 0.0 0
M  V30 4 C 0.866 0.0 0.0 0
M  V30 5 C 3.4641 -0.5 0.0 0
M  V30 6 C 0.0 -0.5 0.0 0
M  V30 7 C 3.4641 -1.5 0.0 0
M  V30 8 C 4.3301 0.0 0.0 0
M  V30 9 O 2.598 -1.9999 0.0 0
M  V30 10 C 4.3301 -2.0 0.0 0
M  V30 11 C 5.1961 -0.5 0.0 0
M  V30 12 C 2.598 -2.9999 0.0 0
M  V30 13 C 5.1961 -1.5 0.0 0
M  V30 14 C 6.0621 0.0 0.0 0
M  V30 15 C 1.732 -3.4999 0.0 0
M  V30 16 C 3.4641 -3.5 0.0 0
M  V30 17 N 6.9757 -0.4067 0.0 0
M  V30 18 C 6.1667 0.9945 0.0 0
M  V30 19 C 1.732 -4.4999 0.0 0
M  V30 20 C 3.4641 -4.5 0.0 0
M  V30 21 N 7.6448 0.3364 0.0 0
M  V30 22 C 5.4975 1.7376 0.0 0
M  V30 23 C 7.1448 1.2024 0.0 0
M  V30 24 C 2.598 -5.0 0.0 0
M  V30 25 C 8.6393 0.2318 0.0 0
M  V30 26 N 5.8065 2.6887 0.0 0
M  V30 27 N 4.5194 1.5297 0.0 0
M  V30 28 N 7.4538 2.1534 0.0 0
M  V30 29 C 9.0461 -0.6816 0.0 0
M  V30 30 C 9.2271 1.0408 0.0 0
M  V30 31 C 6.7847 2.8966 0.0 0
M  V30 32 C 10.0406 -0.7861 0.0 0
M  V30 33 C 10.2216 0.9363 0.0 0
M  V30 34 C 10.6284 0.0228 0.0 0
M  V30 35 N 11.6229 -0.0817 0.0 0
M  V30 36 C 12.0296 -0.9952 0.0 0
M  V30 37 C 12.2107 0.7273 0.0 0
M  V30 38 C 13.0242 -1.0997 0.0 0
M  V30 39 C 13.2052 0.6227 0.0 0
M  V30 40 N 13.6119 -0.2907 0.0 0
M  V30 41 C 14.6065 -0.3952 0.0 0
M  V30 42 O 15.0132 -1.3088 0.0 0
M  V30 43 C 15.1942 0.4137 0.0 0
M  V30 END ATOM
M  V30 BEGIN BOND
M  V30 1 2 1 2
M  V30 2 1 2 3
M  V30 3 1 2 4
M  V30 4 1 3 5
M  V30 5 2 4 6
M  V30 6 2 5 7
M  V30 7 1 5 8
M  V30 8 1 7 9
M  V30 9 1 7 10
M  V30 10 2 8 11
M  V30 11 1 9 12
M  V30 12 2 10 13
M  V30 13 1 11 14
M  V30 14 2 12 15
M  V30 15 1 12 16
M  V30 16 2 14 17
M  V30 17 1 14 18
M  V30 18 1 15 19
M  V30 19 2 16 20
M  V30 20 1 17 21
M  V30 21 2 18 22
M  V30 22 1 18 23
M  V30 23 2 19 24
M  V30 24 1 21 25
M  V30 25 1 22 26
M  V30 26 1 22 27
M  V30 27 2 23 28
M  V30 28 1 25 29
M  V30 29 1 25 30
M  V30 30 2 26 31
M  V30 31 1 29 32
M  V30 32 1 30 33
M  V30 33 1 32 34
M  V30 34 1 34 35
M  V30 35 1 35 36
M  V30 36 1 35 37
M  V30 37 1 36 38
M  V30 38 1 37 39
M  V30 39 1 38 40
M  V30 40 1 40 41
M  V30 41 2 41 42
M  V30 42 1 41 43
M  V30 43 1 11 13
M  V30 44 1 20 24
M  V30 45 1 21 23
M  V30 46 1 28 31
M  V30 47 1 33 34
M  V30 48 1 39 40
M  V30 END BOND
M  V30 END CTAB
M  END
>  <Molecule Name>
Compound 915

>  <Molecule Name 2>
Compound 915

>  <Compound ID>
248

>  <Name>
TX1-85-1

>  <Uniprot>
P53667

>  <Target>
LIMK1

>  <Smiles>
C=CC(=O)NC1=CC(C2=NN(C3CCC(N4CCN(C(C)=O)CC4)CC3)C3=NC=NC(N)=C23)=CC=C1OC1=CC=CC=C1

>  <Kd (nM)>


>  <Assay (Kd)>


>  <Ki (nM)>


>  <Assay (Ki)>


>  <IC50 (nM)>


>  <Assay (IC50)>


>  <EC50 (nM)>


>  <Assay (EC50)>


>  <Article DOI>
10.1016/j.cell.2020.10.038

>  <Molecular Weight>
580.693

>  <Exact Mass>
580.291037

>  <XLogP3>
3.34

>  <Heavy Atom Count>
43

>  <Ring Count>
6

>  <Hydrogen Bond Acceptor Count>
9

>  <Hydrogen Bond Donor Count>
2

>  <Rotatable Bond Count>
7

>  <Topological Polar Surface Area>
131.5

>  <Molecular Formula>
C32H36N8O3

>  <InChI>
InChI=1S/C32H36N8O3/c1-3-28(42)36-26-19-22(9-14-27(26)43-25-7-5-4-6-8-25)30-29-31(33)34-20-35-32(29)40(37-30)24-12-10-23(11-13-24)39-17-15-38(16-18-39)21(2)41/h3-9,14,19-20,23-24H,1,10-13,15-18H2,2H3,(H,36,42)(H2,33,34,35)

>  <InChI Key>
FYICDSWKKFSYOM-UHFFFAOYSA-N

>  <BindingDB>


>  <PubChem>
78243752

>  <ChEMBL>


$$$$
248
Actelion Java MolfileCreator 2.0

  0  0  0  0  0  0              0 V3000
M  V30 BEGIN CTAB
M  V30 COUNTS 43 48 0 0 0
M  V30 BEGIN ATOM
M  V30 1 O 1.732 -1.5 0.0 0
M  V30 2 C 1.732 -0.5 0.0 0
M  V30 3 N 2.598 0.0 0.0 0
M  V30 4 C 0.866 0.0 0.0 0
M  V30 5 C 3.4641 -0.5 0.0 0
M  V30 6 C 0.0 -0.5 0.0 0
M  V30 7 C 3.4641 -1.5 0.0 0
M  V30 8 C 4.3301 0.0 0.0 0
M  V30 9 O 2.598 -1.9999 0.0 0
M  V30 10 C 4.3301 -2.0 0.0 0
M  V30 11 C 5.1961 -0.5 0.0 0
M  V30 12 C 2.598 -2.9999 0.0 0
M  V30 13 C 5.1961 -1.5 0.0 0
M  V30 14 C 6.0621 0.0 0.0 0
M  V30 15 C 1.732 -3.4999 0.0 0
M  V30 16 C 3.4641 -3.5 0.0 0
M  V30 17 N 6.9757 -0.4067 0.0 0
M  V30 18 C 6.1667 0.9945 0.0 0
M  V30 19 C 1.732 -4.4999 0.0 0
M  V30 20 C 3.4641 -4.5 0.0 0
M  V30 21 N 7.6448 0.3364 0.0 0
M  V30 22 C 5.4975 1.7376 0.0 0
M  V30 23 C 7.1448 1.2024 0.0 0
M  V30 24 C 2.598 -5.0 0.0 0
M  V30 25 C 8.6393 0.2318 0.0 0
M  V30 26 N 5.8065 2.6887 0.0 0
M  V30 27 N 4.5194 1.5297 0.0 0
M  V30 28 N 7.4538 2.1534 0.0 0
M  V30 29 C 9.0461 -0.6816 0.0 0
M  V30 30 C 9.2271 1.0408 0.0 0
M  V30 31 C 6.7847 2.8966 0.0 0
M  V30 32 C 10.0406 -0.7861 0.0 0
M  V30 33 C 10.2216 0.9363 0.0 0
M  V30 34 C 10.6284 0.0228 0.0 0
M  V30 35 N 11.6229 -0.0817 0.0 0
M  V30 36 C 12.0296 -0.9952 0.0 0
M  V30 37 C 12.2107 0.7273 0.0 0
M  V30 38 C 13.0242 -1.0997 0.0 0
M  V30 39 C 13.2052 0.6227 0.0 0
M  V30 40 N 13.6119 -0.2907 0.0 0
M  V30 41 C 14.6065 -0.3952 0.0 0
M  V30 42 O 15.0132 -1.3088 0.0 0
M  V30 43 C 15.1942 0.4137 0.0 0
M  V30 END ATOM
M  V30 BEGIN BOND
M  V30 1 2 1 2
M  V30 2 1 2 3
M  V30 3 1 2 4
M  V30 4 1 3 5
M  V30 5 2 4 6
M  V30 6 2 5 7
M  V30 7 1 5 8
M  V30 8 1 7 9
M  V30 9 1 7 10
M  V30 10 2 8 11
M  V30 11 1 9 12
M  V30 12 2 10 13
M  V30 13 1 11 14
M  V30 14 2 12 15
M  V30 15 1 12 16
M  V30 16 2 14 17
M  V30 17 1 14 18
M  V30 18 1 15 19
M  V30 19 2 16 20
M  V30 20 1 17 21
M  V30 21 2 18 22
M  V30 22 1 18 23
M  V30 23 2 19 24
M  V30 24 1 21 25
M  V30 25 1 22 26
M  V30 26 1 22 27
M  V30 27 2 23 28
M  V30 28 1 25 29
M  V30 29 1 25 30
M  V30 30 2 26 31
M  V30 31 1 29 32
M  V30 32 1 30 33
M  V30 33 1 32 34
M  V30 34 1 34 35
M  V30 35 1 35 36
M  V30 36 1 35 37
M  V30 37 1 36 38
M  V30 38 1 37 39
M  V30 39 1 38 40
M  V30 40 1 40 41
M  V30 41 2 41 42
M  V30 42 1 41 43
M  V30 43 1 11 13
M  V30 44 1 20 24
M  V30 45 1 21 23
M  V30 46 1 28 31
M  V30 47 1 33 34
M  V30 48 1 39 40
M  V30 END BOND
M  V30 END CTAB
M  END
>  <Molecule Name>
Compound 916

>  <Molecule Name 2>
Compound 916

>  <Compound ID>
248

>  <Name>
TX1-85-1

>  <Uniprot>
Q13163

>  <Target>
MAP2K5

>  <Smiles>
C=CC(=O)NC1=CC(C2=NN(C3CCC(N4CCN(C(C)=O)CC4)CC3)C3=NC=NC(N)=C23)=CC=C1OC1=CC=CC=C1

>  <Kd (nM)>


>  <Assay (Kd)>


>  <Ki (nM)>


>  <Assay (Ki)>


>  <IC50 (nM)>


>  <Assay (IC50)>


>  <EC50 (nM)>


>  <Assay (EC50)>


>  <Article DOI>
10.1016/j.cell.2020.10.038

>  <Molecular Weight>
580.693

>  <Exact Mass>
580.291037

>  <XLogP3>
3.34

>  <Heavy Atom Count>
43

>  <Ring Count>
6

>  <Hydrogen Bond Acceptor Count>
9

>  <Hydrogen Bond Donor Count>
2

>  <Rotatable Bond Count>
7

>  <Topological Polar Surface Area>
131.5

>  <Molecular Formula>
C32H36N8O3

>  <InChI>
InChI=1S/C32H36N8O3/c1-3-28(42)36-26-19-22(9-14-27(26)43-25-7-5-4-6-8-25)30-29-31(33)34-20-35-32(29)40(37-30)24-12-10-23(11-13-24)39-17-15-38(16-18-39)21(2)41/h3-9,14,19-20,23-24H,1,10-13,15-18H2,2H3,(H,36,42)(H2,33,34,35)

>  <InChI Key>
FYICDSWKKFSYOM-UHFFFAOYSA-N

>  <BindingDB>


>  <PubChem>
78243752

>  <ChEMBL>


$$$$
248
Actelion Java MolfileCreator 2.0

  0  0  0  0  0  0              0 V3000
M  V30 BEGIN CTAB
M  V30 COUNTS 43 48 0 0 0
M  V30 BEGIN ATOM
M  V30 1 O 1.732 -1.5 0.0 0
M  V30 2 C 1.732 -0.5 0.0 0
M  V30 3 N 2.598 0.0 0.0 0
M  V30 4 C 0.866 0.0 0.0 0
M  V30 5 C 3.4641 -0.5 0.0 0
M  V30 6 C 0.0 -0.5 0.0 0
M  V30 7 C 3.4641 -1.5 0.0 0
M  V30 8 C 4.3301 0.0 0.0 0
M  V30 9 O 2.598 -1.9999 0.0 0
M  V30 10 C 4.3301 -2.0 0.0 0
M  V30 11 C 5.1961 -0.5 0.0 0
M  V30 12 C 2.598 -2.9999 0.0 0
M  V30 13 C 5.1961 -1.5 0.0 0
M  V30 14 C 6.0621 0.0 0.0 0
M  V30 15 C 1.732 -3.4999 0.0 0
M  V30 16 C 3.4641 -3.5 0.0 0
M  V30 17 N 6.9757 -0.4067 0.0 0
M  V30 18 C 6.1667 0.9945 0.0 0
M  V30 19 C 1.732 -4.4999 0.0 0
M  V30 20 C 3.4641 -4.5 0.0 0
M  V30 21 N 7.6448 0.3364 0.0 0
M  V30 22 C 5.4975 1.7376 0.0 0
M  V30 23 C 7.1448 1.2024 0.0 0
M  V30 24 C 2.598 -5.0 0.0 0
M  V30 25 C 8.6393 0.2318 0.0 0
M  V30 26 N 5.8065 2.6887 0.0 0
M  V30 27 N 4.5194 1.5297 0.0 0
M  V30 28 N 7.4538 2.1534 0.0 0
M  V30 29 C 9.0461 -0.6816 0.0 0
M  V30 30 C 9.2271 1.0408 0.0 0
M  V30 31 C 6.7847 2.8966 0.0 0
M  V30 32 C 10.0406 -0.7861 0.0 0
M  V30 33 C 10.2216 0.9363 0.0 0
M  V30 34 C 10.6284 0.0228 0.0 0
M  V30 35 N 11.6229 -0.0817 0.0 0
M  V30 36 C 12.0296 -0.9952 0.0 0
M  V30 37 C 12.2107 0.7273 0.0 0
M  V30 38 C 13.0242 -1.0997 0.0 0
M  V30 39 C 13.2052 0.6227 0.0 0
M  V30 40 N 13.6119 -0.2907 0.0 0
M  V30 41 C 14.6065 -0.3952 0.0 0
M  V30 42 O 15.0132 -1.3088 0.0 0
M  V30 43 C 15.1942 0.4137 0.0 0
M  V30 END ATOM
M  V30 BEGIN BOND
M  V30 1 2 1 2
M  V30 2 1 2 3
M  V30 3 1 2 4
M  V30 4 1 3 5
M  V30 5 2 4 6
M  V30 6 2 5 7
M  V30 7 1 5 8
M  V30 8 1 7 9
M  V30 9 1 7 10
M  V30 10 2 8 11
M  V30 11 1 9 12
M  V30 12 2 10 13
M  V30 13 1 11 14
M  V30 14 2 12 15
M  V30 15 1 12 16
M  V30 16 2 14 17
M  V30 17 1 14 18
M  V30 18 1 15 19
M  V30 19 2 16 20
M  V30 20 1 17 21
M  V30 21 2 18 22
M  V30 22 1 18 23
M  V30 23 2 19 24
M  V30 24 1 21 25
M  V30 25 1 22 26
M  V30 26 1 22 27
M  V30 27 2 23 28
M  V30 28 1 25 29
M  V30 29 1 25 30
M  V30 30 2 26 31
M  V30 31 1 29 32
M  V30 32 1 30 33
M  V30 33 1 32 34
M  V30 34 1 34 35
M  V30 35 1 35 36
M  V30 36 1 35 37
M  V30 37 1 36 38
M  V30 38 1 37 39
M  V30 39 1 38 40
M  V30 40 1 40 41
M  V30 41 2 41 42
M  V30 42 1 41 43
M  V30 43 1 11 13
M  V30 44 1 20 24
M  V30 45 1 21 23
M  V30 46 1 28 31
M  V30 47 1 33 34
M  V30 48 1 39 40
M  V30 END BOND
M  V30 END CTAB
M  END
>  <Molecule Name>
Compound 917

>  <Molecule Name 2>
Compound 917

>  <Compound ID>
248

>  <Name>
TX1-85-1

>  <Uniprot>
P12931

>  <Target>
Src

>  <Smiles>
C=CC(=O)NC1=CC(C2=NN(C3CCC(N4CCN(C(C)=O)CC4)CC3)C3=NC=NC(N)=C23)=CC=C1OC1=CC=CC=C1

>  <Kd (nM)>


>  <Assay (Kd)>


>  <Ki (nM)>


>  <Assay (Ki)>


>  <IC50 (nM)>


>  <Assay (IC50)>


>  <EC50 (nM)>


>  <Assay (EC50)>


>  <Article DOI>
10.1016/j.cell.2020.10.038

>  <Molecular Weight>
580.693

>  <Exact Mass>
580.291037

>  <XLogP3>
3.34

>  <Heavy Atom Count>
43

>  <Ring Count>
6

>  <Hydrogen Bond Acceptor Count>
9

>  <Hydrogen Bond Donor Count>
2

>  <Rotatable Bond Count>
7

>  <Topological Polar Surface Area>
131.5

>  <Molecular Formula>
C32H36N8O3

>  <InChI>
InChI=1S/C32H36N8O3/c1-3-28(42)36-26-19-22(9-14-27(26)43-25-7-5-4-6-8-25)30-29-31(33)34-20-35-32(29)40(37-30)24-12-10-23(11-13-24)39-17-15-38(16-18-39)21(2)41/h3-9,14,19-20,23-24H,1,10-13,15-18H2,2H3,(H,36,42)(H2,33,34,35)

>  <InChI Key>
FYICDSWKKFSYOM-UHFFFAOYSA-N

>  <BindingDB>


>  <PubChem>
78243752

>  <ChEMBL>


$$$$
249
Actelion Java MolfileCreator 2.0

  0  0  0  0  0  0              0 V3000
M  V30 BEGIN CTAB
M  V30 COUNTS 33 38 0 0 0
M  V30 BEGIN ATOM
M  V30 1 N 0.3014 1.7376 0.0 0
M  V30 2 C 0.6104 2.6887 0.0 0
M  V30 3 C 0.9705 0.9945 0.0 0
M  V30 4 C -0.0586 3.4318 0.0 0
M  V30 5 C 1.5885 2.8966 0.0 0
M  V30 6 N 0.866 0.0 0.0 0
M  V30 7 C 1.9487 1.2024 0.0 0
M  V30 8 C 0.2503 4.3829 0.0 0
M  V30 9 C -1.0368 3.2239 0.0 0
M  V30 10 C 2.2577 2.1534 0.0 0
M  V30 11 C 0.0 -0.5 0.0 0
M  V30 12 C 1.7795 -0.4067 0.0 0
M  V30 13 N 2.4487 0.3364 0.0 0
M  V30 14 C -0.4188 5.126 0.0 0
M  V30 15 C -1.7059 3.9671 0.0 0
M  V30 16 C -0.866 0.0 0.0 0
M  V30 17 C 0.0 -1.4999 0.0 0
M  V30 18 C 1.9874 -1.3848 0.0 0
M  V30 19 C -1.3969 4.9181 0.0 0
M  V30 20 C -1.732 -0.4999 0.0 0
M  V30 21 C -0.866 -1.9999 0.0 0
M  V30 22 C 2.9385 -1.6939 0.0 0
M  V30 23 C 1.2443 -2.054 0.0 0
M  V30 24 C -1.732 -1.4999 0.0 0
M  V30 25 N 3.1464 -2.672 0.0 0
M  V30 26 N 3.6816 -1.0247 0.0 0
M  V30 27 C 1.4522 -3.0321 0.0 0
M  V30 28 C -2.598 -1.9999 0.0 0
M  V30 29 C 2.4033 -3.3411 0.0 0
M  V30 30 N -1.8047 -2.6087 0.0 0
M  V30 31 C -3.564 -1.7411 0.0 0
M  V30 32 C -2.8568 -2.9659 0.0 0
M  V30 33 C -3.8228 -2.7071 0.0 0
M  V30 END ATOM
M  V30 BEGIN BOND
M  V30 1 2 1 2
M  V30 2 1 1 3
M  V30 3 1 2 4
M  V30 4 1 2 5
M  V30 5 1 3 6
M  V30 6 2 3 7
M  V30 7 2 4 8
M  V30 8 1 4 9
M  V30 9 2 5 10
M  V30 10 1 6 11
M  V30 11 1 6 12
M  V30 12 1 7 13
M  V30 13 1 8 14
M  V30 14 2 9 15
M  V30 15 2 11 16
M  V30 16 1 11 17
M  V30 17 1 12 18
M  V30 18 2 14 19
M  V30 19 1 16 20
M  V30 20 2 17 21
M  V30 21 2 18 22
M  V30 22 1 18 23
M  V30 23 2 20 24
M  V30 24 1 22 25
M  V30 25 1 22 26
M  V30 26 2 23 27
M  V30 27 1 24 28
M  V30 28 2 25 29
M  V30 29 1 28 30
M  V30 30 1 28 31
M  V30 31 1 28 32
M  V30 32 1 31 33
M  V30 33 1 7 10
M  V30 34 2 12 13
M  V30 35 1 15 19
M  V30 36 1 21 24
M  V30 37 1 27 29
M  V30 38 1 32 33
M  V30 END BOND
M  V30 END CTAB
M  END
>  <Molecule Name>
Compound 918

>  <Molecule Name 2>
Compound 918

>  <Compound ID>
249

>  <Name>
Miransertib

>  <Uniprot>
O95835

>  <Target>
LATS1

>  <Smiles>
NC1=NC=CC=C1C1=NC2=CC=C(C3=CC=CC=C3)N=C2N1C1=CC=C(C2(N)CCC2)C=C1

>  <Kd (nM)>


>  <Assay (Kd)>


>  <Ki (nM)>


>  <Assay (Ki)>


>  <IC50 (nM)>


>  <Assay (IC50)>


>  <EC50 (nM)>


>  <Assay (EC50)>


>  <Article DOI>
10.1016/j.cell.2020.10.038

>  <Molecular Weight>
432.531

>  <Exact Mass>
432.2062448

>  <XLogP3>
3.83

>  <Heavy Atom Count>
33

>  <Ring Count>
6

>  <Hydrogen Bond Acceptor Count>
6

>  <Hydrogen Bond Donor Count>
2

>  <Rotatable Bond Count>
4

>  <Topological Polar Surface Area>
95.64

>  <Molecular Formula>
C27H24N6

>  <InChI>
InChI=1S/C27H24N6/c28-24-21(8-4-17-30-24)25-32-23-14-13-22(18-6-2-1-3-7-18)31-26(23)33(25)20-11-9-19(10-12-20)27(29)15-5-16-27/h1-4,6-14,17H,5,15-16,29H2,(H2,28,30)

>  <InChI Key>
HNFMVVHMKGFCMB-UHFFFAOYSA-N

>  <BindingDB>


>  <PubChem>
53262401

>  <ChEMBL>
CHEMBL4297188

$$$$
249
Actelion Java MolfileCreator 2.0

  0  0  0  0  0  0              0 V3000
M  V30 BEGIN CTAB
M  V30 COUNTS 33 38 0 0 0
M  V30 BEGIN ATOM
M  V30 1 N 0.3014 1.7376 0.0 0
M  V30 2 C 0.6104 2.6887 0.0 0
M  V30 3 C 0.9705 0.9945 0.0 0
M  V30 4 C -0.0586 3.4318 0.0 0
M  V30 5 C 1.5885 2.8966 0.0 0
M  V30 6 N 0.866 0.0 0.0 0
M  V30 7 C 1.9487 1.2024 0.0 0
M  V30 8 C 0.2503 4.3829 0.0 0
M  V30 9 C -1.0368 3.2239 0.0 0
M  V30 10 C 2.2577 2.1534 0.0 0
M  V30 11 C 0.0 -0.5 0.0 0
M  V30 12 C 1.7795 -0.4067 0.0 0
M  V30 13 N 2.4487 0.3364 0.0 0
M  V30 14 C -0.4188 5.126 0.0 0
M  V30 15 C -1.7059 3.9671 0.0 0
M  V30 16 C -0.866 0.0 0.0 0
M  V30 17 C 0.0 -1.4999 0.0 0
M  V30 18 C 1.9874 -1.3848 0.0 0
M  V30 19 C -1.3969 4.9181 0.0 0
M  V30 20 C -1.732 -0.4999 0.0 0
M  V30 21 C -0.866 -1.9999 0.0 0
M  V30 22 C 2.9385 -1.6939 0.0 0
M  V30 23 C 1.2443 -2.054 0.0 0
M  V30 24 C -1.732 -1.4999 0.0 0
M  V30 25 N 3.1464 -2.672 0.0 0
M  V30 26 N 3.6816 -1.0247 0.0 0
M  V30 27 C 1.4522 -3.0321 0.0 0
M  V30 28 C -2.598 -1.9999 0.0 0
M  V30 29 C 2.4033 -3.3411 0.0 0
M  V30 30 N -1.8047 -2.6087 0.0 0
M  V30 31 C -3.564 -1.7411 0.0 0
M  V30 32 C -2.8568 -2.9659 0.0 0
M  V30 33 C -3.8228 -2.7071 0.0 0
M  V30 END ATOM
M  V30 BEGIN BOND
M  V30 1 2 1 2
M  V30 2 1 1 3
M  V30 3 1 2 4
M  V30 4 1 2 5
M  V30 5 1 3 6
M  V30 6 2 3 7
M  V30 7 2 4 8
M  V30 8 1 4 9
M  V30 9 2 5 10
M  V30 10 1 6 11
M  V30 11 1 6 12
M  V30 12 1 7 13
M  V30 13 1 8 14
M  V30 14 2 9 15
M  V30 15 2 11 16
M  V30 16 1 11 17
M  V30 17 1 12 18
M  V30 18 2 14 19
M  V30 19 1 16 20
M  V30 20 2 17 21
M  V30 21 2 18 22
M  V30 22 1 18 23
M  V30 23 2 20 24
M  V30 24 1 22 25
M  V30 25 1 22 26
M  V30 26 2 23 27
M  V30 27 1 24 28
M  V30 28 2 25 29
M  V30 29 1 28 30
M  V30 30 1 28 31
M  V30 31 1 28 32
M  V30 32 1 31 33
M  V30 33 1 7 10
M  V30 34 2 12 13
M  V30 35 1 15 19
M  V30 36 1 21 24
M  V30 37 1 27 29
M  V30 38 1 32 33
M  V30 END BOND
M  V30 END CTAB
M  END
>  <Molecule Name>
Compound 919

>  <Molecule Name 2>
Compound 919

>  <Compound ID>
249

>  <Name>
Miransertib

>  <Uniprot>
Q9UEE5

>  <Target>
STK17A

>  <Smiles>
NC1=NC=CC=C1C1=NC2=CC=C(C3=CC=CC=C3)N=C2N1C1=CC=C(C2(N)CCC2)C=C1

>  <Kd (nM)>


>  <Assay (Kd)>


>  <Ki (nM)>


>  <Assay (Ki)>


>  <IC50 (nM)>


>  <Assay (IC50)>


>  <EC50 (nM)>


>  <Assay (EC50)>


>  <Article DOI>
10.1016/j.cell.2020.10.038

>  <Molecular Weight>
432.531

>  <Exact Mass>
432.2062448

>  <XLogP3>
3.83

>  <Heavy Atom Count>
33

>  <Ring Count>
6

>  <Hydrogen Bond Acceptor Count>
6

>  <Hydrogen Bond Donor Count>
2

>  <Rotatable Bond Count>
4

>  <Topological Polar Surface Area>
95.64

>  <Molecular Formula>
C27H24N6

>  <InChI>
InChI=1S/C27H24N6/c28-24-21(8-4-17-30-24)25-32-23-14-13-22(18-6-2-1-3-7-18)31-26(23)33(25)20-11-9-19(10-12-20)27(29)15-5-16-27/h1-4,6-14,17H,5,15-16,29H2,(H2,28,30)

>  <InChI Key>
HNFMVVHMKGFCMB-UHFFFAOYSA-N

>  <BindingDB>


>  <PubChem>
53262401

>  <ChEMBL>
CHEMBL4297188

$$$$
250
Actelion Java MolfileCreator 2.0

  0  0  0  0  0  0              0 V3000
M  V30 BEGIN CTAB
M  V30 COUNTS 30 34 0 0 0
M  V30 BEGIN ATOM
M  V30 1 N 5.5526 -0.6422 0.0 0
M  V30 2 C 6.5308 -0.4342 0.0 0
M  V30 3 C 5.2436 -1.5932 0.0 0
M  V30 4 C 6.8398 0.5167 0.0 0
M  V30 5 C 7.1999 -1.1774 0.0 0
M  V30 6 N 4.3301 -1.9999 0.0 0
M  V30 7 C 5.9128 -2.3364 0.0 0
M  V30 8 C 7.818 0.7246 0.0 0
M  V30 9 C 6.1707 1.2599 0.0 0
M  V30 10 C 6.8909 -2.1284 0.0 0
M  V30 11 C 3.4641 -1.4999 0.0 0
M  V30 12 C 4.4346 -2.9945 0.0 0
M  V30 13 N 5.4128 -3.2024 0.0 0
M  V30 14 C 8.127 1.6757 0.0 0
M  V30 15 C 6.4797 2.2109 0.0 0
M  V30 16 C 3.4641 -0.5 0.0 0
M  V30 17 C 2.598 -1.9999 0.0 0
M  V30 18 C 3.6915 -3.6636 0.0 0
M  V30 19 C 7.4578 2.4188 0.0 0
M  V30 20 C 2.598 0.0 0.0 0
M  V30 21 C 1.732 -1.5 0.0 0
M  V30 22 C 3.8994 -4.6418 0.0 0
M  V30 23 C 2.7404 -3.3546 0.0 0
M  V30 24 C 1.732 -0.5 0.0 0
M  V30 25 N 3.1562 -5.3109 0.0 0
M  V30 26 N 4.8504 -4.9508 0.0 0
M  V30 27 C 1.9973 -4.0237 0.0 0
M  V30 28 C 0.866 0.0 0.0 0
M  V30 29 C 2.2052 -5.0019 0.0 0
M  V30 30 N 0.0 -0.5 0.0 0
M  V30 END ATOM
M  V30 BEGIN BOND
M  V30 1 2 1 2
M  V30 2 1 1 3
M  V30 3 1 2 4
M  V30 4 1 2 5
M  V30 5 1 3 6
M  V30 6 2 3 7
M  V30 7 2 4 8
M  V30 8 1 4 9
M  V30 9 2 5 10
M  V30 10 1 6 11
M  V30 11 1 6 12
M  V30 12 1 7 13
M  V30 13 1 8 14
M  V30 14 2 9 15
M  V30 15 2 11 16
M  V30 16 1 11 17
M  V30 17 1 12 18
M  V30 18 2 14 19
M  V30 19 1 16 20
M  V30 20 2 17 21
M  V30 21 2 18 22
M  V30 22 1 18 23
M  V30 23 2 20 24
M  V30 24 1 22 25
M  V30 25 1 22 26
M  V30 26 2 23 27
M  V30 27 1 24 28
M  V30 28 2 25 29
M  V30 29 1 28 30
M  V30 30 1 7 10
M  V30 31 2 12 13
M  V30 32 1 15 19
M  V30 33 1 21 24
M  V30 34 1 27 29
M  V30 END BOND
M  V30 END CTAB
M  END
>  <Molecule Name>
Compound 920

>  <Molecule Name 2>
Compound 920

>  <Compound ID>
250

>  <Name>


>  <Uniprot>
P31749

>  <Target>
AKT1

>  <Smiles>
NCC1=CC=C(N2C(C3=CC=CN=C3N)=NC3=CC=C(C4=CC=CC=C4)N=C32)C=C1

>  <Kd (nM)>


>  <Assay (Kd)>


>  <Ki (nM)>


>  <Assay (Ki)>


>  <IC50 (nM)>
3.7

>  <Assay (IC50)>
Inhibition of unphosphorylated AKT1 expressed in baculovirus infected Sf9 insect cells

>  <EC50 (nM)>


>  <Assay (EC50)>


>  <Article DOI>
10.1021/acs.jmedchem.6b00619

>  <Molecular Weight>
392.466

>  <Exact Mass>
392.1749446

>  <XLogP3>
3.13

>  <Heavy Atom Count>
30

>  <Ring Count>
5

>  <Hydrogen Bond Acceptor Count>
6

>  <Hydrogen Bond Donor Count>
2

>  <Rotatable Bond Count>
4

>  <Topological Polar Surface Area>
95.64

>  <Molecular Formula>
C24H20N6

>  <InChI>
InChI=1S/C24H20N6/c25-15-16-8-10-18(11-9-16)30-23(19-7-4-14-27-22(19)26)29-21-13-12-20(28-24(21)30)17-5-2-1-3-6-17/h1-14H,15,25H2,(H2,26,27)

>  <InChI Key>
JAARXSVCUDUSTR-UHFFFAOYSA-N

>  <BindingDB>


>  <PubChem>
53262403

>  <ChEMBL>
CHEMBL4597416

$$$$
250
Actelion Java MolfileCreator 2.0

  0  0  0  0  0  0              0 V3000
M  V30 BEGIN CTAB
M  V30 COUNTS 30 34 0 0 0
M  V30 BEGIN ATOM
M  V30 1 N 5.5526 -0.6422 0.0 0
M  V30 2 C 6.5308 -0.4342 0.0 0
M  V30 3 C 5.2436 -1.5932 0.0 0
M  V30 4 C 6.8398 0.5167 0.0 0
M  V30 5 C 7.1999 -1.1774 0.0 0
M  V30 6 N 4.3301 -1.9999 0.0 0
M  V30 7 C 5.9128 -2.3364 0.0 0
M  V30 8 C 7.818 0.7246 0.0 0
M  V30 9 C 6.1707 1.2599 0.0 0
M  V30 10 C 6.8909 -2.1284 0.0 0
M  V30 11 C 3.4641 -1.4999 0.0 0
M  V30 12 C 4.4346 -2.9945 0.0 0
M  V30 13 N 5.4128 -3.2024 0.0 0
M  V30 14 C 8.127 1.6757 0.0 0
M  V30 15 C 6.4797 2.2109 0.0 0
M  V30 16 C 3.4641 -0.5 0.0 0
M  V30 17 C 2.598 -1.9999 0.0 0
M  V30 18 C 3.6915 -3.6636 0.0 0
M  V30 19 C 7.4578 2.4188 0.0 0
M  V30 20 C 2.598 0.0 0.0 0
M  V30 21 C 1.732 -1.5 0.0 0
M  V30 22 C 3.8994 -4.6418 0.0 0
M  V30 23 C 2.7404 -3.3546 0.0 0
M  V30 24 C 1.732 -0.5 0.0 0
M  V30 25 N 3.1562 -5.3109 0.0 0
M  V30 26 N 4.8504 -4.9508 0.0 0
M  V30 27 C 1.9973 -4.0237 0.0 0
M  V30 28 C 0.866 0.0 0.0 0
M  V30 29 C 2.2052 -5.0019 0.0 0
M  V30 30 N 0.0 -0.5 0.0 0
M  V30 END ATOM
M  V30 BEGIN BOND
M  V30 1 2 1 2
M  V30 2 1 1 3
M  V30 3 1 2 4
M  V30 4 1 2 5
M  V30 5 1 3 6
M  V30 6 2 3 7
M  V30 7 2 4 8
M  V30 8 1 4 9
M  V30 9 2 5 10
M  V30 10 1 6 11
M  V30 11 1 6 12
M  V30 12 1 7 13
M  V30 13 1 8 14
M  V30 14 2 9 15
M  V30 15 2 11 16
M  V30 16 1 11 17
M  V30 17 1 12 18
M  V30 18 2 14 19
M  V30 19 1 16 20
M  V30 20 2 17 21
M  V30 21 2 18 22
M  V30 22 1 18 23
M  V30 23 2 20 24
M  V30 24 1 22 25
M  V30 25 1 22 26
M  V30 26 2 23 27
M  V30 27 1 24 28
M  V30 28 2 25 29
M  V30 29 1 28 30
M  V30 30 1 7 10
M  V30 31 2 12 13
M  V30 32 1 15 19
M  V30 33 1 21 24
M  V30 34 1 27 29
M  V30 END BOND
M  V30 END CTAB
M  END
>  <Molecule Name>
Compound 921

>  <Molecule Name 2>
Compound 921

>  <Compound ID>
250

>  <Name>


>  <Uniprot>
P31751

>  <Target>
AKT2

>  <Smiles>
NCC1=CC=C(N2C(C3=CC=CN=C3N)=NC3=CC=C(C4=CC=CC=C4)N=C32)C=C1

>  <Kd (nM)>


>  <Assay (Kd)>


>  <Ki (nM)>


>  <Assay (Ki)>


>  <IC50 (nM)>
33

>  <Assay (IC50)>
Inhibition of unphosphorylated AKT2 expressed in baculovirus infected Sf9 insect cells

>  <EC50 (nM)>


>  <Assay (EC50)>


>  <Article DOI>
10.1021/acs.jmedchem.6b00619

>  <Molecular Weight>
392.466

>  <Exact Mass>
392.1749446

>  <XLogP3>
3.13

>  <Heavy Atom Count>
30

>  <Ring Count>
5

>  <Hydrogen Bond Acceptor Count>
6

>  <Hydrogen Bond Donor Count>
2

>  <Rotatable Bond Count>
4

>  <Topological Polar Surface Area>
95.64

>  <Molecular Formula>
C24H20N6

>  <InChI>
InChI=1S/C24H20N6/c25-15-16-8-10-18(11-9-16)30-23(19-7-4-14-27-22(19)26)29-21-13-12-20(28-24(21)30)17-5-2-1-3-6-17/h1-14H,15,25H2,(H2,26,27)

>  <InChI Key>
JAARXSVCUDUSTR-UHFFFAOYSA-N

>  <BindingDB>


>  <PubChem>
53262403

>  <ChEMBL>
CHEMBL4597416

$$$$
250
Actelion Java MolfileCreator 2.0

  0  0  0  0  0  0              0 V3000
M  V30 BEGIN CTAB
M  V30 COUNTS 30 34 0 0 0
M  V30 BEGIN ATOM
M  V30 1 N 5.5526 -0.6422 0.0 0
M  V30 2 C 6.5308 -0.4342 0.0 0
M  V30 3 C 5.2436 -1.5932 0.0 0
M  V30 4 C 6.8398 0.5167 0.0 0
M  V30 5 C 7.1999 -1.1774 0.0 0
M  V30 6 N 4.3301 -1.9999 0.0 0
M  V30 7 C 5.9128 -2.3364 0.0 0
M  V30 8 C 7.818 0.7246 0.0 0
M  V30 9 C 6.1707 1.2599 0.0 0
M  V30 10 C 6.8909 -2.1284 0.0 0
M  V30 11 C 3.4641 -1.4999 0.0 0
M  V30 12 C 4.4346 -2.9945 0.0 0
M  V30 13 N 5.4128 -3.2024 0.0 0
M  V30 14 C 8.127 1.6757 0.0 0
M  V30 15 C 6.4797 2.2109 0.0 0
M  V30 16 C 3.4641 -0.5 0.0 0
M  V30 17 C 2.598 -1.9999 0.0 0
M  V30 18 C 3.6915 -3.6636 0.0 0
M  V30 19 C 7.4578 2.4188 0.0 0
M  V30 20 C 2.598 0.0 0.0 0
M  V30 21 C 1.732 -1.5 0.0 0
M  V30 22 C 3.8994 -4.6418 0.0 0
M  V30 23 C 2.7404 -3.3546 0.0 0
M  V30 24 C 1.732 -0.5 0.0 0
M  V30 25 N 3.1562 -5.3109 0.0 0
M  V30 26 N 4.8504 -4.9508 0.0 0
M  V30 27 C 1.9973 -4.0237 0.0 0
M  V30 28 C 0.866 0.0 0.0 0
M  V30 29 C 2.2052 -5.0019 0.0 0
M  V30 30 N 0.0 -0.5 0.0 0
M  V30 END ATOM
M  V30 BEGIN BOND
M  V30 1 2 1 2
M  V30 2 1 1 3
M  V30 3 1 2 4
M  V30 4 1 2 5
M  V30 5 1 3 6
M  V30 6 2 3 7
M  V30 7 2 4 8
M  V30 8 1 4 9
M  V30 9 2 5 10
M  V30 10 1 6 11
M  V30 11 1 6 12
M  V30 12 1 7 13
M  V30 13 1 8 14
M  V30 14 2 9 15
M  V30 15 2 11 16
M  V30 16 1 11 17
M  V30 17 1 12 18
M  V30 18 2 14 19
M  V30 19 1 16 20
M  V30 20 2 17 21
M  V30 21 2 18 22
M  V30 22 1 18 23
M  V30 23 2 20 24
M  V30 24 1 22 25
M  V30 25 1 22 26
M  V30 26 2 23 27
M  V30 27 1 24 28
M  V30 28 2 25 29
M  V30 29 1 28 30
M  V30 30 1 7 10
M  V30 31 2 12 13
M  V30 32 1 15 19
M  V30 33 1 21 24
M  V30 34 1 27 29
M  V30 END BOND
M  V30 END CTAB
M  END
>  <Molecule Name>
Compound 922

>  <Molecule Name 2>
Compound 922

>  <Compound ID>
250

>  <Name>


>  <Uniprot>
Q9Y243

>  <Target>
AKT3

>  <Smiles>
NCC1=CC=C(N2C(C3=CC=CN=C3N)=NC3=CC=C(C4=CC=CC=C4)N=C32)C=C1

>  <Kd (nM)>


>  <Assay (Kd)>


>  <Ki (nM)>


>  <Assay (Ki)>


>  <IC50 (nM)>
430

>  <Assay (IC50)>
Inhibition of unphosphorylated AKT3 expressed in baculovirus infected Sf9 insect cells

>  <EC50 (nM)>


>  <Assay (EC50)>


>  <Article DOI>
10.1021/acs.jmedchem.6b00619

>  <Molecular Weight>
392.466

>  <Exact Mass>
392.1749446

>  <XLogP3>
3.13

>  <Heavy Atom Count>
30

>  <Ring Count>
5

>  <Hydrogen Bond Acceptor Count>
6

>  <Hydrogen Bond Donor Count>
2

>  <Rotatable Bond Count>
4

>  <Topological Polar Surface Area>
95.64

>  <Molecular Formula>
C24H20N6

>  <InChI>
InChI=1S/C24H20N6/c25-15-16-8-10-18(11-9-16)30-23(19-7-4-14-27-22(19)26)29-21-13-12-20(28-24(21)30)17-5-2-1-3-6-17/h1-14H,15,25H2,(H2,26,27)

>  <InChI Key>
JAARXSVCUDUSTR-UHFFFAOYSA-N

>  <BindingDB>


>  <PubChem>
53262403

>  <ChEMBL>
CHEMBL4597416

$$$$
251
Actelion Java MolfileCreator 2.0

  0  0  0  0  0  0              0 V3000
M  V30 BEGIN CTAB
M  V30 COUNTS 35 37 0 0 0
M  V30 BEGIN ATOM
M  V30 1 F 16.1682 -7.5488 0.0 0
M  V30 2 C 16.1682 -9.0488 0.0 0
M  V30 3 F 17.6682 -9.0488 0.0 0
M  V30 4 F 16.1682 -10.5488 0.0 0
M  V30 5 C 14.6682 -9.0488 0.0 0
M  V30 6 N 13.9182 -7.7498 0.0 0
M  V30 7 C 13.9182 -10.3478 0.0 0
M  V30 8 C 12.4182 -7.7498 0.0 0
M  V30 9 C 12.4182 -10.3478 0.0 0
M  V30 10 C 11.6682 -6.4507 0.0 0
M  V30 11 C 11.6682 -9.0488 0.0 0
M  V30 12 O 10.1682 -6.4507 0.0 0
M  V30 13 N 12.4182 -5.1517 0.0 0
M  V30 14 C 11.6682 -3.8526 0.0 0
M  V30 15 C 12.4182 -2.5536 0.0 0
M  V30 16 C 10.1682 -3.8526 0.0 0
M  V30 17 O 13.9182 -2.5536 0.0 0
M  V30 18 C 11.6682 -1.2546 0.0 0
M  V30 19 C 9.4182 -2.5536 0.0 0
M  V30 20 C 14.6682 -3.8526 0.0 0
M  V30 21 C 10.1682 -1.2546 0.0 0
M  V30 22 N 7.951 -2.2417 0.0 0
M  V30 23 C 16.1682 -3.8526 0.0 0
M  V30 24 N 9.1645 -0.1398 0.0 0
M  V30 25 C 7.7942 -0.75 0.0 0
M  V30 26 C 6.8363 -3.2454 0.0 0
M  V30 27 C 6.4951 0.0 0.0 0
M  V30 28 C 5.1961 -0.75 0.0 0
M  V30 29 C 3.8971 0.0 0.0 0
M  V30 30 C 2.598 -0.75 0.0 0
M  V30 31 C 4.6471 1.299 0.0 0
M  V30 32 C 3.1471 1.299 0.0 0
M  V30 33 O 2.598 -2.25 0.0 0
M  V30 34 O 1.299 0.0 0.0 0
M  V30 35 C 0.0 -0.75 0.0 0
M  V30 END ATOM
M  V30 BEGIN BOND
M  V30 1 1 1 2
M  V30 2 1 2 3
M  V30 3 1 2 4
M  V30 4 1 2 5
M  V30 5 2 5 6
M  V30 6 1 5 7
M  V30 7 1 6 8
M  V30 8 2 7 9
M  V30 9 1 8 10
M  V30 10 2 8 11
M  V30 11 2 10 12
M  V30 12 1 10 13
M  V30 13 1 13 14
M  V30 14 2 14 15
M  V30 15 1 14 16
M  V30 16 1 15 17
M  V30 17 1 15 18
M  V30 18 2 16 19
M  V30 19 1 17 20
M  V30 20 2 18 21
M  V30 21 1 19 22
M  V30 22 1 20 23
M  V30 23 1 21 24
M  V30 24 1 22 25
M  V30 25 1 22 26
M  V30 26 1 25 27
M  V30 27 1 27 28
M  V30 28 1 28 29
M  V30 29 1 29 30
M  V30 30 1 29 31
M  V30 31 1 29 32
M  V30 32 2 30 33
M  V30 33 1 30 34
M  V30 34 1 34 35
M  V30 35 1 9 11
M  V30 36 1 19 21
M  V30 37 2 24 25
M  V30 END BOND
M  V30 END CTAB
M  END
>  <Molecule Name>
Compound 923

>  <Molecule Name 2>
Compound 923

>  <Compound ID>
251

>  <Name>


>  <Uniprot>
Q9NWZ3

>  <Target>
IRAK4

>  <Smiles>
CCOC1=CC2=C(C=C1NC(=O)C1=CC=CC(C(F)(F)F)=N1)N(C)C(CCC(C)(C)C(=O)OC)=N2

>  <Kd (nM)>


>  <Assay (Kd)>


>  <Ki (nM)>


>  <Assay (Ki)>


>  <IC50 (nM)>
70

>  <Assay (IC50)>
IC50 was assessed by Z'-Lyte kinase assay

>  <EC50 (nM)>


>  <Assay (EC50)>


>  <Article DOI>
10.1021/acsmedchemlett.0c00474

>  <Molecular Weight>
492.498

>  <Exact Mass>
492.19844

>  <XLogP3>
4.2

>  <Heavy Atom Count>
35

>  <Ring Count>
3

>  <Hydrogen Bond Acceptor Count>
7

>  <Hydrogen Bond Donor Count>
1

>  <Rotatable Bond Count>
8

>  <Topological Polar Surface Area>
95.34

>  <Molecular Formula>
C24H27F3N4O4

>  <InChI>
InChI=1S/C24H27F3N4O4/c1-6-35-18-13-15-17(31(4)20(29-15)10-11-23(2,3)22(33)34-5)12-16(18)30-21(32)14-8-7-9-19(28-14)24(25,26)27/h7-9,12-13H,6,10-11H2,1-5H3,(H,30,32)

>  <InChI Key>
HZWJTPQMGLFQCE-UHFFFAOYSA-N

>  <BindingDB>


>  <PubChem>


>  <ChEMBL>


$$$$
252
Actelion Java MolfileCreator 2.0

  0  0  0  0  0  0              0 V3000
M  V30 BEGIN CTAB
M  V30 COUNTS 41 42 0 0 0
M  V30 BEGIN ATOM
M  V30 1 S 11.2583 1.0 0.0 0
M  V30 2 C 11.2583 0.0 0.0 0
M  V30 3 N 12.1243 -0.5 0.0 0
M  V30 4 C 10.3923 -0.5 0.0 0
M  V30 5 C 12.9903 0.0 0.0 0
M  V30 6 C 9.5262 0.0 0.0 0
M  V30 7 C 13.8564 -0.5 0.0 0
M  V30 8 C 8.6602 -0.5 0.0 0
M  V30 9 C 14.7224 0.0 0.0 0
M  V30 10 C 7.7942 0.0 0.0 0
M  V30 11 C 15.5884 -0.5 0.0 0
M  V30 12 C 6.9282 -0.5 0.0 0
M  V30 13 C 16.4544 0.0 0.0 0 CFG=2
M  V30 14 C 6.0621 0.0 0.0 0
M  V30 15 N 17.3205 -0.5 0.0 0
M  V30 16 C 16.4544 1.0 0.0 0
M  V30 17 C 5.1961 -0.5 0.0 0
M  V30 18 C 18.1865 0.0 0.0 0
M  V30 19 O 15.5884 1.5 0.0 0
M  V30 20 N 17.3205 1.4999 0.0 0
M  V30 21 C 4.3301 0.0 0.0 0
M  V30 22 O 18.1865 0.9999 0.0 0
M  V30 23 O 19.0525 -0.5 0.0 0
M  V30 24 C 17.3205 2.4999 0.0 0
M  V30 25 C 3.4641 -0.5 0.0 0
M  V30 26 C 19.9185 0.0 0.0 0
M  V30 27 C 18.1865 2.9999 0.0 0
M  V30 28 C 16.4544 3.0 0.0 0
M  V30 29 C 2.598 0.0 0.0 0
M  V30 30 C 20.7846 -0.5 0.0 0
M  V30 31 C 18.1865 3.9999 0.0 0
M  V30 32 C 16.4544 4.0 0.0 0
M  V30 33 C 1.732 -0.5 0.0 0
M  V30 34 C 20.7846 -1.5 0.0 0
M  V30 35 C 21.6506 0.0 0.0 0
M  V30 36 C 17.3205 4.5 0.0 0
M  V30 37 C 0.866 0.0 0.0 0
M  V30 38 C 21.6506 -2.0 0.0 0
M  V30 39 C 22.5166 -0.5 0.0 0
M  V30 40 C 0.0 -0.5 0.0 0
M  V30 41 C 22.5166 -1.5 0.0 0
M  V30 END ATOM
M  V30 BEGIN BOND
M  V30 1 2 1 2
M  V30 2 1 2 3
M  V30 3 1 2 4
M  V30 4 1 3 5
M  V30 5 1 4 6
M  V30 6 1 5 7
M  V30 7 1 6 8
M  V30 8 1 7 9
M  V30 9 1 8 10
M  V30 10 1 9 11
M  V30 11 1 10 12
M  V30 12 1 13 11
M  V30 13 1 12 14
M  V30 14 1 13 15 CFG=1
M  V30 15 1 13 16
M  V30 16 1 14 17
M  V30 17 1 15 18
M  V30 18 2 16 19
M  V30 19 1 16 20
M  V30 20 1 17 21
M  V30 21 2 18 22
M  V30 22 1 18 23
M  V30 23 1 20 24
M  V30 24 1 21 25
M  V30 25 1 23 26
M  V30 26 2 24 27
M  V30 27 1 24 28
M  V30 28 1 25 29
M  V30 29 1 26 30
M  V30 30 1 27 31
M  V30 31 2 28 32
M  V30 32 1 29 33
M  V30 33 2 30 34
M  V30 34 1 30 35
M  V30 35 2 31 36
M  V30 36 1 33 37
M  V30 37 1 34 38
M  V30 38 2 35 39
M  V30 39 1 37 40
M  V30 40 2 38 41
M  V30 41 1 32 36
M  V30 42 1 39 41
M  V30 END BOND
M  V30 BEGIN COLLECTION
M  V30 MDLV30/STEABS ATOMS=(1 13)
M  V30 END COLLECTION
M  V30 END CTAB
M  END
>  <Molecule Name>
Compound 924

>  <Molecule Name 2>
Compound 924

>  <Compound ID>
252

>  <Name>
TM

>  <Uniprot>
Q8IXJ6

>  <Target>
SIRT2

>  <Smiles>
CCCCCCCCCCCCCC(=S)NCCCC[C@H](NC(=O)OCC1=CC=CC=C1)C(=O)NC1=CC=CC=C1

>  <Kd (nM)>


>  <Assay (Kd)>


>  <Ki (nM)>


>  <Assay (Ki)>


>  <IC50 (nM)>
93/370

>  <Assay (IC50)>
Inhibit SIRT2 deacetylase/defatty-acylase

>  <EC50 (nM)>


>  <Assay (EC50)>


>  <Article DOI>
10.1021/acsmedchemlett.0c00423

>  <Molecular Weight>
581.867

>  <Exact Mass>
581.3651135

>  <XLogP3>
9.61

>  <Heavy Atom Count>
41

>  <Ring Count>
2

>  <Hydrogen Bond Acceptor Count>
4

>  <Hydrogen Bond Donor Count>
3

>  <Rotatable Bond Count>
22

>  <Topological Polar Surface Area>
79.46

>  <Molecular Formula>
C34H51N3O3S

>  <InChI>
InChI=1S/C34H51N3O3S/c1-2-3-4-5-6-7-8-9-10-11-18-26-32(41)35-27-20-19-25-31(33(38)36-30-23-16-13-17-24-30)37-34(39)40-28-29-21-14-12-15-22-29/h12-17,21-24,31H,2-11,18-20,25-28H2,1H3,(H,35,41)(H,36,38)(H,37,39)/t31-/m0/s1

>  <InChI Key>
CJQGLLUJIVNREL-HKBQPEDESA-N

>  <BindingDB>
50276140

>  <PubChem>
126843233

>  <ChEMBL>
CHEMBL4129995

$$$$
253
Actelion Java MolfileCreator 2.0

  0  0  0  0  0  0              0 V3000
M  V30 BEGIN CTAB
M  V30 COUNTS 33 36 0 0 0
M  V30 BEGIN ATOM
M  V30 1 Cl 8.9458 0.9231 0.0 0
M  V30 2 C 8.7525 -0.0579 0.0 0
M  V30 3 C 7.8062 -0.3811 0.0 0
M  V30 4 C 9.5056 -0.7159 0.0 0
M  V30 5 C 7.613 -1.3623 0.0 0
M  V30 6 C 9.3124 -1.697 0.0 0
M  V30 7 C 6.629 -1.5408 0.0 0
M  V30 8 C 8.366 -2.0202 0.0 0
M  V30 9 N 6.1552 -2.4214 0.0 0
M  V30 10 N 6.0412 -0.7318 0.0 0
M  V30 11 N 8.3212 -3.0192 0.0 0
M  V30 12 C 6.5482 -3.341 0.0 0
M  V30 13 C 5.0467 -0.8364 0.0 0 CFG=2
M  V30 14 C 7.5122 -3.607 0.0 0
M  V30 15 C 9.2018 -3.4931 0.0 0
M  V30 16 C 5.8358 -4.0428 0.0 0
M  V30 17 C 4.3776 -0.0932 0.0 0
M  V30 18 C 4.5467 -1.7024 0.0 0
M  V30 19 C 7.7637 -4.5748 0.0 0
M  V30 20 C 9.2317 -4.4926 0.0 0
M  V30 21 C 6.0874 -5.0106 0.0 0
M  V30 22 N 3.4641 -0.5 0.0 0
M  V30 23 C 3.5686 -1.4945 0.0 0
M  V30 24 C 7.0514 -5.2766 0.0 0
M  V30 25 F 8.381 -5.0183 0.0 0
M  V30 26 F 10.1123 -4.9665 0.0 0
M  V30 27 F 5.375 -5.7124 0.0 0
M  V30 28 C 2.598 0.0 0.0 0
M  V30 29 O 2.598 1.0 0.0 0
M  V30 30 N 1.732 -0.5 0.0 0
M  V30 31 C 0.866 0.0 0.0 0
M  V30 32 C 0.866 1.0 0.0 0
M  V30 33 C 0.0 -0.5 0.0 0
M  V30 END ATOM
M  V30 BEGIN BOND
M  V30 1 1 1 2
M  V30 2 2 2 3
M  V30 3 1 2 4
M  V30 4 1 3 5
M  V30 5 2 4 6
M  V30 6 1 5 7
M  V30 7 2 5 8
M  V30 8 2 7 9
M  V30 9 1 7 10
M  V30 10 1 8 11
M  V30 11 1 9 12
M  V30 12 1 13 10 CFG=1
M  V30 13 1 11 14
M  V30 14 1 11 15
M  V30 15 1 12 16
M  V30 16 1 13 17
M  V30 17 1 13 18
M  V30 18 1 14 19
M  V30 19 1 15 20
M  V30 20 2 16 21
M  V30 21 1 17 22
M  V30 22 1 18 23
M  V30 23 2 19 24
M  V30 24 1 20 25
M  V30 25 1 20 26
M  V30 26 1 21 27
M  V30 27 1 22 28
M  V30 28 2 28 29
M  V30 29 1 28 30
M  V30 30 1 30 31
M  V30 31 1 31 32
M  V30 32 1 31 33
M  V30 33 1 6 8
M  V30 34 2 12 14
M  V30 35 1 21 24
M  V30 36 1 22 23
M  V30 END BOND
M  V30 BEGIN COLLECTION
M  V30 MDLV30/STEABS ATOMS=(1 13)
M  V30 END COLLECTION
M  V30 END CTAB
M  END
>  <Molecule Name>
Compound 925

>  <Molecule Name 2>
Compound 925

>  <Compound ID>
253

>  <Name>
NVS-PAK1-1

>  <Uniprot>
Q13153

>  <Target>
PAK1

>  <Smiles>
CC(C)NC(=O)N1CC[C@H](NC2=NC3=CC(F)=CC=C3N(CC(F)F)C3=CC=C(Cl)C=C23)C1

>  <Kd (nM)>
7

>  <Assay (Kd)>
Kd was assessed by qPCR analysis

>  <Ki (nM)>


>  <Assay (Ki)>


>  <IC50 (nM)>
5.2

>  <Assay (IC50)>
Inhibition of wild type dephosphorylated form of PAK1

>  <EC50 (nM)>


>  <Assay (EC50)>


>  <Article DOI>
10.1021/acsmedchemlett.5b00102

>  <Molecular Weight>
479.934

>  <Exact Mass>
479.1699728

>  <XLogP3>
4.5

>  <Heavy Atom Count>
33

>  <Ring Count>
4

>  <Hydrogen Bond Acceptor Count>
4

>  <Hydrogen Bond Donor Count>
2

>  <Rotatable Bond Count>
4

>  <Topological Polar Surface Area>
59.97

>  <Molecular Formula>
C23H25ClF3N5O

>  <InChI>
InChI=1S/C23H25ClF3N5O/c1-13(2)28-23(33)31-8-7-16(11-31)29-22-17-9-14(24)3-5-19(17)32(12-21(26)27)20-6-4-15(25)10-18(20)30-22/h3-6,9-10,13,16,21H,7-8,11-12H2,1-2H3,(H,28,33)(H,29,30)/t16-/m0/s1

>  <InChI Key>
OINGHOPGNMYCAB-INIZCTEOSA-N

>  <BindingDB>
50112348

>  <PubChem>
137125241

>  <ChEMBL>
CHEMBL3609372

$$$$
254
Actelion Java MolfileCreator 2.0

  0  0  0  0  0  0              0 V3000
M  V30 BEGIN CTAB
M  V30 COUNTS 40 44 0 0 0
M  V30 BEGIN ATOM
M  V30 1 O 14.2894 1.4999 0.0 0
M  V30 2 C 12.9903 2.2499 0.0 0
M  V30 3 N 12.9903 3.7499 0.0 0
M  V30 4 C 11.6913 1.4999 0.0 0
M  V30 5 C 11.6913 4.4999 0.0 0
M  V30 6 C 10.3923 2.2499 0.0 0
M  V30 7 C 11.6913 0.0 0.0 0
M  V30 8 C 11.6913 5.9999 0.0 0
M  V30 9 C 10.3923 3.7499 0.0 0
M  V30 10 C 9.0932 1.5 0.0 0
M  V30 11 C 10.3923 -0.75 0.0 0
M  V30 12 C 10.3923 6.7499 0.0 0
M  V30 13 C 9.0932 4.5 0.0 0
M  V30 14 C 9.0932 0.0 0.0 0
M  V30 15 N 10.3923 8.25 0.0 0
M  V30 16 C 9.0932 6.0 0.0 0
M  V30 17 N 7.7942 -0.75 0.0 0
M  V30 18 C 9.0932 9.0 0.0 0
M  V30 19 C 6.4951 0.0 0.0 0
M  V30 20 N 9.0932 10.5 0.0 0
M  V30 21 C 7.7942 8.25 0.0 0
M  V30 22 O 6.4951 1.5 0.0 0
M  V30 23 C 5.1961 -0.75 0.0 0
M  V30 24 C 7.7942 11.25 0.0 0
M  V30 25 C 6.4951 9.0 0.0 0
M  V30 26 C 3.8971 0.0 0.0 0
M  V30 27 N 6.4951 10.5 0.0 0
M  V30 28 C 5.1961 8.25 0.0 0
M  V30 29 C 2.598 -0.75 0.0 0
M  V30 30 C 3.8258 8.8601 0.0 0
M  V30 31 C 5.0393 6.7582 0.0 0
M  V30 32 N 1.299 0.0 0.0 0
M  V30 33 C 2.8221 7.7453 0.0 0
M  V30 34 C 3.3623 10.2866 0.0 0
M  V30 35 N 3.5721 6.4463 0.0 0
M  V30 36 C 1.299 1.5 0.0 0
M  V30 37 C 0.0 -0.75 0.0 0
M  V30 38 C 1.3549 8.0572 0.0 0
M  V30 39 C 1.895 10.5985 0.0 0
M  V30 40 C 0.8913 9.4838 0.0 0
M  V30 END ATOM
M  V30 BEGIN BOND
M  V30 1 2 1 2
M  V30 2 1 2 3
M  V30 3 1 2 4
M  V30 4 1 3 5
M  V30 5 2 4 6
M  V30 6 1 4 7
M  V30 7 2 5 8
M  V30 8 1 5 9
M  V30 9 1 6 10
M  V30 10 2 7 11
M  V30 11 1 8 12
M  V30 12 2 9 13
M  V30 13 2 10 14
M  V30 14 1 12 15
M  V30 15 2 12 16
M  V30 16 1 14 17
M  V30 17 1 15 18
M  V30 18 1 17 19
M  V30 19 2 18 20
M  V30 20 1 18 21
M  V30 21 2 19 22
M  V30 22 1 19 23
M  V30 23 1 20 24
M  V30 24 2 21 25
M  V30 25 2 23 26
M  V30 26 2 24 27
M  V30 27 1 25 28
M  V30 28 1 26 29
M  V30 29 1 28 30
M  V30 30 2 28 31
M  V30 31 1 29 32
M  V30 32 2 30 33
M  V30 33 1 30 34
M  V30 34 1 31 35
M  V30 35 1 32 36
M  V30 36 1 32 37
M  V30 37 1 33 38
M  V30 38 2 34 39
M  V30 39 2 38 40
M  V30 40 1 11 14
M  V30 41 1 13 16
M  V30 42 1 25 27
M  V30 43 1 33 35
M  V30 44 1 39 40
M  V30 END BOND
M  V30 END CTAB
M  END
>  <Molecule Name>
Compound 926

>  <Molecule Name 2>
Compound 926

>  <Compound ID>
254

>  <Name>
THZ-P1-2

>  <Uniprot>
P48426

>  <Target>
PIP4K2A

>  <Smiles>
CN(C)C/C=C/C(=O)NC1=CC=C(C(=O)NC2=CC=CC(NC3=CC(C4=C[NH]C5=CC=CC=C45)=NC=N3)=C2)C=C1

>  <Kd (nM)>


>  <Assay (Kd)>


>  <Ki (nM)>


>  <Assay (Ki)>


>  <IC50 (nM)>
950

>  <Assay (IC50)>
IC50 was assessed by ADP-Glo assay

>  <EC50 (nM)>


>  <Assay (EC50)>


>  <Article DOI>
10.1021/acsmedchemlett.9b00402

>  <Molecular Weight>
531.62

>  <Exact Mass>
531.2382732

>  <XLogP3>
4.17

>  <Heavy Atom Count>
40

>  <Ring Count>
5

>  <Hydrogen Bond Acceptor Count>
6

>  <Hydrogen Bond Donor Count>
4

>  <Rotatable Bond Count>
9

>  <Topological Polar Surface Area>
115.04

>  <Molecular Formula>
C31H29N7O2

>  <InChI>
InChI=1S/C31H29N7O2/c1-38(2)16-6-11-30(39)36-22-14-12-21(13-15-22)31(40)37-24-8-5-7-23(17-24)35-29-18-28(33-20-34-29)26-19-32-27-10-4-3-9-25(26)27/h3-15,17-20,32H,16H2,1-2H3,(H,36,39)(H,37,40)(H,33,34,35)/b11-6+

>  <InChI Key>
MJJJRRMQCUUKEO-IZZDOVSWSA-N

>  <BindingDB>
50511422

>  <PubChem>
134451950

>  <ChEMBL>
CHEMBL4446338

$$$$
254
Actelion Java MolfileCreator 2.0

  0  0  0  0  0  0              0 V3000
M  V30 BEGIN CTAB
M  V30 COUNTS 40 44 0 0 0
M  V30 BEGIN ATOM
M  V30 1 O 14.2894 1.4999 0.0 0
M  V30 2 C 12.9903 2.2499 0.0 0
M  V30 3 N 12.9903 3.7499 0.0 0
M  V30 4 C 11.6913 1.4999 0.0 0
M  V30 5 C 11.6913 4.4999 0.0 0
M  V30 6 C 10.3923 2.2499 0.0 0
M  V30 7 C 11.6913 0.0 0.0 0
M  V30 8 C 11.6913 5.9999 0.0 0
M  V30 9 C 10.3923 3.7499 0.0 0
M  V30 10 C 9.0932 1.5 0.0 0
M  V30 11 C 10.3923 -0.75 0.0 0
M  V30 12 C 10.3923 6.7499 0.0 0
M  V30 13 C 9.0932 4.5 0.0 0
M  V30 14 C 9.0932 0.0 0.0 0
M  V30 15 N 10.3923 8.25 0.0 0
M  V30 16 C 9.0932 6.0 0.0 0
M  V30 17 N 7.7942 -0.75 0.0 0
M  V30 18 C 9.0932 9.0 0.0 0
M  V30 19 C 6.4951 0.0 0.0 0
M  V30 20 N 9.0932 10.5 0.0 0
M  V30 21 C 7.7942 8.25 0.0 0
M  V30 22 O 6.4951 1.5 0.0 0
M  V30 23 C 5.1961 -0.75 0.0 0
M  V30 24 C 7.7942 11.25 0.0 0
M  V30 25 C 6.4951 9.0 0.0 0
M  V30 26 C 3.8971 0.0 0.0 0
M  V30 27 N 6.4951 10.5 0.0 0
M  V30 28 C 5.1961 8.25 0.0 0
M  V30 29 C 2.598 -0.75 0.0 0
M  V30 30 C 3.8258 8.8601 0.0 0
M  V30 31 C 5.0393 6.7582 0.0 0
M  V30 32 N 1.299 0.0 0.0 0
M  V30 33 C 2.8221 7.7453 0.0 0
M  V30 34 C 3.3623 10.2866 0.0 0
M  V30 35 N 3.5721 6.4463 0.0 0
M  V30 36 C 1.299 1.5 0.0 0
M  V30 37 C 0.0 -0.75 0.0 0
M  V30 38 C 1.3549 8.0572 0.0 0
M  V30 39 C 1.895 10.5985 0.0 0
M  V30 40 C 0.8913 9.4838 0.0 0
M  V30 END ATOM
M  V30 BEGIN BOND
M  V30 1 2 1 2
M  V30 2 1 2 3
M  V30 3 1 2 4
M  V30 4 1 3 5
M  V30 5 2 4 6
M  V30 6 1 4 7
M  V30 7 2 5 8
M  V30 8 1 5 9
M  V30 9 1 6 10
M  V30 10 2 7 11
M  V30 11 1 8 12
M  V30 12 2 9 13
M  V30 13 2 10 14
M  V30 14 1 12 15
M  V30 15 2 12 16
M  V30 16 1 14 17
M  V30 17 1 15 18
M  V30 18 1 17 19
M  V30 19 2 18 20
M  V30 20 1 18 21
M  V30 21 2 19 22
M  V30 22 1 19 23
M  V30 23 1 20 24
M  V30 24 2 21 25
M  V30 25 2 23 26
M  V30 26 2 24 27
M  V30 27 1 25 28
M  V30 28 1 26 29
M  V30 29 1 28 30
M  V30 30 2 28 31
M  V30 31 1 29 32
M  V30 32 2 30 33
M  V30 33 1 30 34
M  V30 34 1 31 35
M  V30 35 1 32 36
M  V30 36 1 32 37
M  V30 37 1 33 38
M  V30 38 2 34 39
M  V30 39 2 38 40
M  V30 40 1 11 14
M  V30 41 1 13 16
M  V30 42 1 25 27
M  V30 43 1 33 35
M  V30 44 1 39 40
M  V30 END BOND
M  V30 END CTAB
M  END
>  <Molecule Name>
Compound 927

>  <Molecule Name 2>
Compound 927

>  <Compound ID>
254

>  <Name>
THZ-P1-2

>  <Uniprot>
P78356

>  <Target>
PIP4K2B

>  <Smiles>
CN(C)C/C=C/C(=O)NC1=CC=C(C(=O)NC2=CC=CC(NC3=CC(C4=C[NH]C5=CC=CC=C45)=NC=N3)=C2)C=C1

>  <Kd (nM)>


>  <Assay (Kd)>


>  <Ki (nM)>


>  <Assay (Ki)>


>  <IC50 (nM)>
5900

>  <Assay (IC50)>
IC50 was assessed by ADP-Glo assay

>  <EC50 (nM)>


>  <Assay (EC50)>


>  <Article DOI>
10.1021/acsmedchemlett.9b00402

>  <Molecular Weight>
531.62

>  <Exact Mass>
531.2382732

>  <XLogP3>
4.17

>  <Heavy Atom Count>
40

>  <Ring Count>
5

>  <Hydrogen Bond Acceptor Count>
6

>  <Hydrogen Bond Donor Count>
4

>  <Rotatable Bond Count>
9

>  <Topological Polar Surface Area>
115.04

>  <Molecular Formula>
C31H29N7O2

>  <InChI>
InChI=1S/C31H29N7O2/c1-38(2)16-6-11-30(39)36-22-14-12-21(13-15-22)31(40)37-24-8-5-7-23(17-24)35-29-18-28(33-20-34-29)26-19-32-27-10-4-3-9-25(26)27/h3-15,17-20,32H,16H2,1-2H3,(H,36,39)(H,37,40)(H,33,34,35)/b11-6+

>  <InChI Key>
MJJJRRMQCUUKEO-IZZDOVSWSA-N

>  <BindingDB>
50511422

>  <PubChem>
134451950

>  <ChEMBL>
CHEMBL4446338

$$$$
254
Actelion Java MolfileCreator 2.0

  0  0  0  0  0  0              0 V3000
M  V30 BEGIN CTAB
M  V30 COUNTS 40 44 0 0 0
M  V30 BEGIN ATOM
M  V30 1 O 14.2894 1.4999 0.0 0
M  V30 2 C 12.9903 2.2499 0.0 0
M  V30 3 N 12.9903 3.7499 0.0 0
M  V30 4 C 11.6913 1.4999 0.0 0
M  V30 5 C 11.6913 4.4999 0.0 0
M  V30 6 C 10.3923 2.2499 0.0 0
M  V30 7 C 11.6913 0.0 0.0 0
M  V30 8 C 11.6913 5.9999 0.0 0
M  V30 9 C 10.3923 3.7499 0.0 0
M  V30 10 C 9.0932 1.5 0.0 0
M  V30 11 C 10.3923 -0.75 0.0 0
M  V30 12 C 10.3923 6.7499 0.0 0
M  V30 13 C 9.0932 4.5 0.0 0
M  V30 14 C 9.0932 0.0 0.0 0
M  V30 15 N 10.3923 8.25 0.0 0
M  V30 16 C 9.0932 6.0 0.0 0
M  V30 17 N 7.7942 -0.75 0.0 0
M  V30 18 C 9.0932 9.0 0.0 0
M  V30 19 C 6.4951 0.0 0.0 0
M  V30 20 N 9.0932 10.5 0.0 0
M  V30 21 C 7.7942 8.25 0.0 0
M  V30 22 O 6.4951 1.5 0.0 0
M  V30 23 C 5.1961 -0.75 0.0 0
M  V30 24 C 7.7942 11.25 0.0 0
M  V30 25 C 6.4951 9.0 0.0 0
M  V30 26 C 3.8971 0.0 0.0 0
M  V30 27 N 6.4951 10.5 0.0 0
M  V30 28 C 5.1961 8.25 0.0 0
M  V30 29 C 2.598 -0.75 0.0 0
M  V30 30 C 3.8258 8.8601 0.0 0
M  V30 31 C 5.0393 6.7582 0.0 0
M  V30 32 N 1.299 0.0 0.0 0
M  V30 33 C 2.8221 7.7453 0.0 0
M  V30 34 C 3.3623 10.2866 0.0 0
M  V30 35 N 3.5721 6.4463 0.0 0
M  V30 36 C 1.299 1.5 0.0 0
M  V30 37 C 0.0 -0.75 0.0 0
M  V30 38 C 1.3549 8.0572 0.0 0
M  V30 39 C 1.895 10.5985 0.0 0
M  V30 40 C 0.8913 9.4838 0.0 0
M  V30 END ATOM
M  V30 BEGIN BOND
M  V30 1 2 1 2
M  V30 2 1 2 3
M  V30 3 1 2 4
M  V30 4 1 3 5
M  V30 5 2 4 6
M  V30 6 1 4 7
M  V30 7 2 5 8
M  V30 8 1 5 9
M  V30 9 1 6 10
M  V30 10 2 7 11
M  V30 11 1 8 12
M  V30 12 2 9 13
M  V30 13 2 10 14
M  V30 14 1 12 15
M  V30 15 2 12 16
M  V30 16 1 14 17
M  V30 17 1 15 18
M  V30 18 1 17 19
M  V30 19 2 18 20
M  V30 20 1 18 21
M  V30 21 2 19 22
M  V30 22 1 19 23
M  V30 23 1 20 24
M  V30 24 2 21 25
M  V30 25 2 23 26
M  V30 26 2 24 27
M  V30 27 1 25 28
M  V30 28 1 26 29
M  V30 29 1 28 30
M  V30 30 2 28 31
M  V30 31 1 29 32
M  V30 32 2 30 33
M  V30 33 1 30 34
M  V30 34 1 31 35
M  V30 35 1 32 36
M  V30 36 1 32 37
M  V30 37 1 33 38
M  V30 38 2 34 39
M  V30 39 2 38 40
M  V30 40 1 11 14
M  V30 41 1 13 16
M  V30 42 1 25 27
M  V30 43 1 33 35
M  V30 44 1 39 40
M  V30 END BOND
M  V30 END CTAB
M  END
>  <Molecule Name>
Compound 928

>  <Molecule Name 2>
Compound 928

>  <Compound ID>
254

>  <Name>
THZ-P1-2

>  <Uniprot>
Q8TBX8

>  <Target>
PIP4K2C

>  <Smiles>
CN(C)C/C=C/C(=O)NC1=CC=C(C(=O)NC2=CC=CC(NC3=CC(C4=C[NH]C5=CC=CC=C45)=NC=N3)=C2)C=C1

>  <Kd (nM)>
4.8

>  <Assay (Kd)>
Kd of PIP4K2C

>  <Ki (nM)>


>  <Assay (Ki)>


>  <IC50 (nM)>


>  <Assay (IC50)>


>  <EC50 (nM)>


>  <Assay (EC50)>


>  <Article DOI>
10.1021/acs.jmedchem.0c00227

>  <Molecular Weight>
531.62

>  <Exact Mass>
531.2382732

>  <XLogP3>
4.17

>  <Heavy Atom Count>
40

>  <Ring Count>
5

>  <Hydrogen Bond Acceptor Count>
6

>  <Hydrogen Bond Donor Count>
4

>  <Rotatable Bond Count>
9

>  <Topological Polar Surface Area>
115.04

>  <Molecular Formula>
C31H29N7O2

>  <InChI>
InChI=1S/C31H29N7O2/c1-38(2)16-6-11-30(39)36-22-14-12-21(13-15-22)31(40)37-24-8-5-7-23(17-24)35-29-18-28(33-20-34-29)26-19-32-27-10-4-3-9-25(26)27/h3-15,17-20,32H,16H2,1-2H3,(H,36,39)(H,37,40)(H,33,34,35)/b11-6+

>  <InChI Key>
MJJJRRMQCUUKEO-IZZDOVSWSA-N

>  <BindingDB>
50511422

>  <PubChem>
134451950

>  <ChEMBL>
CHEMBL4446338

$$$$
255
Actelion Java MolfileCreator 2.0

  0  0  0  0  0  0              0 V3000
M  V30 BEGIN CTAB
M  V30 COUNTS 25 29 0 0 0
M  V30 BEGIN ATOM
M  V30 1 O 6.0621 0.0 0.0 0
M  V30 2 C 5.1961 -0.5 0.0 0
M  V30 3 N 4.3301 0.0 0.0 0
M  V30 4 C 5.1961 -1.4999 0.0 0
M  V30 5 C 3.4641 -0.5 0.0 0
M  V30 6 C 4.3301 0.9999 0.0 0
M  V30 7 C 4.3301 -1.9999 0.0 0
M  V30 8 N 2.598 0.0 0.0 0
M  V30 9 C 3.4641 -1.4999 0.0 0
M  V30 10 C 5.1391 1.5877 0.0 0
M  V30 11 C 3.5211 1.5877 0.0 0
M  V30 12 C 1.732 -0.5 0.0 0
M  V30 13 C 2.598 -2.0 0.0 0
M  V30 14 C 4.8301 2.5388 0.0 0
M  V30 15 C 5.6784 2.8558 0.0 0
M  V30 16 C 3.8301 2.5388 0.0 0
M  V30 17 N 1.732 -1.5 0.0 0
M  V30 18 N 0.866 0.0 0.0 0
M  V30 19 C 4.8694 3.4436 0.0 0
M  V30 20 C 0.0 -0.5 0.0 0
M  V30 21 C -0.866 0.0 0.0 0
M  V30 22 C 0.0 -1.4999 0.0 0
M  V30 23 C -1.732 -0.4999 0.0 0
M  V30 24 C -0.866 -1.9999 0.0 0
M  V30 25 C -1.732 -1.4999 0.0 0
M  V30 END ATOM
M  V30 BEGIN BOND
M  V30 1 2 1 2
M  V30 2 1 2 3
M  V30 3 1 2 4
M  V30 4 1 3 5
M  V30 5 1 3 6
M  V30 6 2 4 7
M  V30 7 2 5 8
M  V30 8 1 5 9
M  V30 9 1 6 10
M  V30 10 1 6 11
M  V30 11 1 8 12
M  V30 12 2 9 13
M  V30 13 1 10 14
M  V30 14 1 10 15
M  V30 15 1 11 16
M  V30 16 2 12 17
M  V30 17 1 12 18
M  V30 18 1 15 19
M  V30 19 1 18 20
M  V30 20 2 20 21
M  V30 21 1 20 22
M  V30 22 1 21 23
M  V30 23 2 22 24
M  V30 24 2 23 25
M  V30 25 1 7 9
M  V30 26 1 13 17
M  V30 27 1 14 16
M  V30 28 1 16 19
M  V30 29 1 24 25
M  V30 END BOND
M  V30 END CTAB
M  END
>  <Molecule Name>
Compound 929

>  <Molecule Name 2>
Compound 929

>  <Compound ID>
255

>  <Name>


>  <Uniprot>
Q2M2I8

>  <Target>
AAK1

>  <Smiles>
O=C1C=CC2=CN=C(NC3=CC=CC=C3)N=C2N1C1CC2CCC1C2

>  <Kd (nM)>


>  <Assay (Kd)>


>  <Ki (nM)>


>  <Assay (Ki)>


>  <IC50 (nM)>


>  <Assay (IC50)>


>  <EC50 (nM)>


>  <Assay (EC50)>


>  <Article DOI>
10.1016/j.cell.2020.10.038

>  <Molecular Weight>
332.407

>  <Exact Mass>
332.1637113

>  <XLogP3>
3.75

>  <Heavy Atom Count>
25

>  <Ring Count>
5

>  <Hydrogen Bond Acceptor Count>
5

>  <Hydrogen Bond Donor Count>
1

>  <Rotatable Bond Count>
3

>  <Topological Polar Surface Area>
59.81

>  <Molecular Formula>
C20H20N4O

>  <InChI>
InChI=1S/C20H20N4O/c25-18-9-8-15-12-21-20(22-16-4-2-1-3-5-16)23-19(15)24(18)17-11-13-6-7-14(17)10-13/h1-5,8-9,12-14,17H,6-7,10-11H2,(H,21,22,23)

>  <InChI Key>
QAWADIWIAIIMDV-UHFFFAOYSA-N

>  <BindingDB>
6256

>  <PubChem>
5330234

>  <ChEMBL>
CHEMBL358560

$$$$
255
Actelion Java MolfileCreator 2.0

  0  0  0  0  0  0              0 V3000
M  V30 BEGIN CTAB
M  V30 COUNTS 25 29 0 0 0
M  V30 BEGIN ATOM
M  V30 1 O 6.0621 0.0 0.0 0
M  V30 2 C 5.1961 -0.5 0.0 0
M  V30 3 N 4.3301 0.0 0.0 0
M  V30 4 C 5.1961 -1.4999 0.0 0
M  V30 5 C 3.4641 -0.5 0.0 0
M  V30 6 C 4.3301 0.9999 0.0 0
M  V30 7 C 4.3301 -1.9999 0.0 0
M  V30 8 N 2.598 0.0 0.0 0
M  V30 9 C 3.4641 -1.4999 0.0 0
M  V30 10 C 5.1391 1.5877 0.0 0
M  V30 11 C 3.5211 1.5877 0.0 0
M  V30 12 C 1.732 -0.5 0.0 0
M  V30 13 C 2.598 -2.0 0.0 0
M  V30 14 C 4.8301 2.5388 0.0 0
M  V30 15 C 5.6784 2.8558 0.0 0
M  V30 16 C 3.8301 2.5388 0.0 0
M  V30 17 N 1.732 -1.5 0.0 0
M  V30 18 N 0.866 0.0 0.0 0
M  V30 19 C 4.8694 3.4436 0.0 0
M  V30 20 C 0.0 -0.5 0.0 0
M  V30 21 C -0.866 0.0 0.0 0
M  V30 22 C 0.0 -1.4999 0.0 0
M  V30 23 C -1.732 -0.4999 0.0 0
M  V30 24 C -0.866 -1.9999 0.0 0
M  V30 25 C -1.732 -1.4999 0.0 0
M  V30 END ATOM
M  V30 BEGIN BOND
M  V30 1 2 1 2
M  V30 2 1 2 3
M  V30 3 1 2 4
M  V30 4 1 3 5
M  V30 5 1 3 6
M  V30 6 2 4 7
M  V30 7 2 5 8
M  V30 8 1 5 9
M  V30 9 1 6 10
M  V30 10 1 6 11
M  V30 11 1 8 12
M  V30 12 2 9 13
M  V30 13 1 10 14
M  V30 14 1 10 15
M  V30 15 1 11 16
M  V30 16 2 12 17
M  V30 17 1 12 18
M  V30 18 1 15 19
M  V30 19 1 18 20
M  V30 20 2 20 21
M  V30 21 1 20 22
M  V30 22 1 21 23
M  V30 23 2 22 24
M  V30 24 2 23 25
M  V30 25 1 7 9
M  V30 26 1 13 17
M  V30 27 1 14 16
M  V30 28 1 16 19
M  V30 29 1 24 25
M  V30 END BOND
M  V30 END CTAB
M  END
>  <Molecule Name>
Compound 930

>  <Molecule Name 2>
Compound 930

>  <Compound ID>
255

>  <Name>


>  <Uniprot>
O14965

>  <Target>
AURKA

>  <Smiles>
O=C1C=CC2=CN=C(NC3=CC=CC=C3)N=C2N1C1CC2CCC1C2

>  <Kd (nM)>


>  <Assay (Kd)>


>  <Ki (nM)>


>  <Assay (Ki)>


>  <IC50 (nM)>


>  <Assay (IC50)>


>  <EC50 (nM)>


>  <Assay (EC50)>


>  <Article DOI>
10.1016/j.cell.2020.10.038

>  <Molecular Weight>
332.407

>  <Exact Mass>
332.1637113

>  <XLogP3>
3.75

>  <Heavy Atom Count>
25

>  <Ring Count>
5

>  <Hydrogen Bond Acceptor Count>
5

>  <Hydrogen Bond Donor Count>
1

>  <Rotatable Bond Count>
3

>  <Topological Polar Surface Area>
59.81

>  <Molecular Formula>
C20H20N4O

>  <InChI>
InChI=1S/C20H20N4O/c25-18-9-8-15-12-21-20(22-16-4-2-1-3-5-16)23-19(15)24(18)17-11-13-6-7-14(17)10-13/h1-5,8-9,12-14,17H,6-7,10-11H2,(H,21,22,23)

>  <InChI Key>
QAWADIWIAIIMDV-UHFFFAOYSA-N

>  <BindingDB>
6256

>  <PubChem>
5330234

>  <ChEMBL>
CHEMBL358560

$$$$
255
Actelion Java MolfileCreator 2.0

  0  0  0  0  0  0              0 V3000
M  V30 BEGIN CTAB
M  V30 COUNTS 25 29 0 0 0
M  V30 BEGIN ATOM
M  V30 1 O 6.0621 0.0 0.0 0
M  V30 2 C 5.1961 -0.5 0.0 0
M  V30 3 N 4.3301 0.0 0.0 0
M  V30 4 C 5.1961 -1.4999 0.0 0
M  V30 5 C 3.4641 -0.5 0.0 0
M  V30 6 C 4.3301 0.9999 0.0 0
M  V30 7 C 4.3301 -1.9999 0.0 0
M  V30 8 N 2.598 0.0 0.0 0
M  V30 9 C 3.4641 -1.4999 0.0 0
M  V30 10 C 5.1391 1.5877 0.0 0
M  V30 11 C 3.5211 1.5877 0.0 0
M  V30 12 C 1.732 -0.5 0.0 0
M  V30 13 C 2.598 -2.0 0.0 0
M  V30 14 C 4.8301 2.5388 0.0 0
M  V30 15 C 5.6784 2.8558 0.0 0
M  V30 16 C 3.8301 2.5388 0.0 0
M  V30 17 N 1.732 -1.5 0.0 0
M  V30 18 N 0.866 0.0 0.0 0
M  V30 19 C 4.8694 3.4436 0.0 0
M  V30 20 C 0.0 -0.5 0.0 0
M  V30 21 C -0.866 0.0 0.0 0
M  V30 22 C 0.0 -1.4999 0.0 0
M  V30 23 C -1.732 -0.4999 0.0 0
M  V30 24 C -0.866 -1.9999 0.0 0
M  V30 25 C -1.732 -1.4999 0.0 0
M  V30 END ATOM
M  V30 BEGIN BOND
M  V30 1 2 1 2
M  V30 2 1 2 3
M  V30 3 1 2 4
M  V30 4 1 3 5
M  V30 5 1 3 6
M  V30 6 2 4 7
M  V30 7 2 5 8
M  V30 8 1 5 9
M  V30 9 1 6 10
M  V30 10 1 6 11
M  V30 11 1 8 12
M  V30 12 2 9 13
M  V30 13 1 10 14
M  V30 14 1 10 15
M  V30 15 1 11 16
M  V30 16 2 12 17
M  V30 17 1 12 18
M  V30 18 1 15 19
M  V30 19 1 18 20
M  V30 20 2 20 21
M  V30 21 1 20 22
M  V30 22 1 21 23
M  V30 23 2 22 24
M  V30 24 2 23 25
M  V30 25 1 7 9
M  V30 26 1 13 17
M  V30 27 1 14 16
M  V30 28 1 16 19
M  V30 29 1 24 25
M  V30 END BOND
M  V30 END CTAB
M  END
>  <Molecule Name>
Compound 931

>  <Molecule Name 2>
Compound 931

>  <Compound ID>
255

>  <Name>


>  <Uniprot>
Q96GD4

>  <Target>
AURKB

>  <Smiles>
O=C1C=CC2=CN=C(NC3=CC=CC=C3)N=C2N1C1CC2CCC1C2

>  <Kd (nM)>


>  <Assay (Kd)>


>  <Ki (nM)>


>  <Assay (Ki)>


>  <IC50 (nM)>


>  <Assay (IC50)>


>  <EC50 (nM)>


>  <Assay (EC50)>


>  <Article DOI>
10.1016/j.cell.2020.10.038

>  <Molecular Weight>
332.407

>  <Exact Mass>
332.1637113

>  <XLogP3>
3.75

>  <Heavy Atom Count>
25

>  <Ring Count>
5

>  <Hydrogen Bond Acceptor Count>
5

>  <Hydrogen Bond Donor Count>
1

>  <Rotatable Bond Count>
3

>  <Topological Polar Surface Area>
59.81

>  <Molecular Formula>
C20H20N4O

>  <InChI>
InChI=1S/C20H20N4O/c25-18-9-8-15-12-21-20(22-16-4-2-1-3-5-16)23-19(15)24(18)17-11-13-6-7-14(17)10-13/h1-5,8-9,12-14,17H,6-7,10-11H2,(H,21,22,23)

>  <InChI Key>
QAWADIWIAIIMDV-UHFFFAOYSA-N

>  <BindingDB>
6256

>  <PubChem>
5330234

>  <ChEMBL>
CHEMBL358560

$$$$
255
Actelion Java MolfileCreator 2.0

  0  0  0  0  0  0              0 V3000
M  V30 BEGIN CTAB
M  V30 COUNTS 25 29 0 0 0
M  V30 BEGIN ATOM
M  V30 1 O 6.0621 0.0 0.0 0
M  V30 2 C 5.1961 -0.5 0.0 0
M  V30 3 N 4.3301 0.0 0.0 0
M  V30 4 C 5.1961 -1.4999 0.0 0
M  V30 5 C 3.4641 -0.5 0.0 0
M  V30 6 C 4.3301 0.9999 0.0 0
M  V30 7 C 4.3301 -1.9999 0.0 0
M  V30 8 N 2.598 0.0 0.0 0
M  V30 9 C 3.4641 -1.4999 0.0 0
M  V30 10 C 5.1391 1.5877 0.0 0
M  V30 11 C 3.5211 1.5877 0.0 0
M  V30 12 C 1.732 -0.5 0.0 0
M  V30 13 C 2.598 -2.0 0.0 0
M  V30 14 C 4.8301 2.5388 0.0 0
M  V30 15 C 5.6784 2.8558 0.0 0
M  V30 16 C 3.8301 2.5388 0.0 0
M  V30 17 N 1.732 -1.5 0.0 0
M  V30 18 N 0.866 0.0 0.0 0
M  V30 19 C 4.8694 3.4436 0.0 0
M  V30 20 C 0.0 -0.5 0.0 0
M  V30 21 C -0.866 0.0 0.0 0
M  V30 22 C 0.0 -1.4999 0.0 0
M  V30 23 C -1.732 -0.4999 0.0 0
M  V30 24 C -0.866 -1.9999 0.0 0
M  V30 25 C -1.732 -1.4999 0.0 0
M  V30 END ATOM
M  V30 BEGIN BOND
M  V30 1 2 1 2
M  V30 2 1 2 3
M  V30 3 1 2 4
M  V30 4 1 3 5
M  V30 5 1 3 6
M  V30 6 2 4 7
M  V30 7 2 5 8
M  V30 8 1 5 9
M  V30 9 1 6 10
M  V30 10 1 6 11
M  V30 11 1 8 12
M  V30 12 2 9 13
M  V30 13 1 10 14
M  V30 14 1 10 15
M  V30 15 1 11 16
M  V30 16 2 12 17
M  V30 17 1 12 18
M  V30 18 1 15 19
M  V30 19 1 18 20
M  V30 20 2 20 21
M  V30 21 1 20 22
M  V30 22 1 21 23
M  V30 23 2 22 24
M  V30 24 2 23 25
M  V30 25 1 7 9
M  V30 26 1 13 17
M  V30 27 1 14 16
M  V30 28 1 16 19
M  V30 29 1 24 25
M  V30 END BOND
M  V30 END CTAB
M  END
>  <Molecule Name>
Compound 932

>  <Molecule Name 2>
Compound 932

>  <Compound ID>
255

>  <Name>


>  <Uniprot>
Q00534

>  <Target>
CDK6

>  <Smiles>
O=C1C=CC2=CN=C(NC3=CC=CC=C3)N=C2N1C1CC2CCC1C2

>  <Kd (nM)>


>  <Assay (Kd)>


>  <Ki (nM)>


>  <Assay (Ki)>


>  <IC50 (nM)>


>  <Assay (IC50)>


>  <EC50 (nM)>


>  <Assay (EC50)>


>  <Article DOI>
10.1016/j.cell.2020.10.038

>  <Molecular Weight>
332.407

>  <Exact Mass>
332.1637113

>  <XLogP3>
3.75

>  <Heavy Atom Count>
25

>  <Ring Count>
5

>  <Hydrogen Bond Acceptor Count>
5

>  <Hydrogen Bond Donor Count>
1

>  <Rotatable Bond Count>
3

>  <Topological Polar Surface Area>
59.81

>  <Molecular Formula>
C20H20N4O

>  <InChI>
InChI=1S/C20H20N4O/c25-18-9-8-15-12-21-20(22-16-4-2-1-3-5-16)23-19(15)24(18)17-11-13-6-7-14(17)10-13/h1-5,8-9,12-14,17H,6-7,10-11H2,(H,21,22,23)

>  <InChI Key>
QAWADIWIAIIMDV-UHFFFAOYSA-N

>  <BindingDB>
6256

>  <PubChem>
5330234

>  <ChEMBL>
CHEMBL358560

$$$$
255
Actelion Java MolfileCreator 2.0

  0  0  0  0  0  0              0 V3000
M  V30 BEGIN CTAB
M  V30 COUNTS 25 29 0 0 0
M  V30 BEGIN ATOM
M  V30 1 O 6.0621 0.0 0.0 0
M  V30 2 C 5.1961 -0.5 0.0 0
M  V30 3 N 4.3301 0.0 0.0 0
M  V30 4 C 5.1961 -1.4999 0.0 0
M  V30 5 C 3.4641 -0.5 0.0 0
M  V30 6 C 4.3301 0.9999 0.0 0
M  V30 7 C 4.3301 -1.9999 0.0 0
M  V30 8 N 2.598 0.0 0.0 0
M  V30 9 C 3.4641 -1.4999 0.0 0
M  V30 10 C 5.1391 1.5877 0.0 0
M  V30 11 C 3.5211 1.5877 0.0 0
M  V30 12 C 1.732 -0.5 0.0 0
M  V30 13 C 2.598 -2.0 0.0 0
M  V30 14 C 4.8301 2.5388 0.0 0
M  V30 15 C 5.6784 2.8558 0.0 0
M  V30 16 C 3.8301 2.5388 0.0 0
M  V30 17 N 1.732 -1.5 0.0 0
M  V30 18 N 0.866 0.0 0.0 0
M  V30 19 C 4.8694 3.4436 0.0 0
M  V30 20 C 0.0 -0.5 0.0 0
M  V30 21 C -0.866 0.0 0.0 0
M  V30 22 C 0.0 -1.4999 0.0 0
M  V30 23 C -1.732 -0.4999 0.0 0
M  V30 24 C -0.866 -1.9999 0.0 0
M  V30 25 C -1.732 -1.4999 0.0 0
M  V30 END ATOM
M  V30 BEGIN BOND
M  V30 1 2 1 2
M  V30 2 1 2 3
M  V30 3 1 2 4
M  V30 4 1 3 5
M  V30 5 1 3 6
M  V30 6 2 4 7
M  V30 7 2 5 8
M  V30 8 1 5 9
M  V30 9 1 6 10
M  V30 10 1 6 11
M  V30 11 1 8 12
M  V30 12 2 9 13
M  V30 13 1 10 14
M  V30 14 1 10 15
M  V30 15 1 11 16
M  V30 16 2 12 17
M  V30 17 1 12 18
M  V30 18 1 15 19
M  V30 19 1 18 20
M  V30 20 2 20 21
M  V30 21 1 20 22
M  V30 22 1 21 23
M  V30 23 2 22 24
M  V30 24 2 23 25
M  V30 25 1 7 9
M  V30 26 1 13 17
M  V30 27 1 14 16
M  V30 28 1 16 19
M  V30 29 1 24 25
M  V30 END BOND
M  V30 END CTAB
M  END
>  <Molecule Name>
Compound 933

>  <Molecule Name 2>
Compound 933

>  <Compound ID>
255

>  <Name>


>  <Uniprot>
P50750

>  <Target>
CDK9

>  <Smiles>
O=C1C=CC2=CN=C(NC3=CC=CC=C3)N=C2N1C1CC2CCC1C2

>  <Kd (nM)>


>  <Assay (Kd)>


>  <Ki (nM)>


>  <Assay (Ki)>


>  <IC50 (nM)>


>  <Assay (IC50)>


>  <EC50 (nM)>


>  <Assay (EC50)>


>  <Article DOI>
10.1016/j.cell.2020.10.038

>  <Molecular Weight>
332.407

>  <Exact Mass>
332.1637113

>  <XLogP3>
3.75

>  <Heavy Atom Count>
25

>  <Ring Count>
5

>  <Hydrogen Bond Acceptor Count>
5

>  <Hydrogen Bond Donor Count>
1

>  <Rotatable Bond Count>
3

>  <Topological Polar Surface Area>
59.81

>  <Molecular Formula>
C20H20N4O

>  <InChI>
InChI=1S/C20H20N4O/c25-18-9-8-15-12-21-20(22-16-4-2-1-3-5-16)23-19(15)24(18)17-11-13-6-7-14(17)10-13/h1-5,8-9,12-14,17H,6-7,10-11H2,(H,21,22,23)

>  <InChI Key>
QAWADIWIAIIMDV-UHFFFAOYSA-N

>  <BindingDB>
6256

>  <PubChem>
5330234

>  <ChEMBL>
CHEMBL358560

$$$$
255
Actelion Java MolfileCreator 2.0

  0  0  0  0  0  0              0 V3000
M  V30 BEGIN CTAB
M  V30 COUNTS 25 29 0 0 0
M  V30 BEGIN ATOM
M  V30 1 O 6.0621 0.0 0.0 0
M  V30 2 C 5.1961 -0.5 0.0 0
M  V30 3 N 4.3301 0.0 0.0 0
M  V30 4 C 5.1961 -1.4999 0.0 0
M  V30 5 C 3.4641 -0.5 0.0 0
M  V30 6 C 4.3301 0.9999 0.0 0
M  V30 7 C 4.3301 -1.9999 0.0 0
M  V30 8 N 2.598 0.0 0.0 0
M  V30 9 C 3.4641 -1.4999 0.0 0
M  V30 10 C 5.1391 1.5877 0.0 0
M  V30 11 C 3.5211 1.5877 0.0 0
M  V30 12 C 1.732 -0.5 0.0 0
M  V30 13 C 2.598 -2.0 0.0 0
M  V30 14 C 4.8301 2.5388 0.0 0
M  V30 15 C 5.6784 2.8558 0.0 0
M  V30 16 C 3.8301 2.5388 0.0 0
M  V30 17 N 1.732 -1.5 0.0 0
M  V30 18 N 0.866 0.0 0.0 0
M  V30 19 C 4.8694 3.4436 0.0 0
M  V30 20 C 0.0 -0.5 0.0 0
M  V30 21 C -0.866 0.0 0.0 0
M  V30 22 C 0.0 -1.4999 0.0 0
M  V30 23 C -1.732 -0.4999 0.0 0
M  V30 24 C -0.866 -1.9999 0.0 0
M  V30 25 C -1.732 -1.4999 0.0 0
M  V30 END ATOM
M  V30 BEGIN BOND
M  V30 1 2 1 2
M  V30 2 1 2 3
M  V30 3 1 2 4
M  V30 4 1 3 5
M  V30 5 1 3 6
M  V30 6 2 4 7
M  V30 7 2 5 8
M  V30 8 1 5 9
M  V30 9 1 6 10
M  V30 10 1 6 11
M  V30 11 1 8 12
M  V30 12 2 9 13
M  V30 13 1 10 14
M  V30 14 1 10 15
M  V30 15 1 11 16
M  V30 16 2 12 17
M  V30 17 1 12 18
M  V30 18 1 15 19
M  V30 19 1 18 20
M  V30 20 2 20 21
M  V30 21 1 20 22
M  V30 22 1 21 23
M  V30 23 2 22 24
M  V30 24 2 23 25
M  V30 25 1 7 9
M  V30 26 1 13 17
M  V30 27 1 14 16
M  V30 28 1 16 19
M  V30 29 1 24 25
M  V30 END BOND
M  V30 END CTAB
M  END
>  <Molecule Name>
Compound 934

>  <Molecule Name 2>
Compound 934

>  <Compound ID>
255

>  <Name>


>  <Uniprot>
P21802

>  <Target>
FGFR2

>  <Smiles>
O=C1C=CC2=CN=C(NC3=CC=CC=C3)N=C2N1C1CC2CCC1C2

>  <Kd (nM)>


>  <Assay (Kd)>


>  <Ki (nM)>


>  <Assay (Ki)>


>  <IC50 (nM)>


>  <Assay (IC50)>


>  <EC50 (nM)>


>  <Assay (EC50)>


>  <Article DOI>
10.1016/j.cell.2020.10.038

>  <Molecular Weight>
332.407

>  <Exact Mass>
332.1637113

>  <XLogP3>
3.75

>  <Heavy Atom Count>
25

>  <Ring Count>
5

>  <Hydrogen Bond Acceptor Count>
5

>  <Hydrogen Bond Donor Count>
1

>  <Rotatable Bond Count>
3

>  <Topological Polar Surface Area>
59.81

>  <Molecular Formula>
C20H20N4O

>  <InChI>
InChI=1S/C20H20N4O/c25-18-9-8-15-12-21-20(22-16-4-2-1-3-5-16)23-19(15)24(18)17-11-13-6-7-14(17)10-13/h1-5,8-9,12-14,17H,6-7,10-11H2,(H,21,22,23)

>  <InChI Key>
QAWADIWIAIIMDV-UHFFFAOYSA-N

>  <BindingDB>
6256

>  <PubChem>
5330234

>  <ChEMBL>
CHEMBL358560

$$$$
255
Actelion Java MolfileCreator 2.0

  0  0  0  0  0  0              0 V3000
M  V30 BEGIN CTAB
M  V30 COUNTS 25 29 0 0 0
M  V30 BEGIN ATOM
M  V30 1 O 6.0621 0.0 0.0 0
M  V30 2 C 5.1961 -0.5 0.0 0
M  V30 3 N 4.3301 0.0 0.0 0
M  V30 4 C 5.1961 -1.4999 0.0 0
M  V30 5 C 3.4641 -0.5 0.0 0
M  V30 6 C 4.3301 0.9999 0.0 0
M  V30 7 C 4.3301 -1.9999 0.0 0
M  V30 8 N 2.598 0.0 0.0 0
M  V30 9 C 3.4641 -1.4999 0.0 0
M  V30 10 C 5.1391 1.5877 0.0 0
M  V30 11 C 3.5211 1.5877 0.0 0
M  V30 12 C 1.732 -0.5 0.0 0
M  V30 13 C 2.598 -2.0 0.0 0
M  V30 14 C 4.8301 2.5388 0.0 0
M  V30 15 C 5.6784 2.8558 0.0 0
M  V30 16 C 3.8301 2.5388 0.0 0
M  V30 17 N 1.732 -1.5 0.0 0
M  V30 18 N 0.866 0.0 0.0 0
M  V30 19 C 4.8694 3.4436 0.0 0
M  V30 20 C 0.0 -0.5 0.0 0
M  V30 21 C -0.866 0.0 0.0 0
M  V30 22 C 0.0 -1.4999 0.0 0
M  V30 23 C -1.732 -0.4999 0.0 0
M  V30 24 C -0.866 -1.9999 0.0 0
M  V30 25 C -1.732 -1.4999 0.0 0
M  V30 END ATOM
M  V30 BEGIN BOND
M  V30 1 2 1 2
M  V30 2 1 2 3
M  V30 3 1 2 4
M  V30 4 1 3 5
M  V30 5 1 3 6
M  V30 6 2 4 7
M  V30 7 2 5 8
M  V30 8 1 5 9
M  V30 9 1 6 10
M  V30 10 1 6 11
M  V30 11 1 8 12
M  V30 12 2 9 13
M  V30 13 1 10 14
M  V30 14 1 10 15
M  V30 15 1 11 16
M  V30 16 2 12 17
M  V30 17 1 12 18
M  V30 18 1 15 19
M  V30 19 1 18 20
M  V30 20 2 20 21
M  V30 21 1 20 22
M  V30 22 1 21 23
M  V30 23 2 22 24
M  V30 24 2 23 25
M  V30 25 1 7 9
M  V30 26 1 13 17
M  V30 27 1 14 16
M  V30 28 1 16 19
M  V30 29 1 24 25
M  V30 END BOND
M  V30 END CTAB
M  END
>  <Molecule Name>
Compound 935

>  <Molecule Name 2>
Compound 935

>  <Compound ID>
255

>  <Name>


>  <Uniprot>
Q9UEE5

>  <Target>
STK17A

>  <Smiles>
O=C1C=CC2=CN=C(NC3=CC=CC=C3)N=C2N1C1CC2CCC1C2

>  <Kd (nM)>


>  <Assay (Kd)>


>  <Ki (nM)>


>  <Assay (Ki)>


>  <IC50 (nM)>


>  <Assay (IC50)>


>  <EC50 (nM)>


>  <Assay (EC50)>


>  <Article DOI>
10.1016/j.cell.2020.10.038

>  <Molecular Weight>
332.407

>  <Exact Mass>
332.1637113

>  <XLogP3>
3.75

>  <Heavy Atom Count>
25

>  <Ring Count>
5

>  <Hydrogen Bond Acceptor Count>
5

>  <Hydrogen Bond Donor Count>
1

>  <Rotatable Bond Count>
3

>  <Topological Polar Surface Area>
59.81

>  <Molecular Formula>
C20H20N4O

>  <InChI>
InChI=1S/C20H20N4O/c25-18-9-8-15-12-21-20(22-16-4-2-1-3-5-16)23-19(15)24(18)17-11-13-6-7-14(17)10-13/h1-5,8-9,12-14,17H,6-7,10-11H2,(H,21,22,23)

>  <InChI Key>
QAWADIWIAIIMDV-UHFFFAOYSA-N

>  <BindingDB>
6256

>  <PubChem>
5330234

>  <ChEMBL>
CHEMBL358560

$$$$
255
Actelion Java MolfileCreator 2.0

  0  0  0  0  0  0              0 V3000
M  V30 BEGIN CTAB
M  V30 COUNTS 25 29 0 0 0
M  V30 BEGIN ATOM
M  V30 1 O 6.0621 0.0 0.0 0
M  V30 2 C 5.1961 -0.5 0.0 0
M  V30 3 N 4.3301 0.0 0.0 0
M  V30 4 C 5.1961 -1.4999 0.0 0
M  V30 5 C 3.4641 -0.5 0.0 0
M  V30 6 C 4.3301 0.9999 0.0 0
M  V30 7 C 4.3301 -1.9999 0.0 0
M  V30 8 N 2.598 0.0 0.0 0
M  V30 9 C 3.4641 -1.4999 0.0 0
M  V30 10 C 5.1391 1.5877 0.0 0
M  V30 11 C 3.5211 1.5877 0.0 0
M  V30 12 C 1.732 -0.5 0.0 0
M  V30 13 C 2.598 -2.0 0.0 0
M  V30 14 C 4.8301 2.5388 0.0 0
M  V30 15 C 5.6784 2.8558 0.0 0
M  V30 16 C 3.8301 2.5388 0.0 0
M  V30 17 N 1.732 -1.5 0.0 0
M  V30 18 N 0.866 0.0 0.0 0
M  V30 19 C 4.8694 3.4436 0.0 0
M  V30 20 C 0.0 -0.5 0.0 0
M  V30 21 C -0.866 0.0 0.0 0
M  V30 22 C 0.0 -1.4999 0.0 0
M  V30 23 C -1.732 -0.4999 0.0 0
M  V30 24 C -0.866 -1.9999 0.0 0
M  V30 25 C -1.732 -1.4999 0.0 0
M  V30 END ATOM
M  V30 BEGIN BOND
M  V30 1 2 1 2
M  V30 2 1 2 3
M  V30 3 1 2 4
M  V30 4 1 3 5
M  V30 5 1 3 6
M  V30 6 2 4 7
M  V30 7 2 5 8
M  V30 8 1 5 9
M  V30 9 1 6 10
M  V30 10 1 6 11
M  V30 11 1 8 12
M  V30 12 2 9 13
M  V30 13 1 10 14
M  V30 14 1 10 15
M  V30 15 1 11 16
M  V30 16 2 12 17
M  V30 17 1 12 18
M  V30 18 1 15 19
M  V30 19 1 18 20
M  V30 20 2 20 21
M  V30 21 1 20 22
M  V30 22 1 21 23
M  V30 23 2 22 24
M  V30 24 2 23 25
M  V30 25 1 7 9
M  V30 26 1 13 17
M  V30 27 1 14 16
M  V30 28 1 16 19
M  V30 29 1 24 25
M  V30 END BOND
M  V30 END CTAB
M  END
>  <Molecule Name>
Compound 936

>  <Molecule Name 2>
Compound 936

>  <Compound ID>
255

>  <Name>


>  <Uniprot>
P33981

>  <Target>
TTK

>  <Smiles>
O=C1C=CC2=CN=C(NC3=CC=CC=C3)N=C2N1C1CC2CCC1C2

>  <Kd (nM)>


>  <Assay (Kd)>


>  <Ki (nM)>


>  <Assay (Ki)>


>  <IC50 (nM)>


>  <Assay (IC50)>


>  <EC50 (nM)>


>  <Assay (EC50)>


>  <Article DOI>
10.1016/j.cell.2020.10.038

>  <Molecular Weight>
332.407

>  <Exact Mass>
332.1637113

>  <XLogP3>
3.75

>  <Heavy Atom Count>
25

>  <Ring Count>
5

>  <Hydrogen Bond Acceptor Count>
5

>  <Hydrogen Bond Donor Count>
1

>  <Rotatable Bond Count>
3

>  <Topological Polar Surface Area>
59.81

>  <Molecular Formula>
C20H20N4O

>  <InChI>
InChI=1S/C20H20N4O/c25-18-9-8-15-12-21-20(22-16-4-2-1-3-5-16)23-19(15)24(18)17-11-13-6-7-14(17)10-13/h1-5,8-9,12-14,17H,6-7,10-11H2,(H,21,22,23)

>  <InChI Key>
QAWADIWIAIIMDV-UHFFFAOYSA-N

>  <BindingDB>
6256

>  <PubChem>
5330234

>  <ChEMBL>
CHEMBL358560

$$$$
256
Actelion Java MolfileCreator 2.0

  0  0  0  0  0  0              0 V3000
M  V30 BEGIN CTAB
M  V30 COUNTS 28 31 0 0 0
M  V30 BEGIN ATOM
M  V30 1 O 7.7942 -0.75 0.0 0
M  V30 2 C 6.4951 0.0 0.0 0
M  V30 3 N 5.1961 -0.75 0.0 0
M  V30 4 C 6.4951 1.5 0.0 0
M  V30 5 C 3.8971 0.0 0.0 0
M  V30 6 N 7.7942 2.2499 0.0 0
M  V30 7 C 5.1961 2.25 0.0 0
M  V30 8 C 2.598 -0.75 0.0 0 CFG=2
M  V30 9 C 7.7942 3.75 0.0 0
M  V30 10 C 5.1961 3.75 0.0 0
M  V30 11 O 2.598 -2.25 0.0 0
M  V30 12 C 1.299 0.0 0.0 0
M  V30 13 N 6.4951 4.5 0.0 0
M  V30 14 N 3.8971 4.5 0.0 0
M  V30 15 N 0.0 -0.75 0.0 0
M  V30 16 C 2.598 3.75 0.0 0
M  V30 17 C -1.299 0.0 0.0 0
M  V30 18 C 0.0 -2.2499 0.0 0
M  V30 19 C 1.1491 4.1382 0.0 0
M  V30 20 C 2.2098 2.3011 0.0 0
M  V30 21 C -2.598 -0.7499 0.0 0
M  V30 22 C -1.299 -2.9999 0.0 0
M  V30 23 O 0.7609 2.6893 0.0 0
M  V30 24 C -2.598 -2.2499 0.0 0
M  V30 25 C -3.8971 0.0 0.0 0
M  V30 26 C -3.8971 -2.9999 0.0 0
M  V30 27 C -5.1961 -0.7499 0.0 0
M  V30 28 C -5.1961 -2.2499 0.0 0
M  V30 END ATOM
M  V30 BEGIN BOND
M  V30 1 2 1 2
M  V30 2 1 2 3
M  V30 3 1 2 4
M  V30 4 1 3 5
M  V30 5 2 4 6
M  V30 6 1 4 7
M  V30 7 1 8 5
M  V30 8 1 6 9
M  V30 9 2 7 10
M  V30 10 1 8 11 CFG=3
M  V30 11 1 8 12
M  V30 12 2 9 13
M  V30 13 1 10 14
M  V30 14 1 12 15
M  V30 15 1 14 16
M  V30 16 1 15 17
M  V30 17 1 15 18
M  V30 18 1 16 19
M  V30 19 1 16 20
M  V30 20 1 17 21
M  V30 21 1 18 22
M  V30 22 1 19 23
M  V30 23 2 21 24
M  V30 24 1 21 25
M  V30 25 1 24 26
M  V30 26 2 25 27
M  V30 27 2 26 28
M  V30 28 1 10 13
M  V30 29 1 20 23
M  V30 30 1 22 24
M  V30 31 1 27 28
M  V30 END BOND
M  V30 BEGIN COLLECTION
M  V30 MDLV30/STEABS ATOMS=(1 8)
M  V30 END COLLECTION
M  V30 END CTAB
M  END
>  <Molecule Name>
Compound 937

>  <Molecule Name 2>
Compound 937

>  <Compound ID>
256

>  <Name>
EPZ015666

>  <Uniprot>
O14744

>  <Target>
PRMT5

>  <Smiles>
O=C(NC[C@H](O)CN1CCC2=CC=CC=C2C1)C1=CC(NC2COC2)=NC=N1

>  <Kd (nM)>


>  <Assay (Kd)>


>  <Ki (nM)>


>  <Assay (Ki)>


>  <IC50 (nM)>
30

>  <Assay (IC50)>
IC50 was assessed by a human PRMT5/MEP50 radioactive biochemical assay

>  <EC50 (nM)>


>  <Assay (EC50)>


>  <Article DOI>
10.1021/acs.jmedchem.0c01111

>  <Molecular Weight>
383.452

>  <Exact Mass>
383.1957397

>  <XLogP3>
0.77

>  <Heavy Atom Count>
28

>  <Ring Count>
4

>  <Hydrogen Bond Acceptor Count>
7

>  <Hydrogen Bond Donor Count>
3

>  <Rotatable Bond Count>
7

>  <Topological Polar Surface Area>
99.61

>  <Molecular Formula>
C20H25N5O3

>  <InChI>
InChI=1S/C20H25N5O3/c26-17(10-25-6-5-14-3-1-2-4-15(14)9-25)8-21-20(27)18-7-19(23-13-22-18)24-16-11-28-12-16/h1-4,7,13,16-17,26H,5-6,8-12H2,(H,21,27)(H,22,23,24)/t17-/m0/s1

>  <InChI Key>
ZKXZLIFRWWKZRY-KRWDZBQOSA-N

>  <BindingDB>
177922

>  <PubChem>
90241673

>  <ChEMBL>
CHEMBL4060831

$$$$
257
Actelion Java MolfileCreator 2.0

  0  0  0  0  0  0              0 V3000
M  V30 BEGIN CTAB
M  V30 COUNTS 20 21 0 0 0
M  V30 BEGIN ATOM
M  V30 1 O 6.0621 0.0 0.0 0
M  V30 2 C 5.1961 -0.5 0.0 0
M  V30 3 N 4.3301 0.0 0.0 0
M  V30 4 C 5.1961 -1.4999 0.0 0
M  V30 5 N 3.4641 -0.5 0.0 0
M  V30 6 C 4.3301 -1.9999 0.0 0
M  V30 7 C 6.0621 -2.0 0.0 0
M  V30 8 C 2.598 0.0 0.0 0
M  V30 9 C 4.3301 -2.9999 0.0 0
M  V30 10 C 6.0621 -3.0 0.0 0
M  V30 11 C 1.732 -0.5 0.0 0
M  V30 12 C 5.1961 -3.5 0.0 0
M  V30 13 C 0.866 0.0 0.0 0
M  V30 14 C 5.1961 -4.5 0.0 0
M  V30 15 C 0.0 -0.5 0.0 0
M  V30 16 C 4.3301 -4.9999 0.0 0
M  V30 17 C 6.0621 -5.0 0.0 0
M  V30 18 C 4.3301 -5.9999 0.0 0
M  V30 19 C 6.0621 -6.0 0.0 0
M  V30 20 C 5.1961 -6.5 0.0 0
M  V30 END ATOM
M  V30 BEGIN BOND
M  V30 1 2 1 2
M  V30 2 1 2 3
M  V30 3 1 2 4
M  V30 4 1 3 5
M  V30 5 2 4 6
M  V30 6 1 4 7
M  V30 7 1 5 8
M  V30 8 1 6 9
M  V30 9 2 7 10
M  V30 10 1 8 11
M  V30 11 2 9 12
M  V30 12 1 11 13
M  V30 13 1 12 14
M  V30 14 1 13 15
M  V30 15 2 14 16
M  V30 16 1 14 17
M  V30 17 1 16 18
M  V30 18 2 17 19
M  V30 19 2 18 20
M  V30 20 1 10 12
M  V30 21 1 19 20
M  V30 END BOND
M  V30 END CTAB
M  END
>  <Molecule Name>
Compound 938

>  <Molecule Name 2>
Compound 938

>  <Compound ID>
257

>  <Name>
SR-3558

>  <Uniprot>
Q13547

>  <Target>
HDAC1

>  <Smiles>
CCCCNNC(=O)C1=CC=C(C2=CC=CC=C2)C=C1

>  <Kd (nM)>


>  <Assay (Kd)>


>  <Ki (nM)>


>  <Assay (Ki)>


>  <IC50 (nM)>
90

>  <Assay (IC50)>
IC50 was assessed by HDAC-Glot I/II Assays

>  <EC50 (nM)>


>  <Assay (EC50)>


>  <Article DOI>
10.1039/d0cc03243c

>  <Molecular Weight>
268.36

>  <Exact Mass>
268.1575633

>  <XLogP3>
3.84

>  <Heavy Atom Count>
20

>  <Ring Count>
2

>  <Hydrogen Bond Acceptor Count>
2

>  <Hydrogen Bond Donor Count>
2

>  <Rotatable Bond Count>
6

>  <Topological Polar Surface Area>
41.13

>  <Molecular Formula>
C17H20N2O

>  <InChI>
InChI=1S/C17H20N2O/c1-2-3-13-18-19-17(20)16-11-9-15(10-12-16)14-7-5-4-6-8-14/h4-12,18H,2-3,13H2,1H3,(H,19,20)

>  <InChI Key>
WRMLHFIPUNMIQC-UHFFFAOYSA-N

>  <BindingDB>


>  <PubChem>
118418386

>  <ChEMBL>


$$$$
257
Actelion Java MolfileCreator 2.0

  0  0  0  0  0  0              0 V3000
M  V30 BEGIN CTAB
M  V30 COUNTS 20 21 0 0 0
M  V30 BEGIN ATOM
M  V30 1 O 6.0621 0.0 0.0 0
M  V30 2 C 5.1961 -0.5 0.0 0
M  V30 3 N 4.3301 0.0 0.0 0
M  V30 4 C 5.1961 -1.4999 0.0 0
M  V30 5 N 3.4641 -0.5 0.0 0
M  V30 6 C 4.3301 -1.9999 0.0 0
M  V30 7 C 6.0621 -2.0 0.0 0
M  V30 8 C 2.598 0.0 0.0 0
M  V30 9 C 4.3301 -2.9999 0.0 0
M  V30 10 C 6.0621 -3.0 0.0 0
M  V30 11 C 1.732 -0.5 0.0 0
M  V30 12 C 5.1961 -3.5 0.0 0
M  V30 13 C 0.866 0.0 0.0 0
M  V30 14 C 5.1961 -4.5 0.0 0
M  V30 15 C 0.0 -0.5 0.0 0
M  V30 16 C 4.3301 -4.9999 0.0 0
M  V30 17 C 6.0621 -5.0 0.0 0
M  V30 18 C 4.3301 -5.9999 0.0 0
M  V30 19 C 6.0621 -6.0 0.0 0
M  V30 20 C 5.1961 -6.5 0.0 0
M  V30 END ATOM
M  V30 BEGIN BOND
M  V30 1 2 1 2
M  V30 2 1 2 3
M  V30 3 1 2 4
M  V30 4 1 3 5
M  V30 5 2 4 6
M  V30 6 1 4 7
M  V30 7 1 5 8
M  V30 8 1 6 9
M  V30 9 2 7 10
M  V30 10 1 8 11
M  V30 11 2 9 12
M  V30 12 1 11 13
M  V30 13 1 12 14
M  V30 14 1 13 15
M  V30 15 2 14 16
M  V30 16 1 14 17
M  V30 17 1 16 18
M  V30 18 2 17 19
M  V30 19 2 18 20
M  V30 20 1 10 12
M  V30 21 1 19 20
M  V30 END BOND
M  V30 END CTAB
M  END
>  <Molecule Name>
Compound 939

>  <Molecule Name 2>
Compound 939

>  <Compound ID>
257

>  <Name>
SR-3558

>  <Uniprot>
Q92769

>  <Target>
HDAC2

>  <Smiles>
CCCCNNC(=O)C1=CC=C(C2=CC=CC=C2)C=C1

>  <Kd (nM)>


>  <Assay (Kd)>


>  <Ki (nM)>


>  <Assay (Ki)>


>  <IC50 (nM)>
800

>  <Assay (IC50)>
IC50 was assessed by HDAC-Glot I/II Assays

>  <EC50 (nM)>


>  <Assay (EC50)>


>  <Article DOI>
10.1039/d0cc03243c

>  <Molecular Weight>
268.36

>  <Exact Mass>
268.1575633

>  <XLogP3>
3.84

>  <Heavy Atom Count>
20

>  <Ring Count>
2

>  <Hydrogen Bond Acceptor Count>
2

>  <Hydrogen Bond Donor Count>
2

>  <Rotatable Bond Count>
6

>  <Topological Polar Surface Area>
41.13

>  <Molecular Formula>
C17H20N2O

>  <InChI>
InChI=1S/C17H20N2O/c1-2-3-13-18-19-17(20)16-11-9-15(10-12-16)14-7-5-4-6-8-14/h4-12,18H,2-3,13H2,1H3,(H,19,20)

>  <InChI Key>
WRMLHFIPUNMIQC-UHFFFAOYSA-N

>  <BindingDB>


>  <PubChem>
118418386

>  <ChEMBL>


$$$$
257
Actelion Java MolfileCreator 2.0

  0  0  0  0  0  0              0 V3000
M  V30 BEGIN CTAB
M  V30 COUNTS 20 21 0 0 0
M  V30 BEGIN ATOM
M  V30 1 O 6.0621 0.0 0.0 0
M  V30 2 C 5.1961 -0.5 0.0 0
M  V30 3 N 4.3301 0.0 0.0 0
M  V30 4 C 5.1961 -1.4999 0.0 0
M  V30 5 N 3.4641 -0.5 0.0 0
M  V30 6 C 4.3301 -1.9999 0.0 0
M  V30 7 C 6.0621 -2.0 0.0 0
M  V30 8 C 2.598 0.0 0.0 0
M  V30 9 C 4.3301 -2.9999 0.0 0
M  V30 10 C 6.0621 -3.0 0.0 0
M  V30 11 C 1.732 -0.5 0.0 0
M  V30 12 C 5.1961 -3.5 0.0 0
M  V30 13 C 0.866 0.0 0.0 0
M  V30 14 C 5.1961 -4.5 0.0 0
M  V30 15 C 0.0 -0.5 0.0 0
M  V30 16 C 4.3301 -4.9999 0.0 0
M  V30 17 C 6.0621 -5.0 0.0 0
M  V30 18 C 4.3301 -5.9999 0.0 0
M  V30 19 C 6.0621 -6.0 0.0 0
M  V30 20 C 5.1961 -6.5 0.0 0
M  V30 END ATOM
M  V30 BEGIN BOND
M  V30 1 2 1 2
M  V30 2 1 2 3
M  V30 3 1 2 4
M  V30 4 1 3 5
M  V30 5 2 4 6
M  V30 6 1 4 7
M  V30 7 1 5 8
M  V30 8 1 6 9
M  V30 9 2 7 10
M  V30 10 1 8 11
M  V30 11 2 9 12
M  V30 12 1 11 13
M  V30 13 1 12 14
M  V30 14 1 13 15
M  V30 15 2 14 16
M  V30 16 1 14 17
M  V30 17 1 16 18
M  V30 18 2 17 19
M  V30 19 2 18 20
M  V30 20 1 10 12
M  V30 21 1 19 20
M  V30 END BOND
M  V30 END CTAB
M  END
>  <Molecule Name>
Compound 940

>  <Molecule Name 2>
Compound 940

>  <Compound ID>
257

>  <Name>
SR-3558

>  <Uniprot>
O15379

>  <Target>
HDAC3

>  <Smiles>
CCCCNNC(=O)C1=CC=C(C2=CC=CC=C2)C=C1

>  <Kd (nM)>


>  <Assay (Kd)>


>  <Ki (nM)>


>  <Assay (Ki)>


>  <IC50 (nM)>
60

>  <Assay (IC50)>
IC50 was assessed by HDAC-Glot I/II Assays

>  <EC50 (nM)>


>  <Assay (EC50)>


>  <Article DOI>
10.1039/d0cc03243c

>  <Molecular Weight>
268.36

>  <Exact Mass>
268.1575633

>  <XLogP3>
3.84

>  <Heavy Atom Count>
20

>  <Ring Count>
2

>  <Hydrogen Bond Acceptor Count>
2

>  <Hydrogen Bond Donor Count>
2

>  <Rotatable Bond Count>
6

>  <Topological Polar Surface Area>
41.13

>  <Molecular Formula>
C17H20N2O

>  <InChI>
InChI=1S/C17H20N2O/c1-2-3-13-18-19-17(20)16-11-9-15(10-12-16)14-7-5-4-6-8-14/h4-12,18H,2-3,13H2,1H3,(H,19,20)

>  <InChI Key>
WRMLHFIPUNMIQC-UHFFFAOYSA-N

>  <BindingDB>


>  <PubChem>
118418386

>  <ChEMBL>


$$$$
258
Actelion Java MolfileCreator 2.0

  0  0  0  0  0  0              0 V3000
M  V30 BEGIN CTAB
M  V30 COUNTS 36 40 0 0 0
M  V30 BEGIN ATOM
M  V30 1 O 0.866 0.9999 0.0 0
M  V30 2 C 1.732 1.5 0.0 0
M  V30 3 N 1.732 2.5 0.0 0
M  V30 4 C 2.598 1.0 0.0 0
M  V30 5 C 2.598 3.0 0.0 0 CFG=1
M  V30 6 C 2.598 0.0 0.0 0
M  V30 7 C 3.4641 1.4999 0.0 0
M  V30 8 C 2.598 4.0 0.0 0
M  V30 9 C 3.4641 2.5 0.0 0
M  V30 10 N 1.732 -0.5 0.0 0
M  V30 11 C 3.4641 -0.5 0.0 0
M  V30 12 N 4.3301 1.0 0.0 0
M  V30 13 C 3.4641 4.5 0.0 0
M  V30 14 C 4.3301 2.9999 0.0 0
M  V30 15 C 1.732 -1.5 0.0 0
M  V30 16 C 4.3301 0.0 0.0 0
M  V30 17 C 4.3301 3.9999 0.0 0 CFG=1
M  V30 18 C 2.598 -2.0 0.0 0
M  V30 19 C 0.866 -2.0 0.0 0
M  V30 20 N 5.1961 -0.5 0.0 0
M  V30 21 C 5.1961 4.4999 0.0 0
M  V30 22 C 5.3006 -1.4945 0.0 0
M  V30 23 C 6.1096 -0.0932 0.0 0
M  V30 24 O 6.0621 3.9999 0.0 0
M  V30 25 N 5.1961 5.5 0.0 0
M  V30 26 N 4.6315 -2.2376 0.0 0
M  V30 27 C 6.2788 -1.7024 0.0 0
M  V30 28 C 6.7788 -0.8364 0.0 0
M  V30 29 C 6.0621 5.9999 0.0 0
M  V30 30 C 4.9405 -3.1887 0.0 0
M  V30 31 C 6.5878 -2.6534 0.0 0
M  V30 32 C 6.5621 6.866 0.0 0
M  V30 33 C 7.0621 6.0 0.0 0
M  V30 34 C 5.9187 -3.3966 0.0 0
M  V30 35 C 6.2277 -4.3476 0.0 0
M  V30 36 N 6.5367 -5.2987 0.0 0
M  V30 END ATOM
M  V30 BEGIN BOND
M  V30 1 2 1 2
M  V30 2 1 2 3
M  V30 3 1 2 4
M  V30 4 1 5 3 CFG=1
M  V30 5 2 4 6
M  V30 6 1 4 7
M  V30 7 1 5 8
M  V30 8 1 5 9
M  V30 9 1 6 10
M  V30 10 1 6 11
M  V30 11 2 7 12
M  V30 12 1 8 13
M  V30 13 1 9 14
M  V30 14 1 10 15
M  V30 15 2 11 16
M  V30 16 1 17 13
M  V30 17 1 15 18
M  V30 18 1 15 19
M  V30 19 1 16 20
M  V30 20 1 17 21 CFG=3
M  V30 21 1 20 22
M  V30 22 1 20 23
M  V30 23 2 21 24
M  V30 24 1 21 25
M  V30 25 2 22 26
M  V30 26 1 22 27
M  V30 27 2 23 28
M  V30 28 1 25 29
M  V30 29 1 26 30
M  V30 30 2 27 31
M  V30 31 1 29 32
M  V30 32 1 29 33
M  V30 33 2 30 34
M  V30 34 1 34 35
M  V30 35 3 35 36
M  V30 36 1 12 16
M  V30 37 1 14 17
M  V30 38 1 27 28
M  V30 39 1 31 34
M  V30 40 1 32 33
M  V30 END BOND
M  V30 BEGIN COLLECTION
M  V30 MDLV30/STEABS ATOMS=(2 5 17)
M  V30 END COLLECTION
M  V30 END CTAB
M  END
>  <Molecule Name>
Compound 941

>  <Molecule Name 2>
Compound 941

>  <Compound ID>
258

>  <Name>


>  <Uniprot>
Q9NWZ3

>  <Target>
IRAK4

>  <Smiles>
CC(C)NC1=CC(N2C=CC3=CC(C#N)=CN=C32)=NC=C1C(=O)N[C@H]1CC[C@H](C(=O)NC2CC2)CC1

>  <Kd (nM)>


>  <Assay (Kd)>


>  <Ki (nM)>


>  <Assay (Ki)>


>  <IC50 (nM)>
3

>  <Assay (IC50)>
IC50 was assessed by Caliper biochemistry assay

>  <EC50 (nM)>


>  <Assay (EC50)>


>  <Article DOI>
10.1016/j.chembiol.2020.08.010

>  <Molecular Weight>
485.592

>  <Exact Mass>
485.2539232

>  <XLogP3>
3.62

>  <Heavy Atom Count>
36

>  <Ring Count>
5

>  <Hydrogen Bond Acceptor Count>
7

>  <Hydrogen Bond Donor Count>
3

>  <Rotatable Bond Count>
7

>  <Topological Polar Surface Area>
124.73

>  <Molecular Formula>
C27H31N7O2

>  <InChI>
InChI=1S/C27H31N7O2/c1-16(2)31-23-12-24(34-10-9-19-11-17(13-28)14-30-25(19)34)29-15-22(23)27(36)33-20-5-3-18(4-6-20)26(35)32-21-7-8-21/h9-12,14-16,18,20-21H,3-8H2,1-2H3,(H,29,31)(H,32,35)(H,33,36)/t18-,20-

>  <InChI Key>
QPYNPSIRCQLZNI-KESTWPANSA-N

>  <BindingDB>
187491

>  <PubChem>
118206508

>  <ChEMBL>
CHEMBL3926706

$$$$
259
Actelion Java MolfileCreator 2.0

  0  0  0  0  0  0              0 V3000
M  V30 BEGIN CTAB
M  V30 COUNTS 22 24 0 0 0
M  V30 BEGIN ATOM
M  V30 1 S 2.655 3.0877 0.0 0
M  V30 2 C 3.4641 2.5 0.0 0
M  V30 3 C 2.9641 4.0388 0.0 0
M  V30 4 N 4.2731 3.0877 0.0 0
M  V30 5 C 3.4641 1.5 0.0 0
M  V30 6 C 3.9641 4.0388 0.0 0
M  V30 7 C 2.3763 4.8478 0.0 0
M  V30 8 C 2.598 1.0 0.0 0
M  V30 9 C 4.3301 1.0 0.0 0
M  V30 10 O 4.5518 4.8478 0.0 0
M  V30 11 O 2.783 5.7614 0.0 0
M  V30 12 N 1.3817 4.7433 0.0 0
M  V30 13 C 2.598 0.0 0.0 0
M  V30 14 C 4.3301 0.0 0.0 0
M  V30 15 C 4.1451 5.7614 0.0 0
M  V30 16 N 3.4641 -0.4999 0.0 0
M  V30 17 N 1.732 -0.5 0.0 0
M  V30 18 C 0.866 0.0 0.0 0
M  V30 19 O 0.866 1.0 0.0 0
M  V30 20 C 0.0 -0.5 0.0 0
M  V30 21 C -1.0 -0.4999 0.0 0
M  V30 22 C -0.5 -1.366 0.0 0
M  V30 END ATOM
M  V30 BEGIN BOND
M  V30 1 1 1 2
M  V30 2 1 1 3
M  V30 3 2 2 4
M  V30 4 1 2 5
M  V30 5 2 3 6
M  V30 6 1 3 7
M  V30 7 2 5 8
M  V30 8 1 5 9
M  V30 9 1 6 10
M  V30 10 2 7 11
M  V30 11 1 7 12
M  V30 12 1 8 13
M  V30 13 2 9 14
M  V30 14 1 10 15
M  V30 15 2 13 16
M  V30 16 1 13 17
M  V30 17 1 17 18
M  V30 18 2 18 19
M  V30 19 1 18 20
M  V30 20 1 20 21
M  V30 21 1 20 22
M  V30 22 1 4 6
M  V30 23 1 14 16
M  V30 24 1 21 22
M  V30 END BOND
M  V30 END CTAB
M  END
>  <Molecule Name>
Compound 942

>  <Molecule Name 2>
Compound 942

>  <Compound ID>
259

>  <Name>


>  <Uniprot>
P49841

>  <Target>
GSK-3beta

>  <Smiles>
COC1=C(C(N)=O)SC(C2=CC=NC(NC(=O)C3CC3)=C2)=N1

>  <Kd (nM)>


>  <Assay (Kd)>


>  <Ki (nM)>


>  <Assay (Ki)>


>  <IC50 (nM)>
1.1

>  <Assay (IC50)>
IC50 was assessed by competitive binding assay

>  <EC50 (nM)>


>  <Assay (EC50)>


>  <Article DOI>
10.1016/j.bmcl.2015.03.046

>  <Molecular Weight>
318.358

>  <Exact Mass>
318.0786613

>  <XLogP3>
1.03

>  <Heavy Atom Count>
22

>  <Ring Count>
3

>  <Hydrogen Bond Acceptor Count>
6

>  <Hydrogen Bond Donor Count>
2

>  <Rotatable Bond Count>
5

>  <Topological Polar Surface Area>
107.2

>  <Molecular Formula>
C14H14N4O3S

>  <InChI>
InChI=1S/C14H14N4O3S/c1-21-13-10(11(15)19)22-14(18-13)8-4-5-16-9(6-8)17-12(20)7-2-3-7/h4-7H,2-3H2,1H3,(H2,15,19)(H,16,17,20)

>  <InChI Key>
CYADPSMQNARVII-UHFFFAOYSA-N

>  <BindingDB>
50074681

>  <PubChem>
73333976

>  <ChEMBL>
CHEMBL3410089

$$$$
260
Actelion Java MolfileCreator 2.0

  0  0  0  0  0  0              0 V3000
M  V30 BEGIN CTAB
M  V30 COUNTS 27 29 0 0 0
M  V30 BEGIN ATOM
M  V30 1 F 2.232 0.366 0.0 0
M  V30 2 C 1.732 -0.5 0.0 0
M  V30 3 F 2.598 -0.9999 0.0 0
M  V30 4 F 1.232 -1.366 0.0 0
M  V30 5 O 0.866 0.0 0.0 0
M  V30 6 C 0.0 -0.5 0.0 0
M  V30 7 C -0.866 0.0 0.0 0
M  V30 8 C 0.0 -1.4999 0.0 0
M  V30 9 C -1.732 -0.4999 0.0 0
M  V30 10 C -0.866 -1.9999 0.0 0
M  V30 11 C -1.732 -1.4999 0.0 0
M  V30 12 N -2.598 -1.9999 0.0 0
M  V30 13 C -2.598 -2.9999 0.0 0
M  V30 14 N -3.4641 -3.4999 0.0 0
M  V30 15 C -1.732 -3.4999 0.0 0
M  V30 16 C -3.4641 -4.4999 0.0 0
M  V30 17 C -1.732 -4.4999 0.0 0
M  V30 18 N -2.598 -4.9999 0.0 0
M  V30 19 C -0.866 -4.9999 0.0 0
M  V30 20 C -0.866 -5.9999 0.0 0
M  V30 21 C 0.0 -4.5 0.0 0
M  V30 22 C 0.0 -6.4999 0.0 0
M  V30 23 C 0.866 -5.0 0.0 0
M  V30 24 C 0.0 -7.5 0.0 0
M  V30 25 C 0.866 -6.0 0.0 0
M  V30 26 O -0.866 -7.9999 0.0 0
M  V30 27 N 0.866 -8.0 0.0 0
M  V30 END ATOM
M  V30 BEGIN BOND
M  V30 1 1 1 2
M  V30 2 1 2 3
M  V30 3 1 2 4
M  V30 4 1 2 5
M  V30 5 1 5 6
M  V30 6 2 6 7
M  V30 7 1 6 8
M  V30 8 1 7 9
M  V30 9 2 8 10
M  V30 10 2 9 11
M  V30 11 1 11 12
M  V30 12 1 12 13
M  V30 13 2 13 14
M  V30 14 1 13 15
M  V30 15 1 14 16
M  V30 16 2 15 17
M  V30 17 2 16 18
M  V30 18 1 17 19
M  V30 19 2 19 20
M  V30 20 1 19 21
M  V30 21 1 20 22
M  V30 22 2 21 23
M  V30 23 1 22 24
M  V30 24 2 22 25
M  V30 25 2 24 26
M  V30 26 1 24 27
M  V30 27 1 10 11
M  V30 28 1 17 18
M  V30 29 1 23 25
M  V30 END BOND
M  V30 END CTAB
M  END
>  <Molecule Name>
Compound 943

>  <Molecule Name 2>
Compound 943

>  <Compound ID>
260

>  <Name>
GNF-2

>  <Uniprot>
P00519

>  <Target>
ABL1

>  <Smiles>
NC(=O)C1=CC=CC(C2=CC(NC3=CC=C(OC(F)(F)F)C=C3)=NC=N2)=C1

>  <Kd (nM)>


>  <Assay (Kd)>


>  <Ki (nM)>


>  <Assay (Ki)>


>  <IC50 (nM)>
9

>  <Assay (IC50)>
Inhibition of recombinant human c-ABL SH3/SH2/SH1 domain

>  <EC50 (nM)>


>  <Assay (EC50)>


>  <Article DOI>
10.1021/acs.jmedchem.8b01040

>  <Molecular Weight>
374.322

>  <Exact Mass>
374.0990603

>  <XLogP3>
3.8

>  <Heavy Atom Count>
27

>  <Ring Count>
3

>  <Hydrogen Bond Acceptor Count>
5

>  <Hydrogen Bond Donor Count>
2

>  <Rotatable Bond Count>
5

>  <Topological Polar Surface Area>
90.13

>  <Molecular Formula>
C18H13F3N4O2

>  <InChI>
InChI=1S/C18H13F3N4O2/c19-18(20,21)27-14-6-4-13(5-7-14)25-16-9-15(23-10-24-16)11-2-1-3-12(8-11)17(22)26/h1-10H,(H2,22,26)(H,23,24,25)

>  <InChI Key>
WEVYNIUIFUYDGI-UHFFFAOYSA-N

>  <BindingDB>
50325999

>  <PubChem>
5311510

>  <ChEMBL>
CHEMBL483847

$$$$
261
Actelion Java MolfileCreator 2.0

  0  0  0  0  0  0              0 V3000
M  V30 BEGIN CTAB
M  V30 COUNTS 25 27 0 0 0
M  V30 BEGIN ATOM
M  V30 1 S 4.3301 -1.9999 0.0 0
M  V30 2 O 3.8301 -2.866 0.0 0
M  V30 3 O 4.8301 -1.1339 0.0 0
M  V30 4 N 5.1961 -2.5 0.0 0
M  V30 5 C 3.4641 -1.4999 0.0 0
M  V30 6 C 3.4641 -0.5 0.0 0
M  V30 7 C 2.598 -1.9999 0.0 0
M  V30 8 C 2.598 0.0 0.0 0
M  V30 9 C 1.732 -1.5 0.0 0
M  V30 10 C 1.732 -0.5 0.0 0
M  V30 11 N 0.866 0.0 0.0 0
M  V30 12 C 0.0 -0.5 0.0 0
M  V30 13 N -0.9135 -0.0932 0.0 0
M  V30 14 N -0.1045 -1.4945 0.0 0
M  V30 15 N -1.5826 -0.8364 0.0 0
M  V30 16 C -1.0826 -1.7024 0.0 0
M  V30 17 C -2.5771 -0.7318 0.0 0
M  V30 18 N -1.4894 -2.6159 0.0 0
M  V30 19 O -3.1649 -1.5408 0.0 0
M  V30 20 C -2.9839 0.1816 0.0 0
M  V30 21 S -3.962 0.3895 0.0 0
M  V30 22 C -2.4839 1.0476 0.0 0
M  V30 23 C -4.0666 1.384 0.0 0
M  V30 24 C -3.153 1.7908 0.0 0
M  V30 25 C -1.4894 1.1522 0.0 0
M  V30 END ATOM
M  V30 BEGIN BOND
M  V30 1 2 1 2
M  V30 2 2 1 3
M  V30 3 1 1 4
M  V30 4 1 1 5
M  V30 5 2 5 6
M  V30 6 1 5 7
M  V30 7 1 6 8
M  V30 8 2 7 9
M  V30 9 2 8 10
M  V30 10 1 10 11
M  V30 11 1 11 12
M  V30 12 2 12 13
M  V30 13 1 12 14
M  V30 14 1 13 15
M  V30 15 2 14 16
M  V30 16 1 15 17
M  V30 17 1 16 18
M  V30 18 2 17 19
M  V30 19 1 17 20
M  V30 20 1 20 21
M  V30 21 2 20 22
M  V30 22 1 21 23
M  V30 23 1 22 24
M  V30 24 1 22 25
M  V30 25 1 9 10
M  V30 26 1 15 16
M  V30 27 2 23 24
M  V30 END BOND
M  V30 END CTAB
M  END
>  <Molecule Name>
Compound 944

>  <Molecule Name 2>
Compound 944

>  <Compound ID>
261

>  <Name>
J2

>  <Uniprot>
P24941

>  <Target>
CDK2

>  <Smiles>
CC1=C(C(=O)N2N=C(NC3=CC=C(S(N)(=O)=O)C=C3)N=C2N)SC=C1

>  <Kd (nM)>


>  <Assay (Kd)>


>  <Ki (nM)>


>  <Assay (Ki)>


>  <IC50 (nM)>
0.4

>  <Assay (IC50)>
IC50 was assessed by RET Kinase Enzymatic Assay

>  <EC50 (nM)>


>  <Assay (EC50)>


>  <Article DOI>
10.1021/jm050267e

>  <Molecular Weight>
378.439

>  <Exact Mass>
378.0568803

>  <XLogP3>
2.57

>  <Heavy Atom Count>
25

>  <Ring Count>
3

>  <Hydrogen Bond Acceptor Count>
9

>  <Hydrogen Bond Donor Count>
3

>  <Rotatable Bond Count>
4

>  <Topological Polar Surface Area>
145.99

>  <Molecular Formula>
C14H14N6O3S2

>  <InChI>
InChI=1S/C14H14N6O3S2/c1-8-6-7-24-11(8)12(21)20-13(15)18-14(19-20)17-9-2-4-10(5-3-9)25(16,22)23/h2-7H,1H3,(H2,16,22,23)(H3,15,17,18,19)

>  <InChI Key>
KQWTXAWKBUUOMU-UHFFFAOYSA-N

>  <BindingDB>
6870

>  <PubChem>
5330804

>  <ChEMBL>
CHEMBL363130

$$$$
262
Actelion Java MolfileCreator 2.0

  0  0  0  0  0  0              0 V3000
M  V30 BEGIN CTAB
M  V30 COUNTS 36 40 0 0 0
M  V30 BEGIN ATOM
M  V30 1 O 2.598 0.0 0.0 0
M  V30 2 C 1.732 -0.5 0.0 0
M  V30 3 N 0.866 0.0 0.0 0
M  V30 4 C 1.732 -1.5 0.0 0
M  V30 5 C 0.0 -0.5 0.0 0
M  V30 6 C 0.866 -1.9999 0.0 0
M  V30 7 C 2.598 -1.9999 0.0 0
M  V30 8 C -0.866 0.0 0.0 0
M  V30 9 C 0.0 -1.4999 0.0 0
M  V30 10 N 0.866 -2.9999 0.0 0
M  V30 11 N 2.598 -2.9999 0.0 0
M  V30 12 C -1.732 -0.4999 0.0 0
M  V30 13 C -0.866 -1.9999 0.0 0
M  V30 14 C 1.732 -3.4999 0.0 0
M  V30 15 C -1.732 -1.4999 0.0 0
M  V30 16 O 1.732 -4.5 0.0 0
M  V30 17 N -2.598 -1.9999 0.0 0
M  V30 18 C 2.598 -4.9999 0.0 0
M  V30 19 C -3.4641 -1.4999 0.0 0
M  V30 20 C -2.598 -2.9999 0.0 0
M  V30 21 C 2.598 -5.9999 0.0 0
M  V30 22 C 3.4641 -4.5 0.0 0
M  V30 23 C -4.3301 -1.9999 0.0 0
M  V30 24 C -3.4641 -3.4999 0.0 0
M  V30 25 C 3.4641 -6.4999 0.0 0
M  V30 26 C 4.3301 -5.0 0.0 0
M  V30 27 C -4.3301 -2.9999 0.0 0
M  V30 28 C 4.3301 -5.9999 0.0 0
M  V30 29 C -5.1961 -3.4999 0.0 0
M  V30 30 O -6.0621 -2.9999 0.0 0
M  V30 31 N -5.1961 -4.4999 0.0 0
M  V30 32 C -6.0621 -4.9999 0.0 0
M  V30 33 C -4.3301 -4.9999 0.0 0
M  V30 34 C -6.0621 -5.9999 0.0 0
M  V30 35 C -4.3301 -5.9999 0.0 0
M  V30 36 O -5.1961 -6.4999 0.0 0
M  V30 END ATOM
M  V30 BEGIN BOND
M  V30 1 2 1 2
M  V30 2 1 2 3
M  V30 3 1 2 4
M  V30 4 1 3 5
M  V30 5 2 4 6
M  V30 6 1 4 7
M  V30 7 2 5 8
M  V30 8 1 5 9
M  V30 9 1 6 10
M  V30 10 2 7 11
M  V30 11 1 8 12
M  V30 12 2 9 13
M  V30 13 2 10 14
M  V30 14 2 12 15
M  V30 15 1 14 16
M  V30 16 1 15 17
M  V30 17 1 16 18
M  V30 18 1 17 19
M  V30 19 1 17 20
M  V30 20 2 18 21
M  V30 21 1 18 22
M  V30 22 1 19 23
M  V30 23 1 20 24
M  V30 24 1 21 25
M  V30 25 2 22 26
M  V30 26 1 23 27
M  V30 27 2 25 28
M  V30 28 1 27 29
M  V30 29 2 29 30
M  V30 30 1 29 31
M  V30 31 1 31 32
M  V30 32 1 31 33
M  V30 33 1 32 34
M  V30 34 1 33 35
M  V30 35 1 34 36
M  V30 36 1 11 14
M  V30 37 1 13 15
M  V30 38 1 24 27
M  V30 39 1 26 28
M  V30 40 1 35 36
M  V30 END BOND
M  V30 END CTAB
M  END
>  <Molecule Name>
Compound 945

>  <Molecule Name 2>
Compound 945

>  <Compound ID>
262

>  <Name>
TFC-007

>  <Uniprot>
O60760

>  <Target>
HPGDS

>  <Smiles>
O=C(NC1=CC=C(N2CCC(C(=O)N3CCOCC3)CC2)C=C1)C1=CN=C(OC2=CC=CC=C2)N=C1

>  <Kd (nM)>
0.37

>  <Assay (Kd)>
SPR

>  <Ki (nM)>


>  <Assay (Ki)>


>  <IC50 (nM)>


>  <Assay (IC50)>


>  <EC50 (nM)>


>  <Assay (EC50)>


>  <Article DOI>
10.1016/j.bmc.2018.08.014

>  <Molecular Weight>
487.56

>  <Exact Mass>
487.2219544

>  <XLogP3>
2.6

>  <Heavy Atom Count>
36

>  <Ring Count>
5

>  <Hydrogen Bond Acceptor Count>
7

>  <Hydrogen Bond Donor Count>
1

>  <Rotatable Bond Count>
6

>  <Topological Polar Surface Area>
96.89

>  <Molecular Formula>
C27H29N5O4

>  <InChI>
InChI=1S/C27H29N5O4/c33-25(21-18-28-27(29-19-21)36-24-4-2-1-3-5-24)30-22-6-8-23(9-7-22)31-12-10-20(11-13-31)26(34)32-14-16-35-17-15-32/h1-9,18-20H,10-17H2,(H,30,33)

>  <InChI Key>
NLSSUSRERAMBTA-UHFFFAOYSA-N

>  <BindingDB>
50463722

>  <PubChem>
16040067

>  <ChEMBL>
CHEMBL4238186

$$$$
263
Actelion Java MolfileCreator 2.0

  0  0  0  0  0  0              0 V3000
M  V30 BEGIN CTAB
M  V30 COUNTS 29 33 0 0 0
M  V30 BEGIN ATOM
M  V30 1 O 5.8443 -2.6828 0.0 0
M  V30 2 C 5.2208 -1.9009 0.0 0
M  V30 3 N 4.2459 -2.1234 0.0 0
M  V30 4 N 5.6547 -1.0 0.0 0
M  V30 5 C 3.4641 -1.4999 0.0 0
M  V30 6 C 5.2208 -0.099 0.0 0
M  V30 7 C 3.4641 -0.5 0.0 0
M  V30 8 C 2.598 -1.9999 0.0 0
M  V30 9 C 4.2459 0.1234 0.0 0
M  V30 10 C 5.901 0.634 0.0 0
M  V30 11 N 2.598 0.0 0.0 0
M  V30 12 N 1.732 -1.5 0.0 0
M  V30 13 C 3.9511 1.079 0.0 0
M  V30 14 C 5.6062 1.5895 0.0 0
M  V30 15 C 1.732 -0.5 0.0 0
M  V30 16 C 4.6313 1.8121 0.0 0
M  V30 17 N 0.866 0.0 0.0 0
M  V30 18 C 0.0 -0.5 0.0 0
M  V30 19 C -0.866 0.0 0.0 0
M  V30 20 C 0.0 -1.4999 0.0 0
M  V30 21 C -1.732 -0.4999 0.0 0
M  V30 22 C -0.866 -1.9999 0.0 0
M  V30 23 C -1.732 -1.4999 0.0 0
M  V30 24 N -2.598 -1.9999 0.0 0
M  V30 25 C -3.4641 -1.4999 0.0 0
M  V30 26 C -2.598 -2.9999 0.0 0
M  V30 27 C -4.3301 -1.9999 0.0 0
M  V30 28 C -3.4641 -3.4999 0.0 0
M  V30 29 N -4.3301 -2.9999 0.0 0
M  V30 END ATOM
M  V30 BEGIN BOND
M  V30 1 2 1 2
M  V30 2 1 2 3
M  V30 3 1 2 4
M  V30 4 1 3 5
M  V30 5 1 4 6
M  V30 6 2 5 7
M  V30 7 1 5 8
M  V30 8 2 6 9
M  V30 9 1 6 10
M  V30 10 1 7 11
M  V30 11 2 8 12
M  V30 12 1 9 13
M  V30 13 2 10 14
M  V30 14 2 11 15
M  V30 15 2 13 16
M  V30 16 1 15 17
M  V30 17 1 17 18
M  V30 18 2 18 19
M  V30 19 1 18 20
M  V30 20 1 19 21
M  V30 21 2 20 22
M  V30 22 2 21 23
M  V30 23 1 23 24
M  V30 24 1 24 25
M  V30 25 1 24 26
M  V30 26 1 25 27
M  V30 27 1 26 28
M  V30 28 1 27 29
M  V30 29 1 7 9
M  V30 30 1 12 15
M  V30 31 1 14 16
M  V30 32 1 22 23
M  V30 33 1 28 29
M  V30 END BOND
M  V30 END CTAB
M  END
>  <Molecule Name>
Compound 946

>  <Molecule Name 2>
Compound 946

>  <Compound ID>
263

>  <Name>


>  <Uniprot>
P42684

>  <Target>
ABL2

>  <Smiles>
O=C1NC2=CC=CC=C2C2=NC(NC3=CC=C(N4CCNCC4)C=C3)=NC=C2N1

>  <Kd (nM)>


>  <Assay (Kd)>


>  <Ki (nM)>


>  <Assay (Ki)>


>  <IC50 (nM)>


>  <Assay (IC50)>


>  <EC50 (nM)>


>  <Assay (EC50)>


>  <Article DOI>
10.1016/j.cell.2020.10.038

>  <Molecular Weight>
387.447

>  <Exact Mass>
387.1807583

>  <XLogP3>
1.85

>  <Heavy Atom Count>
29

>  <Ring Count>
5

>  <Hydrogen Bond Acceptor Count>
6

>  <Hydrogen Bond Donor Count>
4

>  <Rotatable Bond Count>
3

>  <Topological Polar Surface Area>
94.21

>  <Molecular Formula>
C21H21N7O

>  <InChI>
InChI=1S/C21H21N7O/c29-21-25-17-4-2-1-3-16(17)19-18(26-21)13-23-20(27-19)24-14-5-7-15(8-6-14)28-11-9-22-10-12-28/h1-8,13,22H,9-12H2,(H,23,24,27)(H2,25,26,29)

>  <InChI Key>
QUPDTXBHSASKEK-UHFFFAOYSA-N

>  <BindingDB>


>  <PubChem>
118684114

>  <ChEMBL>


$$$$
263
Actelion Java MolfileCreator 2.0

  0  0  0  0  0  0              0 V3000
M  V30 BEGIN CTAB
M  V30 COUNTS 29 33 0 0 0
M  V30 BEGIN ATOM
M  V30 1 O 5.8443 -2.6828 0.0 0
M  V30 2 C 5.2208 -1.9009 0.0 0
M  V30 3 N 4.2459 -2.1234 0.0 0
M  V30 4 N 5.6547 -1.0 0.0 0
M  V30 5 C 3.4641 -1.4999 0.0 0
M  V30 6 C 5.2208 -0.099 0.0 0
M  V30 7 C 3.4641 -0.5 0.0 0
M  V30 8 C 2.598 -1.9999 0.0 0
M  V30 9 C 4.2459 0.1234 0.0 0
M  V30 10 C 5.901 0.634 0.0 0
M  V30 11 N 2.598 0.0 0.0 0
M  V30 12 N 1.732 -1.5 0.0 0
M  V30 13 C 3.9511 1.079 0.0 0
M  V30 14 C 5.6062 1.5895 0.0 0
M  V30 15 C 1.732 -0.5 0.0 0
M  V30 16 C 4.6313 1.8121 0.0 0
M  V30 17 N 0.866 0.0 0.0 0
M  V30 18 C 0.0 -0.5 0.0 0
M  V30 19 C -0.866 0.0 0.0 0
M  V30 20 C 0.0 -1.4999 0.0 0
M  V30 21 C -1.732 -0.4999 0.0 0
M  V30 22 C -0.866 -1.9999 0.0 0
M  V30 23 C -1.732 -1.4999 0.0 0
M  V30 24 N -2.598 -1.9999 0.0 0
M  V30 25 C -3.4641 -1.4999 0.0 0
M  V30 26 C -2.598 -2.9999 0.0 0
M  V30 27 C -4.3301 -1.9999 0.0 0
M  V30 28 C -3.4641 -3.4999 0.0 0
M  V30 29 N -4.3301 -2.9999 0.0 0
M  V30 END ATOM
M  V30 BEGIN BOND
M  V30 1 2 1 2
M  V30 2 1 2 3
M  V30 3 1 2 4
M  V30 4 1 3 5
M  V30 5 1 4 6
M  V30 6 2 5 7
M  V30 7 1 5 8
M  V30 8 2 6 9
M  V30 9 1 6 10
M  V30 10 1 7 11
M  V30 11 2 8 12
M  V30 12 1 9 13
M  V30 13 2 10 14
M  V30 14 2 11 15
M  V30 15 2 13 16
M  V30 16 1 15 17
M  V30 17 1 17 18
M  V30 18 2 18 19
M  V30 19 1 18 20
M  V30 20 1 19 21
M  V30 21 2 20 22
M  V30 22 2 21 23
M  V30 23 1 23 24
M  V30 24 1 24 25
M  V30 25 1 24 26
M  V30 26 1 25 27
M  V30 27 1 26 28
M  V30 28 1 27 29
M  V30 29 1 7 9
M  V30 30 1 12 15
M  V30 31 1 14 16
M  V30 32 1 22 23
M  V30 33 1 28 29
M  V30 END BOND
M  V30 END CTAB
M  END
>  <Molecule Name>
Compound 947

>  <Molecule Name 2>
Compound 947

>  <Compound ID>
263

>  <Name>


>  <Uniprot>
P29323

>  <Target>
EPHB2

>  <Smiles>
O=C1NC2=CC=CC=C2C2=NC(NC3=CC=C(N4CCNCC4)C=C3)=NC=C2N1

>  <Kd (nM)>


>  <Assay (Kd)>


>  <Ki (nM)>


>  <Assay (Ki)>


>  <IC50 (nM)>


>  <Assay (IC50)>


>  <EC50 (nM)>


>  <Assay (EC50)>


>  <Article DOI>
10.1016/j.cell.2020.10.038

>  <Molecular Weight>
387.447

>  <Exact Mass>
387.1807583

>  <XLogP3>
1.85

>  <Heavy Atom Count>
29

>  <Ring Count>
5

>  <Hydrogen Bond Acceptor Count>
6

>  <Hydrogen Bond Donor Count>
4

>  <Rotatable Bond Count>
3

>  <Topological Polar Surface Area>
94.21

>  <Molecular Formula>
C21H21N7O

>  <InChI>
InChI=1S/C21H21N7O/c29-21-25-17-4-2-1-3-16(17)19-18(26-21)13-23-20(27-19)24-14-5-7-15(8-6-14)28-11-9-22-10-12-28/h1-8,13,22H,9-12H2,(H,23,24,27)(H2,25,26,29)

>  <InChI Key>
QUPDTXBHSASKEK-UHFFFAOYSA-N

>  <BindingDB>


>  <PubChem>
118684114

>  <ChEMBL>


$$$$
263
Actelion Java MolfileCreator 2.0

  0  0  0  0  0  0              0 V3000
M  V30 BEGIN CTAB
M  V30 COUNTS 29 33 0 0 0
M  V30 BEGIN ATOM
M  V30 1 O 5.8443 -2.6828 0.0 0
M  V30 2 C 5.2208 -1.9009 0.0 0
M  V30 3 N 4.2459 -2.1234 0.0 0
M  V30 4 N 5.6547 -1.0 0.0 0
M  V30 5 C 3.4641 -1.4999 0.0 0
M  V30 6 C 5.2208 -0.099 0.0 0
M  V30 7 C 3.4641 -0.5 0.0 0
M  V30 8 C 2.598 -1.9999 0.0 0
M  V30 9 C 4.2459 0.1234 0.0 0
M  V30 10 C 5.901 0.634 0.0 0
M  V30 11 N 2.598 0.0 0.0 0
M  V30 12 N 1.732 -1.5 0.0 0
M  V30 13 C 3.9511 1.079 0.0 0
M  V30 14 C 5.6062 1.5895 0.0 0
M  V30 15 C 1.732 -0.5 0.0 0
M  V30 16 C 4.6313 1.8121 0.0 0
M  V30 17 N 0.866 0.0 0.0 0
M  V30 18 C 0.0 -0.5 0.0 0
M  V30 19 C -0.866 0.0 0.0 0
M  V30 20 C 0.0 -1.4999 0.0 0
M  V30 21 C -1.732 -0.4999 0.0 0
M  V30 22 C -0.866 -1.9999 0.0 0
M  V30 23 C -1.732 -1.4999 0.0 0
M  V30 24 N -2.598 -1.9999 0.0 0
M  V30 25 C -3.4641 -1.4999 0.0 0
M  V30 26 C -2.598 -2.9999 0.0 0
M  V30 27 C -4.3301 -1.9999 0.0 0
M  V30 28 C -3.4641 -3.4999 0.0 0
M  V30 29 N -4.3301 -2.9999 0.0 0
M  V30 END ATOM
M  V30 BEGIN BOND
M  V30 1 2 1 2
M  V30 2 1 2 3
M  V30 3 1 2 4
M  V30 4 1 3 5
M  V30 5 1 4 6
M  V30 6 2 5 7
M  V30 7 1 5 8
M  V30 8 2 6 9
M  V30 9 1 6 10
M  V30 10 1 7 11
M  V30 11 2 8 12
M  V30 12 1 9 13
M  V30 13 2 10 14
M  V30 14 2 11 15
M  V30 15 2 13 16
M  V30 16 1 15 17
M  V30 17 1 17 18
M  V30 18 2 18 19
M  V30 19 1 18 20
M  V30 20 1 19 21
M  V30 21 2 20 22
M  V30 22 2 21 23
M  V30 23 1 23 24
M  V30 24 1 24 25
M  V30 25 1 24 26
M  V30 26 1 25 27
M  V30 27 1 26 28
M  V30 28 1 27 29
M  V30 29 1 7 9
M  V30 30 1 12 15
M  V30 31 1 14 16
M  V30 32 1 22 23
M  V30 33 1 28 29
M  V30 END BOND
M  V30 END CTAB
M  END
>  <Molecule Name>
Compound 948

>  <Molecule Name 2>
Compound 948

>  <Compound ID>
263

>  <Name>


>  <Uniprot>
Q9H0K1

>  <Target>
SIK2

>  <Smiles>
O=C1NC2=CC=CC=C2C2=NC(NC3=CC=C(N4CCNCC4)C=C3)=NC=C2N1

>  <Kd (nM)>


>  <Assay (Kd)>


>  <Ki (nM)>


>  <Assay (Ki)>


>  <IC50 (nM)>


>  <Assay (IC50)>


>  <EC50 (nM)>


>  <Assay (EC50)>


>  <Article DOI>
10.1016/j.cell.2020.10.038

>  <Molecular Weight>
387.447

>  <Exact Mass>
387.1807583

>  <XLogP3>
1.85

>  <Heavy Atom Count>
29

>  <Ring Count>
5

>  <Hydrogen Bond Acceptor Count>
6

>  <Hydrogen Bond Donor Count>
4

>  <Rotatable Bond Count>
3

>  <Topological Polar Surface Area>
94.21

>  <Molecular Formula>
C21H21N7O

>  <InChI>
InChI=1S/C21H21N7O/c29-21-25-17-4-2-1-3-16(17)19-18(26-21)13-23-20(27-19)24-14-5-7-15(8-6-14)28-11-9-22-10-12-28/h1-8,13,22H,9-12H2,(H,23,24,27)(H2,25,26,29)

>  <InChI Key>
QUPDTXBHSASKEK-UHFFFAOYSA-N

>  <BindingDB>


>  <PubChem>
118684114

>  <ChEMBL>


$$$$
263
Actelion Java MolfileCreator 2.0

  0  0  0  0  0  0              0 V3000
M  V30 BEGIN CTAB
M  V30 COUNTS 29 33 0 0 0
M  V30 BEGIN ATOM
M  V30 1 O 5.8443 -2.6828 0.0 0
M  V30 2 C 5.2208 -1.9009 0.0 0
M  V30 3 N 4.2459 -2.1234 0.0 0
M  V30 4 N 5.6547 -1.0 0.0 0
M  V30 5 C 3.4641 -1.4999 0.0 0
M  V30 6 C 5.2208 -0.099 0.0 0
M  V30 7 C 3.4641 -0.5 0.0 0
M  V30 8 C 2.598 -1.9999 0.0 0
M  V30 9 C 4.2459 0.1234 0.0 0
M  V30 10 C 5.901 0.634 0.0 0
M  V30 11 N 2.598 0.0 0.0 0
M  V30 12 N 1.732 -1.5 0.0 0
M  V30 13 C 3.9511 1.079 0.0 0
M  V30 14 C 5.6062 1.5895 0.0 0
M  V30 15 C 1.732 -0.5 0.0 0
M  V30 16 C 4.6313 1.8121 0.0 0
M  V30 17 N 0.866 0.0 0.0 0
M  V30 18 C 0.0 -0.5 0.0 0
M  V30 19 C -0.866 0.0 0.0 0
M  V30 20 C 0.0 -1.4999 0.0 0
M  V30 21 C -1.732 -0.4999 0.0 0
M  V30 22 C -0.866 -1.9999 0.0 0
M  V30 23 C -1.732 -1.4999 0.0 0
M  V30 24 N -2.598 -1.9999 0.0 0
M  V30 25 C -3.4641 -1.4999 0.0 0
M  V30 26 C -2.598 -2.9999 0.0 0
M  V30 27 C -4.3301 -1.9999 0.0 0
M  V30 28 C -3.4641 -3.4999 0.0 0
M  V30 29 N -4.3301 -2.9999 0.0 0
M  V30 END ATOM
M  V30 BEGIN BOND
M  V30 1 2 1 2
M  V30 2 1 2 3
M  V30 3 1 2 4
M  V30 4 1 3 5
M  V30 5 1 4 6
M  V30 6 2 5 7
M  V30 7 1 5 8
M  V30 8 2 6 9
M  V30 9 1 6 10
M  V30 10 1 7 11
M  V30 11 2 8 12
M  V30 12 1 9 13
M  V30 13 2 10 14
M  V30 14 2 11 15
M  V30 15 2 13 16
M  V30 16 1 15 17
M  V30 17 1 17 18
M  V30 18 2 18 19
M  V30 19 1 18 20
M  V30 20 1 19 21
M  V30 21 2 20 22
M  V30 22 2 21 23
M  V30 23 1 23 24
M  V30 24 1 24 25
M  V30 25 1 24 26
M  V30 26 1 25 27
M  V30 27 1 26 28
M  V30 28 1 27 29
M  V30 29 1 7 9
M  V30 30 1 12 15
M  V30 31 1 14 16
M  V30 32 1 22 23
M  V30 33 1 28 29
M  V30 END BOND
M  V30 END CTAB
M  END
>  <Molecule Name>
Compound 949

>  <Molecule Name 2>
Compound 949

>  <Compound ID>
263

>  <Name>


>  <Uniprot>
P29597

>  <Target>
TYK2

>  <Smiles>
O=C1NC2=CC=CC=C2C2=NC(NC3=CC=C(N4CCNCC4)C=C3)=NC=C2N1

>  <Kd (nM)>


>  <Assay (Kd)>


>  <Ki (nM)>


>  <Assay (Ki)>


>  <IC50 (nM)>


>  <Assay (IC50)>


>  <EC50 (nM)>


>  <Assay (EC50)>


>  <Article DOI>
10.1016/j.cell.2020.10.038

>  <Molecular Weight>
387.447

>  <Exact Mass>
387.1807583

>  <XLogP3>
1.85

>  <Heavy Atom Count>
29

>  <Ring Count>
5

>  <Hydrogen Bond Acceptor Count>
6

>  <Hydrogen Bond Donor Count>
4

>  <Rotatable Bond Count>
3

>  <Topological Polar Surface Area>
94.21

>  <Molecular Formula>
C21H21N7O

>  <InChI>
InChI=1S/C21H21N7O/c29-21-25-17-4-2-1-3-16(17)19-18(26-21)13-23-20(27-19)24-14-5-7-15(8-6-14)28-11-9-22-10-12-28/h1-8,13,22H,9-12H2,(H,23,24,27)(H2,25,26,29)

>  <InChI Key>
QUPDTXBHSASKEK-UHFFFAOYSA-N

>  <BindingDB>


>  <PubChem>
118684114

>  <ChEMBL>


$$$$
264
Actelion Java MolfileCreator 2.0

  0  0  0  0  0  0              0 V3000
M  V30 BEGIN CTAB
M  V30 COUNTS 19 19 0 0 0
M  V30 BEGIN ATOM
M  V30 1 O 7.7942 1.0 0.0 0
M  V30 2 C 7.7942 0.0 0.0 0
M  V30 3 N 8.6602 -0.5 0.0 0
M  V30 4 C 6.9282 -0.5 0.0 0
M  V30 5 O 9.5262 0.0 0.0 0
M  V30 6 C 6.0621 0.0 0.0 0
M  V30 7 C 5.1961 -0.5 0.0 0
M  V30 8 C 4.3301 0.0 0.0 0
M  V30 9 C 3.4641 -0.5 0.0 0
M  V30 10 C 2.598 0.0 0.0 0
M  V30 11 C 1.732 -0.5 0.0 0
M  V30 12 O 1.732 -1.5 0.0 0
M  V30 13 N 0.866 0.0 0.0 0
M  V30 14 C 0.0 -0.5 0.0 0
M  V30 15 C -0.866 0.0 0.0 0
M  V30 16 C 0.0 -1.4999 0.0 0
M  V30 17 C -1.732 -0.4999 0.0 0
M  V30 18 C -0.866 -1.9999 0.0 0
M  V30 19 C -1.732 -1.4999 0.0 0
M  V30 END ATOM
M  V30 BEGIN BOND
M  V30 1 2 1 2
M  V30 2 1 2 3
M  V30 3 1 2 4
M  V30 4 1 3 5
M  V30 5 1 4 6
M  V30 6 1 6 7
M  V30 7 1 7 8
M  V30 8 1 8 9
M  V30 9 1 9 10
M  V30 10 1 10 11
M  V30 11 2 11 12
M  V30 12 1 11 13
M  V30 13 1 13 14
M  V30 14 2 14 15
M  V30 15 1 14 16
M  V30 16 1 15 17
M  V30 17 2 16 18
M  V30 18 2 17 19
M  V30 19 1 18 19
M  V30 END BOND
M  V30 END CTAB
M  END
>  <Molecule Name>
Compound 950

>  <Molecule Name 2>
Compound 950

>  <Compound ID>
264

>  <Name>
Vorinostat

>  <Uniprot>
Q13547

>  <Target>
HDAC1

>  <Smiles>
O=C(CCCCCCC(=O)NC1=CC=CC=C1)NO

>  <Kd (nM)>


>  <Assay (Kd)>


>  <Ki (nM)>


>  <Assay (Ki)>


>  <IC50 (nM)>
97

>  <Assay (IC50)>
Inhibition of HDAC1

>  <EC50 (nM)>


>  <Assay (EC50)>


>  <Article DOI>
10.1002/anie.202006725

>  <Molecular Weight>
264.325

>  <Exact Mass>
264.1473925

>  <XLogP3>
1.86

>  <Heavy Atom Count>
19

>  <Ring Count>
1

>  <Hydrogen Bond Acceptor Count>
3

>  <Hydrogen Bond Donor Count>
3

>  <Rotatable Bond Count>
8

>  <Topological Polar Surface Area>
78.43

>  <Molecular Formula>
C14H20N2O3

>  <InChI>
InChI=1S/C14H20N2O3/c17-13(15-12-8-4-3-5-9-12)10-6-1-2-7-11-14(18)16-19/h3-5,8-9,19H,1-2,6-7,10-11H2,(H,15,17)(H,16,18)

>  <InChI Key>
WAEXFXRVDQXREF-UHFFFAOYSA-N

>  <BindingDB>
19149

>  <PubChem>
5311

>  <ChEMBL>
CHEMBL98

$$$$
264
Actelion Java MolfileCreator 2.0

  0  0  0  0  0  0              0 V3000
M  V30 BEGIN CTAB
M  V30 COUNTS 19 19 0 0 0
M  V30 BEGIN ATOM
M  V30 1 O 7.7942 1.0 0.0 0
M  V30 2 C 7.7942 0.0 0.0 0
M  V30 3 N 8.6602 -0.5 0.0 0
M  V30 4 C 6.9282 -0.5 0.0 0
M  V30 5 O 9.5262 0.0 0.0 0
M  V30 6 C 6.0621 0.0 0.0 0
M  V30 7 C 5.1961 -0.5 0.0 0
M  V30 8 C 4.3301 0.0 0.0 0
M  V30 9 C 3.4641 -0.5 0.0 0
M  V30 10 C 2.598 0.0 0.0 0
M  V30 11 C 1.732 -0.5 0.0 0
M  V30 12 O 1.732 -1.5 0.0 0
M  V30 13 N 0.866 0.0 0.0 0
M  V30 14 C 0.0 -0.5 0.0 0
M  V30 15 C -0.866 0.0 0.0 0
M  V30 16 C 0.0 -1.4999 0.0 0
M  V30 17 C -1.732 -0.4999 0.0 0
M  V30 18 C -0.866 -1.9999 0.0 0
M  V30 19 C -1.732 -1.4999 0.0 0
M  V30 END ATOM
M  V30 BEGIN BOND
M  V30 1 2 1 2
M  V30 2 1 2 3
M  V30 3 1 2 4
M  V30 4 1 3 5
M  V30 5 1 4 6
M  V30 6 1 6 7
M  V30 7 1 7 8
M  V30 8 1 8 9
M  V30 9 1 9 10
M  V30 10 1 10 11
M  V30 11 2 11 12
M  V30 12 1 11 13
M  V30 13 1 13 14
M  V30 14 2 14 15
M  V30 15 1 14 16
M  V30 16 1 15 17
M  V30 17 2 16 18
M  V30 18 2 17 19
M  V30 19 1 18 19
M  V30 END BOND
M  V30 END CTAB
M  END
>  <Molecule Name>
Compound 951

>  <Molecule Name 2>
Compound 951

>  <Compound ID>
264

>  <Name>
Vorinostat

>  <Uniprot>
Q92769

>  <Target>
HDAC2

>  <Smiles>
O=C(CCCCCCC(=O)NC1=CC=CC=C1)NO

>  <Kd (nM)>


>  <Assay (Kd)>


>  <Ki (nM)>


>  <Assay (Ki)>


>  <IC50 (nM)>
140

>  <Assay (IC50)>
Inhibition of HDAC2

>  <EC50 (nM)>


>  <Assay (EC50)>


>  <Article DOI>
10.1002/anie.202006725

>  <Molecular Weight>
264.325

>  <Exact Mass>
264.1473925

>  <XLogP3>
1.86

>  <Heavy Atom Count>
19

>  <Ring Count>
1

>  <Hydrogen Bond Acceptor Count>
3

>  <Hydrogen Bond Donor Count>
3

>  <Rotatable Bond Count>
8

>  <Topological Polar Surface Area>
78.43

>  <Molecular Formula>
C14H20N2O3

>  <InChI>
InChI=1S/C14H20N2O3/c17-13(15-12-8-4-3-5-9-12)10-6-1-2-7-11-14(18)16-19/h3-5,8-9,19H,1-2,6-7,10-11H2,(H,15,17)(H,16,18)

>  <InChI Key>
WAEXFXRVDQXREF-UHFFFAOYSA-N

>  <BindingDB>
19149

>  <PubChem>
5311

>  <ChEMBL>
CHEMBL98

$$$$
264
Actelion Java MolfileCreator 2.0

  0  0  0  0  0  0              0 V3000
M  V30 BEGIN CTAB
M  V30 COUNTS 19 19 0 0 0
M  V30 BEGIN ATOM
M  V30 1 O 7.7942 1.0 0.0 0
M  V30 2 C 7.7942 0.0 0.0 0
M  V30 3 N 8.6602 -0.5 0.0 0
M  V30 4 C 6.9282 -0.5 0.0 0
M  V30 5 O 9.5262 0.0 0.0 0
M  V30 6 C 6.0621 0.0 0.0 0
M  V30 7 C 5.1961 -0.5 0.0 0
M  V30 8 C 4.3301 0.0 0.0 0
M  V30 9 C 3.4641 -0.5 0.0 0
M  V30 10 C 2.598 0.0 0.0 0
M  V30 11 C 1.732 -0.5 0.0 0
M  V30 12 O 1.732 -1.5 0.0 0
M  V30 13 N 0.866 0.0 0.0 0
M  V30 14 C 0.0 -0.5 0.0 0
M  V30 15 C -0.866 0.0 0.0 0
M  V30 16 C 0.0 -1.4999 0.0 0
M  V30 17 C -1.732 -0.4999 0.0 0
M  V30 18 C -0.866 -1.9999 0.0 0
M  V30 19 C -1.732 -1.4999 0.0 0
M  V30 END ATOM
M  V30 BEGIN BOND
M  V30 1 2 1 2
M  V30 2 1 2 3
M  V30 3 1 2 4
M  V30 4 1 3 5
M  V30 5 1 4 6
M  V30 6 1 6 7
M  V30 7 1 7 8
M  V30 8 1 8 9
M  V30 9 1 9 10
M  V30 10 1 10 11
M  V30 11 2 11 12
M  V30 12 1 11 13
M  V30 13 1 13 14
M  V30 14 2 14 15
M  V30 15 1 14 16
M  V30 16 1 15 17
M  V30 17 2 16 18
M  V30 18 2 17 19
M  V30 19 1 18 19
M  V30 END BOND
M  V30 END CTAB
M  END
>  <Molecule Name>
Compound 952

>  <Molecule Name 2>
Compound 952

>  <Compound ID>
264

>  <Name>
Vorinostat

>  <Uniprot>
O15379

>  <Target>
HDAC3

>  <Smiles>
O=C(CCCCCCC(=O)NC1=CC=CC=C1)NO

>  <Kd (nM)>


>  <Assay (Kd)>


>  <Ki (nM)>


>  <Assay (Ki)>


>  <IC50 (nM)>
96

>  <Assay (IC50)>
Inhibition of HDAC3

>  <EC50 (nM)>


>  <Assay (EC50)>


>  <Article DOI>
10.1002/anie.202006725

>  <Molecular Weight>
264.325

>  <Exact Mass>
264.1473925

>  <XLogP3>
1.86

>  <Heavy Atom Count>
19

>  <Ring Count>
1

>  <Hydrogen Bond Acceptor Count>
3

>  <Hydrogen Bond Donor Count>
3

>  <Rotatable Bond Count>
8

>  <Topological Polar Surface Area>
78.43

>  <Molecular Formula>
C14H20N2O3

>  <InChI>
InChI=1S/C14H20N2O3/c17-13(15-12-8-4-3-5-9-12)10-6-1-2-7-11-14(18)16-19/h3-5,8-9,19H,1-2,6-7,10-11H2,(H,15,17)(H,16,18)

>  <InChI Key>
WAEXFXRVDQXREF-UHFFFAOYSA-N

>  <BindingDB>
19149

>  <PubChem>
5311

>  <ChEMBL>
CHEMBL98

$$$$
264
Actelion Java MolfileCreator 2.0

  0  0  0  0  0  0              0 V3000
M  V30 BEGIN CTAB
M  V30 COUNTS 19 19 0 0 0
M  V30 BEGIN ATOM
M  V30 1 O 7.7942 1.0 0.0 0
M  V30 2 C 7.7942 0.0 0.0 0
M  V30 3 N 8.6602 -0.5 0.0 0
M  V30 4 C 6.9282 -0.5 0.0 0
M  V30 5 O 9.5262 0.0 0.0 0
M  V30 6 C 6.0621 0.0 0.0 0
M  V30 7 C 5.1961 -0.5 0.0 0
M  V30 8 C 4.3301 0.0 0.0 0
M  V30 9 C 3.4641 -0.5 0.0 0
M  V30 10 C 2.598 0.0 0.0 0
M  V30 11 C 1.732 -0.5 0.0 0
M  V30 12 O 1.732 -1.5 0.0 0
M  V30 13 N 0.866 0.0 0.0 0
M  V30 14 C 0.0 -0.5 0.0 0
M  V30 15 C -0.866 0.0 0.0 0
M  V30 16 C 0.0 -1.4999 0.0 0
M  V30 17 C -1.732 -0.4999 0.0 0
M  V30 18 C -0.866 -1.9999 0.0 0
M  V30 19 C -1.732 -1.4999 0.0 0
M  V30 END ATOM
M  V30 BEGIN BOND
M  V30 1 2 1 2
M  V30 2 1 2 3
M  V30 3 1 2 4
M  V30 4 1 3 5
M  V30 5 1 4 6
M  V30 6 1 6 7
M  V30 7 1 7 8
M  V30 8 1 8 9
M  V30 9 1 9 10
M  V30 10 1 10 11
M  V30 11 2 11 12
M  V30 12 1 11 13
M  V30 13 1 13 14
M  V30 14 2 14 15
M  V30 15 1 14 16
M  V30 16 1 15 17
M  V30 17 2 16 18
M  V30 18 2 17 19
M  V30 19 1 18 19
M  V30 END BOND
M  V30 END CTAB
M  END
>  <Molecule Name>
Compound 953

>  <Molecule Name 2>
Compound 953

>  <Compound ID>
264

>  <Name>
Vorinostat

>  <Uniprot>
Q9UBN7

>  <Target>
HDAC6

>  <Smiles>
O=C(CCCCCCC(=O)NC1=CC=CC=C1)NO

>  <Kd (nM)>


>  <Assay (Kd)>


>  <Ki (nM)>


>  <Assay (Ki)>


>  <IC50 (nM)>
45

>  <Assay (IC50)>
Inhibition of HDAC6

>  <EC50 (nM)>


>  <Assay (EC50)>


>  <Article DOI>
10.1002/anie.202006725

>  <Molecular Weight>
264.325

>  <Exact Mass>
264.1473925

>  <XLogP3>
1.86

>  <Heavy Atom Count>
19

>  <Ring Count>
1

>  <Hydrogen Bond Acceptor Count>
3

>  <Hydrogen Bond Donor Count>
3

>  <Rotatable Bond Count>
8

>  <Topological Polar Surface Area>
78.43

>  <Molecular Formula>
C14H20N2O3

>  <InChI>
InChI=1S/C14H20N2O3/c17-13(15-12-8-4-3-5-9-12)10-6-1-2-7-11-14(18)16-19/h3-5,8-9,19H,1-2,6-7,10-11H2,(H,15,17)(H,16,18)

>  <InChI Key>
WAEXFXRVDQXREF-UHFFFAOYSA-N

>  <BindingDB>
19149

>  <PubChem>
5311

>  <ChEMBL>
CHEMBL98

$$$$
264
Actelion Java MolfileCreator 2.0

  0  0  0  0  0  0              0 V3000
M  V30 BEGIN CTAB
M  V30 COUNTS 19 19 0 0 0
M  V30 BEGIN ATOM
M  V30 1 O 7.7942 1.0 0.0 0
M  V30 2 C 7.7942 0.0 0.0 0
M  V30 3 N 8.6602 -0.5 0.0 0
M  V30 4 C 6.9282 -0.5 0.0 0
M  V30 5 O 9.5262 0.0 0.0 0
M  V30 6 C 6.0621 0.0 0.0 0
M  V30 7 C 5.1961 -0.5 0.0 0
M  V30 8 C 4.3301 0.0 0.0 0
M  V30 9 C 3.4641 -0.5 0.0 0
M  V30 10 C 2.598 0.0 0.0 0
M  V30 11 C 1.732 -0.5 0.0 0
M  V30 12 O 1.732 -1.5 0.0 0
M  V30 13 N 0.866 0.0 0.0 0
M  V30 14 C 0.0 -0.5 0.0 0
M  V30 15 C -0.866 0.0 0.0 0
M  V30 16 C 0.0 -1.4999 0.0 0
M  V30 17 C -1.732 -0.4999 0.0 0
M  V30 18 C -0.866 -1.9999 0.0 0
M  V30 19 C -1.732 -1.4999 0.0 0
M  V30 END ATOM
M  V30 BEGIN BOND
M  V30 1 2 1 2
M  V30 2 1 2 3
M  V30 3 1 2 4
M  V30 4 1 3 5
M  V30 5 1 4 6
M  V30 6 1 6 7
M  V30 7 1 7 8
M  V30 8 1 8 9
M  V30 9 1 9 10
M  V30 10 1 10 11
M  V30 11 2 11 12
M  V30 12 1 11 13
M  V30 13 1 13 14
M  V30 14 2 14 15
M  V30 15 1 14 16
M  V30 16 1 15 17
M  V30 17 2 16 18
M  V30 18 2 17 19
M  V30 19 1 18 19
M  V30 END BOND
M  V30 END CTAB
M  END
>  <Molecule Name>
Compound 954

>  <Molecule Name 2>
Compound 954

>  <Compound ID>
264

>  <Name>
Vorinostat

>  <Uniprot>
Q9BY41

>  <Target>
HDAC8

>  <Smiles>
O=C(CCCCCCC(=O)NC1=CC=CC=C1)NO

>  <Kd (nM)>


>  <Assay (Kd)>


>  <Ki (nM)>
173

>  <Assay (Ki)>
FP

>  <IC50 (nM)>


>  <Assay (IC50)>


>  <EC50 (nM)>


>  <Assay (EC50)>


>  <Article DOI>
10.1021/jm2003552

>  <Molecular Weight>
264.325

>  <Exact Mass>
264.1473925

>  <XLogP3>
1.86

>  <Heavy Atom Count>
19

>  <Ring Count>
1

>  <Hydrogen Bond Acceptor Count>
3

>  <Hydrogen Bond Donor Count>
3

>  <Rotatable Bond Count>
8

>  <Topological Polar Surface Area>
78.43

>  <Molecular Formula>
C14H20N2O3

>  <InChI>
InChI=1S/C14H20N2O3/c17-13(15-12-8-4-3-5-9-12)10-6-1-2-7-11-14(18)16-19/h3-5,8-9,19H,1-2,6-7,10-11H2,(H,15,17)(H,16,18)

>  <InChI Key>
WAEXFXRVDQXREF-UHFFFAOYSA-N

>  <BindingDB>
19149

>  <PubChem>
5311

>  <ChEMBL>
CHEMBL98

$$$$
265
Actelion Java MolfileCreator 2.0

  0  0  0  0  0  0              0 V3000
M  V30 BEGIN CTAB
M  V30 COUNTS 30 34 0 0 0
M  V30 BEGIN ATOM
M  V30 1 Cl 0.866 0.0 0.0 0
M  V30 2 C 0.0 -0.5 0.0 0
M  V30 3 C -0.866 0.0 0.0 0
M  V30 4 C 0.0 -1.4999 0.0 0
M  V30 5 N -0.866 1.0 0.0 0
M  V30 6 C -1.732 -0.4999 0.0 0
M  V30 7 N -0.866 -1.9999 0.0 0
M  V30 8 C 0.0 1.4999 0.0 0
M  V30 9 C -1.732 1.5 0.0 0
M  V30 10 C -2.598 0.0 0.0 0
M  V30 11 C -1.732 -1.4999 0.0 0
M  V30 12 C 0.0 2.4999 0.0 0
M  V30 13 C -1.732 2.5 0.0 0
M  V30 14 C -2.598 1.0 0.0 0
M  V30 15 C -3.4641 -0.4999 0.0 0
M  V30 16 C -0.866 3.0 0.0 0
M  V30 17 C -3.4641 1.5 0.0 0
M  V30 18 C -4.3301 0.0 0.0 0
M  V30 19 C -0.057 3.5877 0.0 0
M  V30 20 C -1.675 3.5877 0.0 0
M  V30 21 C -4.3301 1.0 0.0 0
M  V30 22 O 0.894 3.2787 0.0 0
M  V30 23 N -0.366 4.5388 0.0 0
M  V30 24 C -1.366 4.5388 0.0 0
M  V30 25 C -5.1961 1.5 0.0 0
M  V30 26 C -5.3006 2.4945 0.0 0
M  V30 27 C -6.1096 1.0932 0.0 0
M  V30 28 N -6.2788 2.7024 0.0 0
M  V30 29 N -6.7788 1.8364 0.0 0
M  V30 30 C -7.7733 1.7318 0.0 0
M  V30 END ATOM
M  V30 BEGIN BOND
M  V30 1 1 1 2
M  V30 2 2 2 3
M  V30 3 1 2 4
M  V30 4 1 3 5
M  V30 5 1 3 6
M  V30 6 2 4 7
M  V30 7 1 5 8
M  V30 8 1 5 9
M  V30 9 1 6 10
M  V30 10 2 6 11
M  V30 11 1 8 12
M  V30 12 1 9 13
M  V30 13 2 10 14
M  V30 14 1 10 15
M  V30 15 1 12 16
M  V30 16 1 14 17
M  V30 17 2 15 18
M  V30 18 1 16 19
M  V30 19 1 16 20
M  V30 20 2 17 21
M  V30 21 2 19 22
M  V30 22 1 19 23
M  V30 23 1 20 24
M  V30 24 1 21 25
M  V30 25 1 25 26
M  V30 26 2 25 27
M  V30 27 2 26 28
M  V30 28 1 27 29
M  V30 29 1 29 30
M  V30 30 1 7 11
M  V30 31 1 13 16
M  V30 32 1 18 21
M  V30 33 1 23 24
M  V30 34 1 28 29
M  V30 END BOND
M  V30 END CTAB
M  END
>  <Molecule Name>
Compound 955

>  <Molecule Name 2>
Compound 955

>  <Compound ID>
265

>  <Name>
DB-114130

>  <Uniprot>
Q9BWU1

>  <Target>
CDK19

>  <Smiles>
CN1C=C(C2=CC=C(C3=CN=CC(Cl)=C3N3CCC4(CCNC4=O)CC3)C=C2)C=N1

>  <Kd (nM)>
2.54

>  <Assay (Kd)>
Kd was assessed using a reporter displacement assay

>  <Ki (nM)>


>  <Assay (Ki)>


>  <IC50 (nM)>
6

>  <Assay (IC50)>
IC50 was assessed using a reporter displacement assay

>  <EC50 (nM)>


>  <Assay (EC50)>


>  <Article DOI>
10.1038/nchembio.1952

>  <Molecular Weight>
421.932

>  <Exact Mass>
421.1669381

>  <XLogP3>
2.89

>  <Heavy Atom Count>
30

>  <Ring Count>
5

>  <Hydrogen Bond Acceptor Count>
5

>  <Hydrogen Bond Donor Count>
1

>  <Rotatable Bond Count>
3

>  <Topological Polar Surface Area>
63.05

>  <Molecular Formula>
C23H24ClN5O

>  <InChI>
InChI=1S/C23H24ClN5O/c1-28-15-18(12-27-28)16-2-4-17(5-3-16)19-13-25-14-20(24)21(19)29-10-7-23(8-11-29)6-9-26-22(23)30/h2-5,12-15H,6-11H2,1H3,(H,26,30)

>  <InChI Key>
LBFYQISQYCGDDW-UHFFFAOYSA-N

>  <BindingDB>
50073190

>  <PubChem>
77050682

>  <ChEMBL>
CHEMBL3408213

$$$$
265
Actelion Java MolfileCreator 2.0

  0  0  0  0  0  0              0 V3000
M  V30 BEGIN CTAB
M  V30 COUNTS 30 34 0 0 0
M  V30 BEGIN ATOM
M  V30 1 Cl 0.866 0.0 0.0 0
M  V30 2 C 0.0 -0.5 0.0 0
M  V30 3 C -0.866 0.0 0.0 0
M  V30 4 C 0.0 -1.4999 0.0 0
M  V30 5 N -0.866 1.0 0.0 0
M  V30 6 C -1.732 -0.4999 0.0 0
M  V30 7 N -0.866 -1.9999 0.0 0
M  V30 8 C 0.0 1.4999 0.0 0
M  V30 9 C -1.732 1.5 0.0 0
M  V30 10 C -2.598 0.0 0.0 0
M  V30 11 C -1.732 -1.4999 0.0 0
M  V30 12 C 0.0 2.4999 0.0 0
M  V30 13 C -1.732 2.5 0.0 0
M  V30 14 C -2.598 1.0 0.0 0
M  V30 15 C -3.4641 -0.4999 0.0 0
M  V30 16 C -0.866 3.0 0.0 0
M  V30 17 C -3.4641 1.5 0.0 0
M  V30 18 C -4.3301 0.0 0.0 0
M  V30 19 C -0.057 3.5877 0.0 0
M  V30 20 C -1.675 3.5877 0.0 0
M  V30 21 C -4.3301 1.0 0.0 0
M  V30 22 O 0.894 3.2787 0.0 0
M  V30 23 N -0.366 4.5388 0.0 0
M  V30 24 C -1.366 4.5388 0.0 0
M  V30 25 C -5.1961 1.5 0.0 0
M  V30 26 C -5.3006 2.4945 0.0 0
M  V30 27 C -6.1096 1.0932 0.0 0
M  V30 28 N -6.2788 2.7024 0.0 0
M  V30 29 N -6.7788 1.8364 0.0 0
M  V30 30 C -7.7733 1.7318 0.0 0
M  V30 END ATOM
M  V30 BEGIN BOND
M  V30 1 1 1 2
M  V30 2 2 2 3
M  V30 3 1 2 4
M  V30 4 1 3 5
M  V30 5 1 3 6
M  V30 6 2 4 7
M  V30 7 1 5 8
M  V30 8 1 5 9
M  V30 9 1 6 10
M  V30 10 2 6 11
M  V30 11 1 8 12
M  V30 12 1 9 13
M  V30 13 2 10 14
M  V30 14 1 10 15
M  V30 15 1 12 16
M  V30 16 1 14 17
M  V30 17 2 15 18
M  V30 18 1 16 19
M  V30 19 1 16 20
M  V30 20 2 17 21
M  V30 21 2 19 22
M  V30 22 1 19 23
M  V30 23 1 20 24
M  V30 24 1 21 25
M  V30 25 1 25 26
M  V30 26 2 25 27
M  V30 27 2 26 28
M  V30 28 1 27 29
M  V30 29 1 29 30
M  V30 30 1 7 11
M  V30 31 1 13 16
M  V30 32 1 18 21
M  V30 33 1 23 24
M  V30 34 1 28 29
M  V30 END BOND
M  V30 END CTAB
M  END
>  <Molecule Name>
Compound 956

>  <Molecule Name 2>
Compound 956

>  <Compound ID>
265

>  <Name>
DB-114130

>  <Uniprot>
P49336

>  <Target>
CDK8

>  <Smiles>
CN1C=C(C2=CC=C(C3=CN=CC(Cl)=C3N3CCC4(CCNC4=O)CC3)C=C2)C=N1

>  <Kd (nM)>
3.79

>  <Assay (Kd)>
Kd was assessed using a reporter displacement assay

>  <Ki (nM)>


>  <Assay (Ki)>


>  <IC50 (nM)>
5

>  <Assay (IC50)>
IC50 was assessed using a reporter displacement assay

>  <EC50 (nM)>


>  <Assay (EC50)>


>  <Article DOI>
10.1038/nchembio.1952

>  <Molecular Weight>
421.932

>  <Exact Mass>
421.1669381

>  <XLogP3>
2.89

>  <Heavy Atom Count>
30

>  <Ring Count>
5

>  <Hydrogen Bond Acceptor Count>
5

>  <Hydrogen Bond Donor Count>
1

>  <Rotatable Bond Count>
3

>  <Topological Polar Surface Area>
63.05

>  <Molecular Formula>
C23H24ClN5O

>  <InChI>
InChI=1S/C23H24ClN5O/c1-28-15-18(12-27-28)16-2-4-17(5-3-16)19-13-25-14-20(24)21(19)29-10-7-23(8-11-29)6-9-26-22(23)30/h2-5,12-15H,6-11H2,1H3,(H,26,30)

>  <InChI Key>
LBFYQISQYCGDDW-UHFFFAOYSA-N

>  <BindingDB>
50073190

>  <PubChem>
77050682

>  <ChEMBL>
CHEMBL3408213

$$$$
266
Actelion Java MolfileCreator 2.0

  0  0  0  0  0  0              0 V3000
M  V30 BEGIN CTAB
M  V30 COUNTS 31 36 0 0 0
M  V30 BEGIN ATOM
M  V30 1 O 1.299 0.0 0.0 0
M  V30 2 C 0.0 -0.75 0.0 0
M  V30 3 N -1.3703 -0.1398 0.0 0
M  V30 4 N -0.1567 -2.2417 0.0 0
M  V30 5 C -2.374 -1.2546 0.0 0
M  V30 6 C -1.8338 1.2866 0.0 0
M  V30 7 N -1.624 -2.5536 0.0 0
M  V30 8 C -3.8412 -0.9427 0.0 0
M  V30 9 C -3.301 1.5985 0.0 0
M  V30 10 C -4.3047 0.4838 0.0 0
M  V30 11 C -4.8449 -2.0574 0.0 0
M  V30 12 N -5.7719 0.7957 0.0 0
M  V30 13 C -6.3121 -1.7455 0.0 0
M  V30 14 C -6.7756 -0.319 0.0 0
M  V30 15 C -7.3158 -2.8603 0.0 0
M  V30 16 C -8.2428 -0.0071 0.0 0
M  V30 17 C -8.783 -2.5484 0.0 0
M  V30 18 C -6.8523 -4.2868 0.0 0
M  V30 19 C -8.7064 1.4194 0.0 0
M  V30 20 C -9.2465 -1.1218 0.0 0
M  V30 21 C -9.7867 -3.6631 0.0 0
M  V30 22 C -7.856 -5.4016 0.0 0
M  V30 23 C -10.1736 1.7313 0.0 0
M  V30 24 C -10.7138 -0.8099 0.0 0
M  V30 25 C -9.3232 -5.0897 0.0 0
M  V30 26 C -11.1773 0.6165 0.0 0
M  V30 27 C -12.6445 0.9284 0.0 0
M  V30 28 N -12.3712 -0.5464 0.0 0
M  V30 29 C -13.4615 2.1864 0.0 0
M  V30 30 C -13.9025 0.1115 0.0 0
M  V30 31 C -14.7195 1.3695 0.0 0
M  V30 END ATOM
M  V30 BEGIN BOND
M  V30 1 2 1 2
M  V30 2 1 2 3
M  V30 3 1 2 4
M  V30 4 1 3 5
M  V30 5 1 3 6
M  V30 6 1 4 7
M  V30 7 1 5 8
M  V30 8 2 6 9
M  V30 9 2 8 10
M  V30 10 1 8 11
M  V30 11 1 10 12
M  V30 12 2 11 13
M  V30 13 2 12 14
M  V30 14 1 13 15
M  V30 15 1 14 16
M  V30 16 2 15 17
M  V30 17 1 15 18
M  V30 18 2 16 19
M  V30 19 1 16 20
M  V30 20 1 17 21
M  V30 21 2 18 22
M  V30 22 1 19 23
M  V30 23 2 20 24
M  V30 24 2 21 25
M  V30 25 2 23 26
M  V30 26 1 26 27
M  V30 27 1 27 28
M  V30 28 1 27 29
M  V30 29 1 27 30
M  V30 30 1 29 31
M  V30 31 2 5 7
M  V30 32 1 9 10
M  V30 33 1 13 14
M  V30 34 1 22 25
M  V30 35 1 24 26
M  V30 36 1 30 31
M  V30 END BOND
M  V30 END CTAB
M  END
>  <Molecule Name>
Compound 957

>  <Molecule Name 2>
Compound 957

>  <Compound ID>
266

>  <Name>
MK-2206

>  <Uniprot>
Q15118

>  <Target>
PDK1

>  <Smiles>
NC1(C2=CC=C(C3=NC4=C(C=C3C3=CC=CC=C3)C3=N[NH]C(=O)N3C=C4)C=C2)CCC1

>  <Kd (nM)>


>  <Assay (Kd)>


>  <Ki (nM)>


>  <Assay (Ki)>


>  <IC50 (nM)>


>  <Assay (IC50)>


>  <EC50 (nM)>


>  <Assay (EC50)>


>  <Article DOI>
10.1016/j.cell.2020.10.038

>  <Molecular Weight>
407.477

>  <Exact Mass>
407.1746103

>  <XLogP3>
2.98

>  <Heavy Atom Count>
31

>  <Ring Count>
6

>  <Hydrogen Bond Acceptor Count>
5

>  <Hydrogen Bond Donor Count>
2

>  <Rotatable Bond Count>
3

>  <Topological Polar Surface Area>
89.07

>  <Molecular Formula>
C25H21N5O

>  <InChI>
InChI=1S/C25H21N5O/c26-25(12-4-13-25)18-9-7-17(8-10-18)22-19(16-5-2-1-3-6-16)15-20-21(27-22)11-14-30-23(20)28-29-24(30)31/h1-3,5-11,14-15H,4,12-13,26H2,(H,29,31)

>  <InChI Key>
ULDXWLCXEDXJGE-UHFFFAOYSA-N

>  <BindingDB>
50313650

>  <PubChem>
24964624

>  <ChEMBL>
CHEMBL1079175

$$$$
266
Actelion Java MolfileCreator 2.0

  0  0  0  0  0  0              0 V3000
M  V30 BEGIN CTAB
M  V30 COUNTS 31 36 0 0 0
M  V30 BEGIN ATOM
M  V30 1 O 1.299 0.0 0.0 0
M  V30 2 C 0.0 -0.75 0.0 0
M  V30 3 N -1.3703 -0.1398 0.0 0
M  V30 4 N -0.1567 -2.2417 0.0 0
M  V30 5 C -2.374 -1.2546 0.0 0
M  V30 6 C -1.8338 1.2866 0.0 0
M  V30 7 N -1.624 -2.5536 0.0 0
M  V30 8 C -3.8412 -0.9427 0.0 0
M  V30 9 C -3.301 1.5985 0.0 0
M  V30 10 C -4.3047 0.4838 0.0 0
M  V30 11 C -4.8449 -2.0574 0.0 0
M  V30 12 N -5.7719 0.7957 0.0 0
M  V30 13 C -6.3121 -1.7455 0.0 0
M  V30 14 C -6.7756 -0.319 0.0 0
M  V30 15 C -7.3158 -2.8603 0.0 0
M  V30 16 C -8.2428 -0.0071 0.0 0
M  V30 17 C -8.783 -2.5484 0.0 0
M  V30 18 C -6.8523 -4.2868 0.0 0
M  V30 19 C -8.7064 1.4194 0.0 0
M  V30 20 C -9.2465 -1.1218 0.0 0
M  V30 21 C -9.7867 -3.6631 0.0 0
M  V30 22 C -7.856 -5.4016 0.0 0
M  V30 23 C -10.1736 1.7313 0.0 0
M  V30 24 C -10.7138 -0.8099 0.0 0
M  V30 25 C -9.3232 -5.0897 0.0 0
M  V30 26 C -11.1773 0.6165 0.0 0
M  V30 27 C -12.6445 0.9284 0.0 0
M  V30 28 N -12.3712 -0.5464 0.0 0
M  V30 29 C -13.4615 2.1864 0.0 0
M  V30 30 C -13.9025 0.1115 0.0 0
M  V30 31 C -14.7195 1.3695 0.0 0
M  V30 END ATOM
M  V30 BEGIN BOND
M  V30 1 2 1 2
M  V30 2 1 2 3
M  V30 3 1 2 4
M  V30 4 1 3 5
M  V30 5 1 3 6
M  V30 6 1 4 7
M  V30 7 1 5 8
M  V30 8 2 6 9
M  V30 9 2 8 10
M  V30 10 1 8 11
M  V30 11 1 10 12
M  V30 12 2 11 13
M  V30 13 2 12 14
M  V30 14 1 13 15
M  V30 15 1 14 16
M  V30 16 2 15 17
M  V30 17 1 15 18
M  V30 18 2 16 19
M  V30 19 1 16 20
M  V30 20 1 17 21
M  V30 21 2 18 22
M  V30 22 1 19 23
M  V30 23 2 20 24
M  V30 24 2 21 25
M  V30 25 2 23 26
M  V30 26 1 26 27
M  V30 27 1 27 28
M  V30 28 1 27 29
M  V30 29 1 27 30
M  V30 30 1 29 31
M  V30 31 2 5 7
M  V30 32 1 9 10
M  V30 33 1 13 14
M  V30 34 1 22 25
M  V30 35 1 24 26
M  V30 36 1 30 31
M  V30 END BOND
M  V30 END CTAB
M  END
>  <Molecule Name>
Compound 958

>  <Molecule Name 2>
Compound 958

>  <Compound ID>
266

>  <Name>
MK-2206

>  <Uniprot>
Q15119

>  <Target>
PDK2

>  <Smiles>
NC1(C2=CC=C(C3=NC4=C(C=C3C3=CC=CC=C3)C3=N[NH]C(=O)N3C=C4)C=C2)CCC1

>  <Kd (nM)>


>  <Assay (Kd)>


>  <Ki (nM)>


>  <Assay (Ki)>


>  <IC50 (nM)>


>  <Assay (IC50)>


>  <EC50 (nM)>


>  <Assay (EC50)>


>  <Article DOI>
10.1016/j.cell.2020.10.038

>  <Molecular Weight>
407.477

>  <Exact Mass>
407.1746103

>  <XLogP3>
2.98

>  <Heavy Atom Count>
31

>  <Ring Count>
6

>  <Hydrogen Bond Acceptor Count>
5

>  <Hydrogen Bond Donor Count>
2

>  <Rotatable Bond Count>
3

>  <Topological Polar Surface Area>
89.07

>  <Molecular Formula>
C25H21N5O

>  <InChI>
InChI=1S/C25H21N5O/c26-25(12-4-13-25)18-9-7-17(8-10-18)22-19(16-5-2-1-3-6-16)15-20-21(27-22)11-14-30-23(20)28-29-24(30)31/h1-3,5-11,14-15H,4,12-13,26H2,(H,29,31)

>  <InChI Key>
ULDXWLCXEDXJGE-UHFFFAOYSA-N

>  <BindingDB>
50313650

>  <PubChem>
24964624

>  <ChEMBL>
CHEMBL1079175

$$$$
266
Actelion Java MolfileCreator 2.0

  0  0  0  0  0  0              0 V3000
M  V30 BEGIN CTAB
M  V30 COUNTS 31 36 0 0 0
M  V30 BEGIN ATOM
M  V30 1 O 1.299 0.0 0.0 0
M  V30 2 C 0.0 -0.75 0.0 0
M  V30 3 N -1.3703 -0.1398 0.0 0
M  V30 4 N -0.1567 -2.2417 0.0 0
M  V30 5 C -2.374 -1.2546 0.0 0
M  V30 6 C -1.8338 1.2866 0.0 0
M  V30 7 N -1.624 -2.5536 0.0 0
M  V30 8 C -3.8412 -0.9427 0.0 0
M  V30 9 C -3.301 1.5985 0.0 0
M  V30 10 C -4.3047 0.4838 0.0 0
M  V30 11 C -4.8449 -2.0574 0.0 0
M  V30 12 N -5.7719 0.7957 0.0 0
M  V30 13 C -6.3121 -1.7455 0.0 0
M  V30 14 C -6.7756 -0.319 0.0 0
M  V30 15 C -7.3158 -2.8603 0.0 0
M  V30 16 C -8.2428 -0.0071 0.0 0
M  V30 17 C -8.783 -2.5484 0.0 0
M  V30 18 C -6.8523 -4.2868 0.0 0
M  V30 19 C -8.7064 1.4194 0.0 0
M  V30 20 C -9.2465 -1.1218 0.0 0
M  V30 21 C -9.7867 -3.6631 0.0 0
M  V30 22 C -7.856 -5.4016 0.0 0
M  V30 23 C -10.1736 1.7313 0.0 0
M  V30 24 C -10.7138 -0.8099 0.0 0
M  V30 25 C -9.3232 -5.0897 0.0 0
M  V30 26 C -11.1773 0.6165 0.0 0
M  V30 27 C -12.6445 0.9284 0.0 0
M  V30 28 N -12.3712 -0.5464 0.0 0
M  V30 29 C -13.4615 2.1864 0.0 0
M  V30 30 C -13.9025 0.1115 0.0 0
M  V30 31 C -14.7195 1.3695 0.0 0
M  V30 END ATOM
M  V30 BEGIN BOND
M  V30 1 2 1 2
M  V30 2 1 2 3
M  V30 3 1 2 4
M  V30 4 1 3 5
M  V30 5 1 3 6
M  V30 6 1 4 7
M  V30 7 1 5 8
M  V30 8 2 6 9
M  V30 9 2 8 10
M  V30 10 1 8 11
M  V30 11 1 10 12
M  V30 12 2 11 13
M  V30 13 2 12 14
M  V30 14 1 13 15
M  V30 15 1 14 16
M  V30 16 2 15 17
M  V30 17 1 15 18
M  V30 18 2 16 19
M  V30 19 1 16 20
M  V30 20 1 17 21
M  V30 21 2 18 22
M  V30 22 1 19 23
M  V30 23 2 20 24
M  V30 24 2 21 25
M  V30 25 2 23 26
M  V30 26 1 26 27
M  V30 27 1 27 28
M  V30 28 1 27 29
M  V30 29 1 27 30
M  V30 30 1 29 31
M  V30 31 2 5 7
M  V30 32 1 9 10
M  V30 33 1 13 14
M  V30 34 1 22 25
M  V30 35 1 24 26
M  V30 36 1 30 31
M  V30 END BOND
M  V30 END CTAB
M  END
>  <Molecule Name>
Compound 959

>  <Molecule Name 2>
Compound 959

>  <Compound ID>
266

>  <Name>
MK-2206

>  <Uniprot>
Q15120

>  <Target>
PDK3

>  <Smiles>
NC1(C2=CC=C(C3=NC4=C(C=C3C3=CC=CC=C3)C3=N[NH]C(=O)N3C=C4)C=C2)CCC1

>  <Kd (nM)>


>  <Assay (Kd)>


>  <Ki (nM)>


>  <Assay (Ki)>


>  <IC50 (nM)>


>  <Assay (IC50)>


>  <EC50 (nM)>


>  <Assay (EC50)>


>  <Article DOI>
10.1016/j.cell.2020.10.038

>  <Molecular Weight>
407.477

>  <Exact Mass>
407.1746103

>  <XLogP3>
2.98

>  <Heavy Atom Count>
31

>  <Ring Count>
6

>  <Hydrogen Bond Acceptor Count>
5

>  <Hydrogen Bond Donor Count>
2

>  <Rotatable Bond Count>
3

>  <Topological Polar Surface Area>
89.07

>  <Molecular Formula>
C25H21N5O

>  <InChI>
InChI=1S/C25H21N5O/c26-25(12-4-13-25)18-9-7-17(8-10-18)22-19(16-5-2-1-3-6-16)15-20-21(27-22)11-14-30-23(20)28-29-24(30)31/h1-3,5-11,14-15H,4,12-13,26H2,(H,29,31)

>  <InChI Key>
ULDXWLCXEDXJGE-UHFFFAOYSA-N

>  <BindingDB>
50313650

>  <PubChem>
24964624

>  <ChEMBL>
CHEMBL1079175

$$$$
267
Actelion Java MolfileCreator 2.0

  0  0  0  0  0  0              0 V3000
M  V30 BEGIN CTAB
M  V30 COUNTS 32 36 0 0 0
M  V30 BEGIN ATOM
M  V30 1 S 2.598 -0.75 0.0 0
M  V30 2 O 1.848 -2.049 0.0 0
M  V30 3 O 3.348 -2.049 0.0 0
M  V30 4 N 1.299 0.0 0.0 0
M  V30 5 C 3.8971 0.0 0.0 0
M  V30 6 C 0.0 -0.75 0.0 0
M  V30 7 C 5.1961 -0.75 0.0 0
M  V30 8 C 3.8971 1.5 0.0 0
M  V30 9 C -1.5 -0.75 0.0 0
M  V30 10 C -0.75 -2.049 0.0 0
M  V30 11 C 6.4951 0.0 0.0 0
M  V30 12 C 5.1961 2.25 0.0 0
M  V30 13 F 7.7942 -0.75 0.0 0
M  V30 14 C 6.4951 1.5 0.0 0
M  V30 15 C 7.7942 2.25 0.0 0
M  V30 16 C 9.0932 1.5 0.0 0
M  V30 17 C 7.7942 3.75 0.0 0
M  V30 18 N 10.3923 2.25 0.0 0
M  V30 19 C 9.0932 4.5 0.0 0
M  V30 20 C 10.3923 3.75 0.0 0
M  V30 21 C 9.0932 6.0 0.0 0
M  V30 22 N 11.6913 4.5 0.0 0
M  V30 23 C 10.3923 6.75 0.0 0
M  V30 24 C 7.7942 6.75 0.0 0
M  V30 25 C 10.3923 8.25 0.0 0
M  V30 26 C 7.7942 8.25 0.0 0
M  V30 27 C 9.0932 9.0 0.0 0
M  V30 28 C 11.6913 9.0 0.0 0
M  V30 29 C 9.0932 10.5 0.0 0
M  V30 30 C 11.6913 10.5 0.0 0
M  V30 31 O 7.7942 11.25 0.0 0
M  V30 32 N 10.3923 11.25 0.0 0
M  V30 END ATOM
M  V30 BEGIN BOND
M  V30 1 2 1 2
M  V30 2 2 1 3
M  V30 3 1 1 4
M  V30 4 1 1 5
M  V30 5 1 4 6
M  V30 6 2 5 7
M  V30 7 1 5 8
M  V30 8 1 6 9
M  V30 9 1 6 10
M  V30 10 1 7 11
M  V30 11 2 8 12
M  V30 12 1 11 13
M  V30 13 2 11 14
M  V30 14 1 14 15
M  V30 15 2 15 16
M  V30 16 1 15 17
M  V30 17 1 16 18
M  V30 18 2 17 19
M  V30 19 2 18 20
M  V30 20 1 19 21
M  V30 21 1 20 22
M  V30 22 2 21 23
M  V30 23 1 21 24
M  V30 24 1 23 25
M  V30 25 2 24 26
M  V30 26 2 25 27
M  V30 27 1 25 28
M  V30 28 1 27 29
M  V30 29 1 28 30
M  V30 30 2 29 31
M  V30 31 1 29 32
M  V30 32 1 9 10
M  V30 33 1 12 14
M  V30 34 1 19 20
M  V30 35 1 26 27
M  V30 36 1 30 32
M  V30 END BOND
M  V30 END CTAB
M  END
>  <Molecule Name>
Compound 960

>  <Molecule Name 2>
Compound 960

>  <Compound ID>
267

>  <Name>


>  <Uniprot>
O94921

>  <Target>
CDK14

>  <Smiles>
NC1=NC=C(C2=CC=C(S(=O)(=O)NC3CC3)C=C2F)C=C1C1=CC=C2C(=O)NCCC2=C1

>  <Kd (nM)>


>  <Assay (Kd)>


>  <Ki (nM)>


>  <Assay (Ki)>


>  <IC50 (nM)>


>  <Assay (IC50)>


>  <EC50 (nM)>


>  <Assay (EC50)>


>  <Article DOI>
10.1016/j.cell.2020.10.038

>  <Molecular Weight>
452.511

>  <Exact Mass>
452.1318398

>  <XLogP3>
2.69

>  <Heavy Atom Count>
32

>  <Ring Count>
5

>  <Hydrogen Bond Acceptor Count>
5

>  <Hydrogen Bond Donor Count>
3

>  <Rotatable Bond Count>
5

>  <Topological Polar Surface Area>
114.18

>  <Molecular Formula>
C23H21FN4O3S

>  <InChI>
InChI=1S/C23H21FN4O3S/c24-21-11-17(32(30,31)28-16-2-3-16)4-6-18(21)15-10-20(22(25)27-12-15)13-1-5-19-14(9-13)7-8-26-23(19)29/h1,4-6,9-12,16,28H,2-3,7-8H2,(H2,25,27)(H,26,29)

>  <InChI Key>
UZJTTYGNPCEORU-UHFFFAOYSA-N

>  <BindingDB>


>  <PubChem>
122597258

>  <ChEMBL>


$$$$
267
Actelion Java MolfileCreator 2.0

  0  0  0  0  0  0              0 V3000
M  V30 BEGIN CTAB
M  V30 COUNTS 32 36 0 0 0
M  V30 BEGIN ATOM
M  V30 1 S 2.598 -0.75 0.0 0
M  V30 2 O 1.848 -2.049 0.0 0
M  V30 3 O 3.348 -2.049 0.0 0
M  V30 4 N 1.299 0.0 0.0 0
M  V30 5 C 3.8971 0.0 0.0 0
M  V30 6 C 0.0 -0.75 0.0 0
M  V30 7 C 5.1961 -0.75 0.0 0
M  V30 8 C 3.8971 1.5 0.0 0
M  V30 9 C -1.5 -0.75 0.0 0
M  V30 10 C -0.75 -2.049 0.0 0
M  V30 11 C 6.4951 0.0 0.0 0
M  V30 12 C 5.1961 2.25 0.0 0
M  V30 13 F 7.7942 -0.75 0.0 0
M  V30 14 C 6.4951 1.5 0.0 0
M  V30 15 C 7.7942 2.25 0.0 0
M  V30 16 C 9.0932 1.5 0.0 0
M  V30 17 C 7.7942 3.75 0.0 0
M  V30 18 N 10.3923 2.25 0.0 0
M  V30 19 C 9.0932 4.5 0.0 0
M  V30 20 C 10.3923 3.75 0.0 0
M  V30 21 C 9.0932 6.0 0.0 0
M  V30 22 N 11.6913 4.5 0.0 0
M  V30 23 C 10.3923 6.75 0.0 0
M  V30 24 C 7.7942 6.75 0.0 0
M  V30 25 C 10.3923 8.25 0.0 0
M  V30 26 C 7.7942 8.25 0.0 0
M  V30 27 C 9.0932 9.0 0.0 0
M  V30 28 C 11.6913 9.0 0.0 0
M  V30 29 C 9.0932 10.5 0.0 0
M  V30 30 C 11.6913 10.5 0.0 0
M  V30 31 O 7.7942 11.25 0.0 0
M  V30 32 N 10.3923 11.25 0.0 0
M  V30 END ATOM
M  V30 BEGIN BOND
M  V30 1 2 1 2
M  V30 2 2 1 3
M  V30 3 1 1 4
M  V30 4 1 1 5
M  V30 5 1 4 6
M  V30 6 2 5 7
M  V30 7 1 5 8
M  V30 8 1 6 9
M  V30 9 1 6 10
M  V30 10 1 7 11
M  V30 11 2 8 12
M  V30 12 1 11 13
M  V30 13 2 11 14
M  V30 14 1 14 15
M  V30 15 2 15 16
M  V30 16 1 15 17
M  V30 17 1 16 18
M  V30 18 2 17 19
M  V30 19 2 18 20
M  V30 20 1 19 21
M  V30 21 1 20 22
M  V30 22 2 21 23
M  V30 23 1 21 24
M  V30 24 1 23 25
M  V30 25 2 24 26
M  V30 26 2 25 27
M  V30 27 1 25 28
M  V30 28 1 27 29
M  V30 29 1 28 30
M  V30 30 2 29 31
M  V30 31 1 29 32
M  V30 32 1 9 10
M  V30 33 1 12 14
M  V30 34 1 19 20
M  V30 35 1 26 27
M  V30 36 1 30 32
M  V30 END BOND
M  V30 END CTAB
M  END
>  <Molecule Name>
Compound 961

>  <Molecule Name 2>
Compound 961

>  <Compound ID>
267

>  <Name>


>  <Uniprot>
P48729

>  <Target>
CSNK1A1

>  <Smiles>
NC1=NC=C(C2=CC=C(S(=O)(=O)NC3CC3)C=C2F)C=C1C1=CC=C2C(=O)NCCC2=C1

>  <Kd (nM)>


>  <Assay (Kd)>


>  <Ki (nM)>


>  <Assay (Ki)>


>  <IC50 (nM)>


>  <Assay (IC50)>


>  <EC50 (nM)>


>  <Assay (EC50)>


>  <Article DOI>
10.1016/j.cell.2020.10.038

>  <Molecular Weight>
452.511

>  <Exact Mass>
452.1318398

>  <XLogP3>
2.69

>  <Heavy Atom Count>
32

>  <Ring Count>
5

>  <Hydrogen Bond Acceptor Count>
5

>  <Hydrogen Bond Donor Count>
3

>  <Rotatable Bond Count>
5

>  <Topological Polar Surface Area>
114.18

>  <Molecular Formula>
C23H21FN4O3S

>  <InChI>
InChI=1S/C23H21FN4O3S/c24-21-11-17(32(30,31)28-16-2-3-16)4-6-18(21)15-10-20(22(25)27-12-15)13-1-5-19-14(9-13)7-8-26-23(19)29/h1,4-6,9-12,16,28H,2-3,7-8H2,(H2,25,27)(H,26,29)

>  <InChI Key>
UZJTTYGNPCEORU-UHFFFAOYSA-N

>  <BindingDB>


>  <PubChem>
122597258

>  <ChEMBL>


$$$$
267
Actelion Java MolfileCreator 2.0

  0  0  0  0  0  0              0 V3000
M  V30 BEGIN CTAB
M  V30 COUNTS 32 36 0 0 0
M  V30 BEGIN ATOM
M  V30 1 S 2.598 -0.75 0.0 0
M  V30 2 O 1.848 -2.049 0.0 0
M  V30 3 O 3.348 -2.049 0.0 0
M  V30 4 N 1.299 0.0 0.0 0
M  V30 5 C 3.8971 0.0 0.0 0
M  V30 6 C 0.0 -0.75 0.0 0
M  V30 7 C 5.1961 -0.75 0.0 0
M  V30 8 C 3.8971 1.5 0.0 0
M  V30 9 C -1.5 -0.75 0.0 0
M  V30 10 C -0.75 -2.049 0.0 0
M  V30 11 C 6.4951 0.0 0.0 0
M  V30 12 C 5.1961 2.25 0.0 0
M  V30 13 F 7.7942 -0.75 0.0 0
M  V30 14 C 6.4951 1.5 0.0 0
M  V30 15 C 7.7942 2.25 0.0 0
M  V30 16 C 9.0932 1.5 0.0 0
M  V30 17 C 7.7942 3.75 0.0 0
M  V30 18 N 10.3923 2.25 0.0 0
M  V30 19 C 9.0932 4.5 0.0 0
M  V30 20 C 10.3923 3.75 0.0 0
M  V30 21 C 9.0932 6.0 0.0 0
M  V30 22 N 11.6913 4.5 0.0 0
M  V30 23 C 10.3923 6.75 0.0 0
M  V30 24 C 7.7942 6.75 0.0 0
M  V30 25 C 10.3923 8.25 0.0 0
M  V30 26 C 7.7942 8.25 0.0 0
M  V30 27 C 9.0932 9.0 0.0 0
M  V30 28 C 11.6913 9.0 0.0 0
M  V30 29 C 9.0932 10.5 0.0 0
M  V30 30 C 11.6913 10.5 0.0 0
M  V30 31 O 7.7942 11.25 0.0 0
M  V30 32 N 10.3923 11.25 0.0 0
M  V30 END ATOM
M  V30 BEGIN BOND
M  V30 1 2 1 2
M  V30 2 2 1 3
M  V30 3 1 1 4
M  V30 4 1 1 5
M  V30 5 1 4 6
M  V30 6 2 5 7
M  V30 7 1 5 8
M  V30 8 1 6 9
M  V30 9 1 6 10
M  V30 10 1 7 11
M  V30 11 2 8 12
M  V30 12 1 11 13
M  V30 13 2 11 14
M  V30 14 1 14 15
M  V30 15 2 15 16
M  V30 16 1 15 17
M  V30 17 1 16 18
M  V30 18 2 17 19
M  V30 19 2 18 20
M  V30 20 1 19 21
M  V30 21 1 20 22
M  V30 22 2 21 23
M  V30 23 1 21 24
M  V30 24 1 23 25
M  V30 25 2 24 26
M  V30 26 2 25 27
M  V30 27 1 25 28
M  V30 28 1 27 29
M  V30 29 1 28 30
M  V30 30 2 29 31
M  V30 31 1 29 32
M  V30 32 1 9 10
M  V30 33 1 12 14
M  V30 34 1 19 20
M  V30 35 1 26 27
M  V30 36 1 30 32
M  V30 END BOND
M  V30 END CTAB
M  END
>  <Molecule Name>
Compound 962

>  <Molecule Name 2>
Compound 962

>  <Compound ID>
267

>  <Name>


>  <Uniprot>
P48730

>  <Target>
CSNK1D

>  <Smiles>
NC1=NC=C(C2=CC=C(S(=O)(=O)NC3CC3)C=C2F)C=C1C1=CC=C2C(=O)NCCC2=C1

>  <Kd (nM)>


>  <Assay (Kd)>


>  <Ki (nM)>


>  <Assay (Ki)>


>  <IC50 (nM)>


>  <Assay (IC50)>


>  <EC50 (nM)>


>  <Assay (EC50)>


>  <Article DOI>
10.1016/j.cell.2020.10.038

>  <Molecular Weight>
452.511

>  <Exact Mass>
452.1318398

>  <XLogP3>
2.69

>  <Heavy Atom Count>
32

>  <Ring Count>
5

>  <Hydrogen Bond Acceptor Count>
5

>  <Hydrogen Bond Donor Count>
3

>  <Rotatable Bond Count>
5

>  <Topological Polar Surface Area>
114.18

>  <Molecular Formula>
C23H21FN4O3S

>  <InChI>
InChI=1S/C23H21FN4O3S/c24-21-11-17(32(30,31)28-16-2-3-16)4-6-18(21)15-10-20(22(25)27-12-15)13-1-5-19-14(9-13)7-8-26-23(19)29/h1,4-6,9-12,16,28H,2-3,7-8H2,(H2,25,27)(H,26,29)

>  <InChI Key>
UZJTTYGNPCEORU-UHFFFAOYSA-N

>  <BindingDB>


>  <PubChem>
122597258

>  <ChEMBL>


$$$$
267
Actelion Java MolfileCreator 2.0

  0  0  0  0  0  0              0 V3000
M  V30 BEGIN CTAB
M  V30 COUNTS 32 36 0 0 0
M  V30 BEGIN ATOM
M  V30 1 S 2.598 -0.75 0.0 0
M  V30 2 O 1.848 -2.049 0.0 0
M  V30 3 O 3.348 -2.049 0.0 0
M  V30 4 N 1.299 0.0 0.0 0
M  V30 5 C 3.8971 0.0 0.0 0
M  V30 6 C 0.0 -0.75 0.0 0
M  V30 7 C 5.1961 -0.75 0.0 0
M  V30 8 C 3.8971 1.5 0.0 0
M  V30 9 C -1.5 -0.75 0.0 0
M  V30 10 C -0.75 -2.049 0.0 0
M  V30 11 C 6.4951 0.0 0.0 0
M  V30 12 C 5.1961 2.25 0.0 0
M  V30 13 F 7.7942 -0.75 0.0 0
M  V30 14 C 6.4951 1.5 0.0 0
M  V30 15 C 7.7942 2.25 0.0 0
M  V30 16 C 9.0932 1.5 0.0 0
M  V30 17 C 7.7942 3.75 0.0 0
M  V30 18 N 10.3923 2.25 0.0 0
M  V30 19 C 9.0932 4.5 0.0 0
M  V30 20 C 10.3923 3.75 0.0 0
M  V30 21 C 9.0932 6.0 0.0 0
M  V30 22 N 11.6913 4.5 0.0 0
M  V30 23 C 10.3923 6.75 0.0 0
M  V30 24 C 7.7942 6.75 0.0 0
M  V30 25 C 10.3923 8.25 0.0 0
M  V30 26 C 7.7942 8.25 0.0 0
M  V30 27 C 9.0932 9.0 0.0 0
M  V30 28 C 11.6913 9.0 0.0 0
M  V30 29 C 9.0932 10.5 0.0 0
M  V30 30 C 11.6913 10.5 0.0 0
M  V30 31 O 7.7942 11.25 0.0 0
M  V30 32 N 10.3923 11.25 0.0 0
M  V30 END ATOM
M  V30 BEGIN BOND
M  V30 1 2 1 2
M  V30 2 2 1 3
M  V30 3 1 1 4
M  V30 4 1 1 5
M  V30 5 1 4 6
M  V30 6 2 5 7
M  V30 7 1 5 8
M  V30 8 1 6 9
M  V30 9 1 6 10
M  V30 10 1 7 11
M  V30 11 2 8 12
M  V30 12 1 11 13
M  V30 13 2 11 14
M  V30 14 1 14 15
M  V30 15 2 15 16
M  V30 16 1 15 17
M  V30 17 1 16 18
M  V30 18 2 17 19
M  V30 19 2 18 20
M  V30 20 1 19 21
M  V30 21 1 20 22
M  V30 22 2 21 23
M  V30 23 1 21 24
M  V30 24 1 23 25
M  V30 25 2 24 26
M  V30 26 2 25 27
M  V30 27 1 25 28
M  V30 28 1 27 29
M  V30 29 1 28 30
M  V30 30 2 29 31
M  V30 31 1 29 32
M  V30 32 1 9 10
M  V30 33 1 12 14
M  V30 34 1 19 20
M  V30 35 1 26 27
M  V30 36 1 30 32
M  V30 END BOND
M  V30 END CTAB
M  END
>  <Molecule Name>
Compound 963

>  <Molecule Name 2>
Compound 963

>  <Compound ID>
267

>  <Name>


>  <Uniprot>
P49674

>  <Target>
CSNK1E

>  <Smiles>
NC1=NC=C(C2=CC=C(S(=O)(=O)NC3CC3)C=C2F)C=C1C1=CC=C2C(=O)NCCC2=C1

>  <Kd (nM)>


>  <Assay (Kd)>


>  <Ki (nM)>


>  <Assay (Ki)>


>  <IC50 (nM)>


>  <Assay (IC50)>


>  <EC50 (nM)>


>  <Assay (EC50)>


>  <Article DOI>
10.1016/j.cell.2020.10.038

>  <Molecular Weight>
452.511

>  <Exact Mass>
452.1318398

>  <XLogP3>
2.69

>  <Heavy Atom Count>
32

>  <Ring Count>
5

>  <Hydrogen Bond Acceptor Count>
5

>  <Hydrogen Bond Donor Count>
3

>  <Rotatable Bond Count>
5

>  <Topological Polar Surface Area>
114.18

>  <Molecular Formula>
C23H21FN4O3S

>  <InChI>
InChI=1S/C23H21FN4O3S/c24-21-11-17(32(30,31)28-16-2-3-16)4-6-18(21)15-10-20(22(25)27-12-15)13-1-5-19-14(9-13)7-8-26-23(19)29/h1,4-6,9-12,16,28H,2-3,7-8H2,(H2,25,27)(H,26,29)

>  <InChI Key>
UZJTTYGNPCEORU-UHFFFAOYSA-N

>  <BindingDB>


>  <PubChem>
122597258

>  <ChEMBL>


$$$$
267
Actelion Java MolfileCreator 2.0

  0  0  0  0  0  0              0 V3000
M  V30 BEGIN CTAB
M  V30 COUNTS 32 36 0 0 0
M  V30 BEGIN ATOM
M  V30 1 S 2.598 -0.75 0.0 0
M  V30 2 O 1.848 -2.049 0.0 0
M  V30 3 O 3.348 -2.049 0.0 0
M  V30 4 N 1.299 0.0 0.0 0
M  V30 5 C 3.8971 0.0 0.0 0
M  V30 6 C 0.0 -0.75 0.0 0
M  V30 7 C 5.1961 -0.75 0.0 0
M  V30 8 C 3.8971 1.5 0.0 0
M  V30 9 C -1.5 -0.75 0.0 0
M  V30 10 C -0.75 -2.049 0.0 0
M  V30 11 C 6.4951 0.0 0.0 0
M  V30 12 C 5.1961 2.25 0.0 0
M  V30 13 F 7.7942 -0.75 0.0 0
M  V30 14 C 6.4951 1.5 0.0 0
M  V30 15 C 7.7942 2.25 0.0 0
M  V30 16 C 9.0932 1.5 0.0 0
M  V30 17 C 7.7942 3.75 0.0 0
M  V30 18 N 10.3923 2.25 0.0 0
M  V30 19 C 9.0932 4.5 0.0 0
M  V30 20 C 10.3923 3.75 0.0 0
M  V30 21 C 9.0932 6.0 0.0 0
M  V30 22 N 11.6913 4.5 0.0 0
M  V30 23 C 10.3923 6.75 0.0 0
M  V30 24 C 7.7942 6.75 0.0 0
M  V30 25 C 10.3923 8.25 0.0 0
M  V30 26 C 7.7942 8.25 0.0 0
M  V30 27 C 9.0932 9.0 0.0 0
M  V30 28 C 11.6913 9.0 0.0 0
M  V30 29 C 9.0932 10.5 0.0 0
M  V30 30 C 11.6913 10.5 0.0 0
M  V30 31 O 7.7942 11.25 0.0 0
M  V30 32 N 10.3923 11.25 0.0 0
M  V30 END ATOM
M  V30 BEGIN BOND
M  V30 1 2 1 2
M  V30 2 2 1 3
M  V30 3 1 1 4
M  V30 4 1 1 5
M  V30 5 1 4 6
M  V30 6 2 5 7
M  V30 7 1 5 8
M  V30 8 1 6 9
M  V30 9 1 6 10
M  V30 10 1 7 11
M  V30 11 2 8 12
M  V30 12 1 11 13
M  V30 13 2 11 14
M  V30 14 1 14 15
M  V30 15 2 15 16
M  V30 16 1 15 17
M  V30 17 1 16 18
M  V30 18 2 17 19
M  V30 19 2 18 20
M  V30 20 1 19 21
M  V30 21 1 20 22
M  V30 22 2 21 23
M  V30 23 1 21 24
M  V30 24 1 23 25
M  V30 25 2 24 26
M  V30 26 2 25 27
M  V30 27 1 25 28
M  V30 28 1 27 29
M  V30 29 1 28 30
M  V30 30 2 29 31
M  V30 31 1 29 32
M  V30 32 1 9 10
M  V30 33 1 12 14
M  V30 34 1 19 20
M  V30 35 1 26 27
M  V30 36 1 30 32
M  V30 END BOND
M  V30 END CTAB
M  END
>  <Molecule Name>
Compound 964

>  <Molecule Name 2>
Compound 964

>  <Compound ID>
267

>  <Name>


>  <Uniprot>
P49840

>  <Target>
GSK3A

>  <Smiles>
NC1=NC=C(C2=CC=C(S(=O)(=O)NC3CC3)C=C2F)C=C1C1=CC=C2C(=O)NCCC2=C1

>  <Kd (nM)>


>  <Assay (Kd)>


>  <Ki (nM)>


>  <Assay (Ki)>


>  <IC50 (nM)>


>  <Assay (IC50)>


>  <EC50 (nM)>


>  <Assay (EC50)>


>  <Article DOI>
10.1016/j.cell.2020.10.038

>  <Molecular Weight>
452.511

>  <Exact Mass>
452.1318398

>  <XLogP3>
2.69

>  <Heavy Atom Count>
32

>  <Ring Count>
5

>  <Hydrogen Bond Acceptor Count>
5

>  <Hydrogen Bond Donor Count>
3

>  <Rotatable Bond Count>
5

>  <Topological Polar Surface Area>
114.18

>  <Molecular Formula>
C23H21FN4O3S

>  <InChI>
InChI=1S/C23H21FN4O3S/c24-21-11-17(32(30,31)28-16-2-3-16)4-6-18(21)15-10-20(22(25)27-12-15)13-1-5-19-14(9-13)7-8-26-23(19)29/h1,4-6,9-12,16,28H,2-3,7-8H2,(H2,25,27)(H,26,29)

>  <InChI Key>
UZJTTYGNPCEORU-UHFFFAOYSA-N

>  <BindingDB>


>  <PubChem>
122597258

>  <ChEMBL>


$$$$
267
Actelion Java MolfileCreator 2.0

  0  0  0  0  0  0              0 V3000
M  V30 BEGIN CTAB
M  V30 COUNTS 32 36 0 0 0
M  V30 BEGIN ATOM
M  V30 1 S 2.598 -0.75 0.0 0
M  V30 2 O 1.848 -2.049 0.0 0
M  V30 3 O 3.348 -2.049 0.0 0
M  V30 4 N 1.299 0.0 0.0 0
M  V30 5 C 3.8971 0.0 0.0 0
M  V30 6 C 0.0 -0.75 0.0 0
M  V30 7 C 5.1961 -0.75 0.0 0
M  V30 8 C 3.8971 1.5 0.0 0
M  V30 9 C -1.5 -0.75 0.0 0
M  V30 10 C -0.75 -2.049 0.0 0
M  V30 11 C 6.4951 0.0 0.0 0
M  V30 12 C 5.1961 2.25 0.0 0
M  V30 13 F 7.7942 -0.75 0.0 0
M  V30 14 C 6.4951 1.5 0.0 0
M  V30 15 C 7.7942 2.25 0.0 0
M  V30 16 C 9.0932 1.5 0.0 0
M  V30 17 C 7.7942 3.75 0.0 0
M  V30 18 N 10.3923 2.25 0.0 0
M  V30 19 C 9.0932 4.5 0.0 0
M  V30 20 C 10.3923 3.75 0.0 0
M  V30 21 C 9.0932 6.0 0.0 0
M  V30 22 N 11.6913 4.5 0.0 0
M  V30 23 C 10.3923 6.75 0.0 0
M  V30 24 C 7.7942 6.75 0.0 0
M  V30 25 C 10.3923 8.25 0.0 0
M  V30 26 C 7.7942 8.25 0.0 0
M  V30 27 C 9.0932 9.0 0.0 0
M  V30 28 C 11.6913 9.0 0.0 0
M  V30 29 C 9.0932 10.5 0.0 0
M  V30 30 C 11.6913 10.5 0.0 0
M  V30 31 O 7.7942 11.25 0.0 0
M  V30 32 N 10.3923 11.25 0.0 0
M  V30 END ATOM
M  V30 BEGIN BOND
M  V30 1 2 1 2
M  V30 2 2 1 3
M  V30 3 1 1 4
M  V30 4 1 1 5
M  V30 5 1 4 6
M  V30 6 2 5 7
M  V30 7 1 5 8
M  V30 8 1 6 9
M  V30 9 1 6 10
M  V30 10 1 7 11
M  V30 11 2 8 12
M  V30 12 1 11 13
M  V30 13 2 11 14
M  V30 14 1 14 15
M  V30 15 2 15 16
M  V30 16 1 15 17
M  V30 17 1 16 18
M  V30 18 2 17 19
M  V30 19 2 18 20
M  V30 20 1 19 21
M  V30 21 1 20 22
M  V30 22 2 21 23
M  V30 23 1 21 24
M  V30 24 1 23 25
M  V30 25 2 24 26
M  V30 26 2 25 27
M  V30 27 1 25 28
M  V30 28 1 27 29
M  V30 29 1 28 30
M  V30 30 2 29 31
M  V30 31 1 29 32
M  V30 32 1 9 10
M  V30 33 1 12 14
M  V30 34 1 19 20
M  V30 35 1 26 27
M  V30 36 1 30 32
M  V30 END BOND
M  V30 END CTAB
M  END
>  <Molecule Name>
Compound 965

>  <Molecule Name 2>
Compound 965

>  <Compound ID>
267

>  <Name>


>  <Uniprot>
P49841

>  <Target>
GSK-3beta

>  <Smiles>
NC1=NC=C(C2=CC=C(S(=O)(=O)NC3CC3)C=C2F)C=C1C1=CC=C2C(=O)NCCC2=C1

>  <Kd (nM)>


>  <Assay (Kd)>


>  <Ki (nM)>


>  <Assay (Ki)>


>  <IC50 (nM)>


>  <Assay (IC50)>


>  <EC50 (nM)>


>  <Assay (EC50)>


>  <Article DOI>
10.1016/j.cell.2020.10.038

>  <Molecular Weight>
452.511

>  <Exact Mass>
452.1318398

>  <XLogP3>
2.69

>  <Heavy Atom Count>
32

>  <Ring Count>
5

>  <Hydrogen Bond Acceptor Count>
5

>  <Hydrogen Bond Donor Count>
3

>  <Rotatable Bond Count>
5

>  <Topological Polar Surface Area>
114.18

>  <Molecular Formula>
C23H21FN4O3S

>  <InChI>
InChI=1S/C23H21FN4O3S/c24-21-11-17(32(30,31)28-16-2-3-16)4-6-18(21)15-10-20(22(25)27-12-15)13-1-5-19-14(9-13)7-8-26-23(19)29/h1,4-6,9-12,16,28H,2-3,7-8H2,(H2,25,27)(H,26,29)

>  <InChI Key>
UZJTTYGNPCEORU-UHFFFAOYSA-N

>  <BindingDB>


>  <PubChem>
122597258

>  <ChEMBL>


$$$$
267
Actelion Java MolfileCreator 2.0

  0  0  0  0  0  0              0 V3000
M  V30 BEGIN CTAB
M  V30 COUNTS 32 36 0 0 0
M  V30 BEGIN ATOM
M  V30 1 S 2.598 -0.75 0.0 0
M  V30 2 O 1.848 -2.049 0.0 0
M  V30 3 O 3.348 -2.049 0.0 0
M  V30 4 N 1.299 0.0 0.0 0
M  V30 5 C 3.8971 0.0 0.0 0
M  V30 6 C 0.0 -0.75 0.0 0
M  V30 7 C 5.1961 -0.75 0.0 0
M  V30 8 C 3.8971 1.5 0.0 0
M  V30 9 C -1.5 -0.75 0.0 0
M  V30 10 C -0.75 -2.049 0.0 0
M  V30 11 C 6.4951 0.0 0.0 0
M  V30 12 C 5.1961 2.25 0.0 0
M  V30 13 F 7.7942 -0.75 0.0 0
M  V30 14 C 6.4951 1.5 0.0 0
M  V30 15 C 7.7942 2.25 0.0 0
M  V30 16 C 9.0932 1.5 0.0 0
M  V30 17 C 7.7942 3.75 0.0 0
M  V30 18 N 10.3923 2.25 0.0 0
M  V30 19 C 9.0932 4.5 0.0 0
M  V30 20 C 10.3923 3.75 0.0 0
M  V30 21 C 9.0932 6.0 0.0 0
M  V30 22 N 11.6913 4.5 0.0 0
M  V30 23 C 10.3923 6.75 0.0 0
M  V30 24 C 7.7942 6.75 0.0 0
M  V30 25 C 10.3923 8.25 0.0 0
M  V30 26 C 7.7942 8.25 0.0 0
M  V30 27 C 9.0932 9.0 0.0 0
M  V30 28 C 11.6913 9.0 0.0 0
M  V30 29 C 9.0932 10.5 0.0 0
M  V30 30 C 11.6913 10.5 0.0 0
M  V30 31 O 7.7942 11.25 0.0 0
M  V30 32 N 10.3923 11.25 0.0 0
M  V30 END ATOM
M  V30 BEGIN BOND
M  V30 1 2 1 2
M  V30 2 2 1 3
M  V30 3 1 1 4
M  V30 4 1 1 5
M  V30 5 1 4 6
M  V30 6 2 5 7
M  V30 7 1 5 8
M  V30 8 1 6 9
M  V30 9 1 6 10
M  V30 10 1 7 11
M  V30 11 2 8 12
M  V30 12 1 11 13
M  V30 13 2 11 14
M  V30 14 1 14 15
M  V30 15 2 15 16
M  V30 16 1 15 17
M  V30 17 1 16 18
M  V30 18 2 17 19
M  V30 19 2 18 20
M  V30 20 1 19 21
M  V30 21 1 20 22
M  V30 22 2 21 23
M  V30 23 1 21 24
M  V30 24 1 23 25
M  V30 25 2 24 26
M  V30 26 2 25 27
M  V30 27 1 25 28
M  V30 28 1 27 29
M  V30 29 1 28 30
M  V30 30 2 29 31
M  V30 31 1 29 32
M  V30 32 1 9 10
M  V30 33 1 12 14
M  V30 34 1 19 20
M  V30 35 1 26 27
M  V30 36 1 30 32
M  V30 END BOND
M  V30 END CTAB
M  END
>  <Molecule Name>
Compound 966

>  <Molecule Name 2>
Compound 966

>  <Compound ID>
267

>  <Name>


>  <Uniprot>
P53671

>  <Target>
LIMK2

>  <Smiles>
NC1=NC=C(C2=CC=C(S(=O)(=O)NC3CC3)C=C2F)C=C1C1=CC=C2C(=O)NCCC2=C1

>  <Kd (nM)>


>  <Assay (Kd)>


>  <Ki (nM)>


>  <Assay (Ki)>


>  <IC50 (nM)>


>  <Assay (IC50)>


>  <EC50 (nM)>


>  <Assay (EC50)>


>  <Article DOI>
10.1016/j.cell.2020.10.038

>  <Molecular Weight>
452.511

>  <Exact Mass>
452.1318398

>  <XLogP3>
2.69

>  <Heavy Atom Count>
32

>  <Ring Count>
5

>  <Hydrogen Bond Acceptor Count>
5

>  <Hydrogen Bond Donor Count>
3

>  <Rotatable Bond Count>
5

>  <Topological Polar Surface Area>
114.18

>  <Molecular Formula>
C23H21FN4O3S

>  <InChI>
InChI=1S/C23H21FN4O3S/c24-21-11-17(32(30,31)28-16-2-3-16)4-6-18(21)15-10-20(22(25)27-12-15)13-1-5-19-14(9-13)7-8-26-23(19)29/h1,4-6,9-12,16,28H,2-3,7-8H2,(H2,25,27)(H,26,29)

>  <InChI Key>
UZJTTYGNPCEORU-UHFFFAOYSA-N

>  <BindingDB>


>  <PubChem>
122597258

>  <ChEMBL>


$$$$
267
Actelion Java MolfileCreator 2.0

  0  0  0  0  0  0              0 V3000
M  V30 BEGIN CTAB
M  V30 COUNTS 32 36 0 0 0
M  V30 BEGIN ATOM
M  V30 1 S 2.598 -0.75 0.0 0
M  V30 2 O 1.848 -2.049 0.0 0
M  V30 3 O 3.348 -2.049 0.0 0
M  V30 4 N 1.299 0.0 0.0 0
M  V30 5 C 3.8971 0.0 0.0 0
M  V30 6 C 0.0 -0.75 0.0 0
M  V30 7 C 5.1961 -0.75 0.0 0
M  V30 8 C 3.8971 1.5 0.0 0
M  V30 9 C -1.5 -0.75 0.0 0
M  V30 10 C -0.75 -2.049 0.0 0
M  V30 11 C 6.4951 0.0 0.0 0
M  V30 12 C 5.1961 2.25 0.0 0
M  V30 13 F 7.7942 -0.75 0.0 0
M  V30 14 C 6.4951 1.5 0.0 0
M  V30 15 C 7.7942 2.25 0.0 0
M  V30 16 C 9.0932 1.5 0.0 0
M  V30 17 C 7.7942 3.75 0.0 0
M  V30 18 N 10.3923 2.25 0.0 0
M  V30 19 C 9.0932 4.5 0.0 0
M  V30 20 C 10.3923 3.75 0.0 0
M  V30 21 C 9.0932 6.0 0.0 0
M  V30 22 N 11.6913 4.5 0.0 0
M  V30 23 C 10.3923 6.75 0.0 0
M  V30 24 C 7.7942 6.75 0.0 0
M  V30 25 C 10.3923 8.25 0.0 0
M  V30 26 C 7.7942 8.25 0.0 0
M  V30 27 C 9.0932 9.0 0.0 0
M  V30 28 C 11.6913 9.0 0.0 0
M  V30 29 C 9.0932 10.5 0.0 0
M  V30 30 C 11.6913 10.5 0.0 0
M  V30 31 O 7.7942 11.25 0.0 0
M  V30 32 N 10.3923 11.25 0.0 0
M  V30 END ATOM
M  V30 BEGIN BOND
M  V30 1 2 1 2
M  V30 2 2 1 3
M  V30 3 1 1 4
M  V30 4 1 1 5
M  V30 5 1 4 6
M  V30 6 2 5 7
M  V30 7 1 5 8
M  V30 8 1 6 9
M  V30 9 1 6 10
M  V30 10 1 7 11
M  V30 11 2 8 12
M  V30 12 1 11 13
M  V30 13 2 11 14
M  V30 14 1 14 15
M  V30 15 2 15 16
M  V30 16 1 15 17
M  V30 17 1 16 18
M  V30 18 2 17 19
M  V30 19 2 18 20
M  V30 20 1 19 21
M  V30 21 1 20 22
M  V30 22 2 21 23
M  V30 23 1 21 24
M  V30 24 1 23 25
M  V30 25 2 24 26
M  V30 26 2 25 27
M  V30 27 1 25 28
M  V30 28 1 27 29
M  V30 29 1 28 30
M  V30 30 2 29 31
M  V30 31 1 29 32
M  V30 32 1 9 10
M  V30 33 1 12 14
M  V30 34 1 19 20
M  V30 35 1 26 27
M  V30 36 1 30 32
M  V30 END BOND
M  V30 END CTAB
M  END
>  <Molecule Name>
Compound 967

>  <Molecule Name 2>
Compound 967

>  <Compound ID>
267

>  <Name>


>  <Uniprot>
Q13233

>  <Target>
MAP3K1

>  <Smiles>
NC1=NC=C(C2=CC=C(S(=O)(=O)NC3CC3)C=C2F)C=C1C1=CC=C2C(=O)NCCC2=C1

>  <Kd (nM)>


>  <Assay (Kd)>


>  <Ki (nM)>


>  <Assay (Ki)>


>  <IC50 (nM)>


>  <Assay (IC50)>


>  <EC50 (nM)>


>  <Assay (EC50)>


>  <Article DOI>
10.1016/j.cell.2020.10.038

>  <Molecular Weight>
452.511

>  <Exact Mass>
452.1318398

>  <XLogP3>
2.69

>  <Heavy Atom Count>
32

>  <Ring Count>
5

>  <Hydrogen Bond Acceptor Count>
5

>  <Hydrogen Bond Donor Count>
3

>  <Rotatable Bond Count>
5

>  <Topological Polar Surface Area>
114.18

>  <Molecular Formula>
C23H21FN4O3S

>  <InChI>
InChI=1S/C23H21FN4O3S/c24-21-11-17(32(30,31)28-16-2-3-16)4-6-18(21)15-10-20(22(25)27-12-15)13-1-5-19-14(9-13)7-8-26-23(19)29/h1,4-6,9-12,16,28H,2-3,7-8H2,(H2,25,27)(H,26,29)

>  <InChI Key>
UZJTTYGNPCEORU-UHFFFAOYSA-N

>  <BindingDB>


>  <PubChem>
122597258

>  <ChEMBL>


$$$$
267
Actelion Java MolfileCreator 2.0

  0  0  0  0  0  0              0 V3000
M  V30 BEGIN CTAB
M  V30 COUNTS 32 36 0 0 0
M  V30 BEGIN ATOM
M  V30 1 S 2.598 -0.75 0.0 0
M  V30 2 O 1.848 -2.049 0.0 0
M  V30 3 O 3.348 -2.049 0.0 0
M  V30 4 N 1.299 0.0 0.0 0
M  V30 5 C 3.8971 0.0 0.0 0
M  V30 6 C 0.0 -0.75 0.0 0
M  V30 7 C 5.1961 -0.75 0.0 0
M  V30 8 C 3.8971 1.5 0.0 0
M  V30 9 C -1.5 -0.75 0.0 0
M  V30 10 C -0.75 -2.049 0.0 0
M  V30 11 C 6.4951 0.0 0.0 0
M  V30 12 C 5.1961 2.25 0.0 0
M  V30 13 F 7.7942 -0.75 0.0 0
M  V30 14 C 6.4951 1.5 0.0 0
M  V30 15 C 7.7942 2.25 0.0 0
M  V30 16 C 9.0932 1.5 0.0 0
M  V30 17 C 7.7942 3.75 0.0 0
M  V30 18 N 10.3923 2.25 0.0 0
M  V30 19 C 9.0932 4.5 0.0 0
M  V30 20 C 10.3923 3.75 0.0 0
M  V30 21 C 9.0932 6.0 0.0 0
M  V30 22 N 11.6913 4.5 0.0 0
M  V30 23 C 10.3923 6.75 0.0 0
M  V30 24 C 7.7942 6.75 0.0 0
M  V30 25 C 10.3923 8.25 0.0 0
M  V30 26 C 7.7942 8.25 0.0 0
M  V30 27 C 9.0932 9.0 0.0 0
M  V30 28 C 11.6913 9.0 0.0 0
M  V30 29 C 9.0932 10.5 0.0 0
M  V30 30 C 11.6913 10.5 0.0 0
M  V30 31 O 7.7942 11.25 0.0 0
M  V30 32 N 10.3923 11.25 0.0 0
M  V30 END ATOM
M  V30 BEGIN BOND
M  V30 1 2 1 2
M  V30 2 2 1 3
M  V30 3 1 1 4
M  V30 4 1 1 5
M  V30 5 1 4 6
M  V30 6 2 5 7
M  V30 7 1 5 8
M  V30 8 1 6 9
M  V30 9 1 6 10
M  V30 10 1 7 11
M  V30 11 2 8 12
M  V30 12 1 11 13
M  V30 13 2 11 14
M  V30 14 1 14 15
M  V30 15 2 15 16
M  V30 16 1 15 17
M  V30 17 1 16 18
M  V30 18 2 17 19
M  V30 19 2 18 20
M  V30 20 1 19 21
M  V30 21 1 20 22
M  V30 22 2 21 23
M  V30 23 1 21 24
M  V30 24 1 23 25
M  V30 25 2 24 26
M  V30 26 2 25 27
M  V30 27 1 25 28
M  V30 28 1 27 29
M  V30 29 1 28 30
M  V30 30 2 29 31
M  V30 31 1 29 32
M  V30 32 1 9 10
M  V30 33 1 12 14
M  V30 34 1 19 20
M  V30 35 1 26 27
M  V30 36 1 30 32
M  V30 END BOND
M  V30 END CTAB
M  END
>  <Molecule Name>
Compound 968

>  <Molecule Name 2>
Compound 968

>  <Compound ID>
267

>  <Name>


>  <Uniprot>
Q8N4C8

>  <Target>
MINK1

>  <Smiles>
NC1=NC=C(C2=CC=C(S(=O)(=O)NC3CC3)C=C2F)C=C1C1=CC=C2C(=O)NCCC2=C1

>  <Kd (nM)>


>  <Assay (Kd)>


>  <Ki (nM)>


>  <Assay (Ki)>


>  <IC50 (nM)>


>  <Assay (IC50)>


>  <EC50 (nM)>


>  <Assay (EC50)>


>  <Article DOI>
10.1016/j.cell.2020.10.038

>  <Molecular Weight>
452.511

>  <Exact Mass>
452.1318398

>  <XLogP3>
2.69

>  <Heavy Atom Count>
32

>  <Ring Count>
5

>  <Hydrogen Bond Acceptor Count>
5

>  <Hydrogen Bond Donor Count>
3

>  <Rotatable Bond Count>
5

>  <Topological Polar Surface Area>
114.18

>  <Molecular Formula>
C23H21FN4O3S

>  <InChI>
InChI=1S/C23H21FN4O3S/c24-21-11-17(32(30,31)28-16-2-3-16)4-6-18(21)15-10-20(22(25)27-12-15)13-1-5-19-14(9-13)7-8-26-23(19)29/h1,4-6,9-12,16,28H,2-3,7-8H2,(H2,25,27)(H,26,29)

>  <InChI Key>
UZJTTYGNPCEORU-UHFFFAOYSA-N

>  <BindingDB>


>  <PubChem>
122597258

>  <ChEMBL>


$$$$
267
Actelion Java MolfileCreator 2.0

  0  0  0  0  0  0              0 V3000
M  V30 BEGIN CTAB
M  V30 COUNTS 32 36 0 0 0
M  V30 BEGIN ATOM
M  V30 1 S 2.598 -0.75 0.0 0
M  V30 2 O 1.848 -2.049 0.0 0
M  V30 3 O 3.348 -2.049 0.0 0
M  V30 4 N 1.299 0.0 0.0 0
M  V30 5 C 3.8971 0.0 0.0 0
M  V30 6 C 0.0 -0.75 0.0 0
M  V30 7 C 5.1961 -0.75 0.0 0
M  V30 8 C 3.8971 1.5 0.0 0
M  V30 9 C -1.5 -0.75 0.0 0
M  V30 10 C -0.75 -2.049 0.0 0
M  V30 11 C 6.4951 0.0 0.0 0
M  V30 12 C 5.1961 2.25 0.0 0
M  V30 13 F 7.7942 -0.75 0.0 0
M  V30 14 C 6.4951 1.5 0.0 0
M  V30 15 C 7.7942 2.25 0.0 0
M  V30 16 C 9.0932 1.5 0.0 0
M  V30 17 C 7.7942 3.75 0.0 0
M  V30 18 N 10.3923 2.25 0.0 0
M  V30 19 C 9.0932 4.5 0.0 0
M  V30 20 C 10.3923 3.75 0.0 0
M  V30 21 C 9.0932 6.0 0.0 0
M  V30 22 N 11.6913 4.5 0.0 0
M  V30 23 C 10.3923 6.75 0.0 0
M  V30 24 C 7.7942 6.75 0.0 0
M  V30 25 C 10.3923 8.25 0.0 0
M  V30 26 C 7.7942 8.25 0.0 0
M  V30 27 C 9.0932 9.0 0.0 0
M  V30 28 C 11.6913 9.0 0.0 0
M  V30 29 C 9.0932 10.5 0.0 0
M  V30 30 C 11.6913 10.5 0.0 0
M  V30 31 O 7.7942 11.25 0.0 0
M  V30 32 N 10.3923 11.25 0.0 0
M  V30 END ATOM
M  V30 BEGIN BOND
M  V30 1 2 1 2
M  V30 2 2 1 3
M  V30 3 1 1 4
M  V30 4 1 1 5
M  V30 5 1 4 6
M  V30 6 2 5 7
M  V30 7 1 5 8
M  V30 8 1 6 9
M  V30 9 1 6 10
M  V30 10 1 7 11
M  V30 11 2 8 12
M  V30 12 1 11 13
M  V30 13 2 11 14
M  V30 14 1 14 15
M  V30 15 2 15 16
M  V30 16 1 15 17
M  V30 17 1 16 18
M  V30 18 2 17 19
M  V30 19 2 18 20
M  V30 20 1 19 21
M  V30 21 1 20 22
M  V30 22 2 21 23
M  V30 23 1 21 24
M  V30 24 1 23 25
M  V30 25 2 24 26
M  V30 26 2 25 27
M  V30 27 1 25 28
M  V30 28 1 27 29
M  V30 29 1 28 30
M  V30 30 2 29 31
M  V30 31 1 29 32
M  V30 32 1 9 10
M  V30 33 1 12 14
M  V30 34 1 19 20
M  V30 35 1 26 27
M  V30 36 1 30 32
M  V30 END BOND
M  V30 END CTAB
M  END
>  <Molecule Name>
Compound 969

>  <Molecule Name 2>
Compound 969

>  <Compound ID>
267

>  <Name>


>  <Uniprot>
O60285

>  <Target>
NUAK1

>  <Smiles>
NC1=NC=C(C2=CC=C(S(=O)(=O)NC3CC3)C=C2F)C=C1C1=CC=C2C(=O)NCCC2=C1

>  <Kd (nM)>


>  <Assay (Kd)>


>  <Ki (nM)>


>  <Assay (Ki)>


>  <IC50 (nM)>


>  <Assay (IC50)>


>  <EC50 (nM)>


>  <Assay (EC50)>


>  <Article DOI>
10.1016/j.cell.2020.10.038

>  <Molecular Weight>
452.511

>  <Exact Mass>
452.1318398

>  <XLogP3>
2.69

>  <Heavy Atom Count>
32

>  <Ring Count>
5

>  <Hydrogen Bond Acceptor Count>
5

>  <Hydrogen Bond Donor Count>
3

>  <Rotatable Bond Count>
5

>  <Topological Polar Surface Area>
114.18

>  <Molecular Formula>
C23H21FN4O3S

>  <InChI>
InChI=1S/C23H21FN4O3S/c24-21-11-17(32(30,31)28-16-2-3-16)4-6-18(21)15-10-20(22(25)27-12-15)13-1-5-19-14(9-13)7-8-26-23(19)29/h1,4-6,9-12,16,28H,2-3,7-8H2,(H2,25,27)(H,26,29)

>  <InChI Key>
UZJTTYGNPCEORU-UHFFFAOYSA-N

>  <BindingDB>


>  <PubChem>
122597258

>  <ChEMBL>


$$$$
267
Actelion Java MolfileCreator 2.0

  0  0  0  0  0  0              0 V3000
M  V30 BEGIN CTAB
M  V30 COUNTS 32 36 0 0 0
M  V30 BEGIN ATOM
M  V30 1 S 2.598 -0.75 0.0 0
M  V30 2 O 1.848 -2.049 0.0 0
M  V30 3 O 3.348 -2.049 0.0 0
M  V30 4 N 1.299 0.0 0.0 0
M  V30 5 C 3.8971 0.0 0.0 0
M  V30 6 C 0.0 -0.75 0.0 0
M  V30 7 C 5.1961 -0.75 0.0 0
M  V30 8 C 3.8971 1.5 0.0 0
M  V30 9 C -1.5 -0.75 0.0 0
M  V30 10 C -0.75 -2.049 0.0 0
M  V30 11 C 6.4951 0.0 0.0 0
M  V30 12 C 5.1961 2.25 0.0 0
M  V30 13 F 7.7942 -0.75 0.0 0
M  V30 14 C 6.4951 1.5 0.0 0
M  V30 15 C 7.7942 2.25 0.0 0
M  V30 16 C 9.0932 1.5 0.0 0
M  V30 17 C 7.7942 3.75 0.0 0
M  V30 18 N 10.3923 2.25 0.0 0
M  V30 19 C 9.0932 4.5 0.0 0
M  V30 20 C 10.3923 3.75 0.0 0
M  V30 21 C 9.0932 6.0 0.0 0
M  V30 22 N 11.6913 4.5 0.0 0
M  V30 23 C 10.3923 6.75 0.0 0
M  V30 24 C 7.7942 6.75 0.0 0
M  V30 25 C 10.3923 8.25 0.0 0
M  V30 26 C 7.7942 8.25 0.0 0
M  V30 27 C 9.0932 9.0 0.0 0
M  V30 28 C 11.6913 9.0 0.0 0
M  V30 29 C 9.0932 10.5 0.0 0
M  V30 30 C 11.6913 10.5 0.0 0
M  V30 31 O 7.7942 11.25 0.0 0
M  V30 32 N 10.3923 11.25 0.0 0
M  V30 END ATOM
M  V30 BEGIN BOND
M  V30 1 2 1 2
M  V30 2 2 1 3
M  V30 3 1 1 4
M  V30 4 1 1 5
M  V30 5 1 4 6
M  V30 6 2 5 7
M  V30 7 1 5 8
M  V30 8 1 6 9
M  V30 9 1 6 10
M  V30 10 1 7 11
M  V30 11 2 8 12
M  V30 12 1 11 13
M  V30 13 2 11 14
M  V30 14 1 14 15
M  V30 15 2 15 16
M  V30 16 1 15 17
M  V30 17 1 16 18
M  V30 18 2 17 19
M  V30 19 2 18 20
M  V30 20 1 19 21
M  V30 21 1 20 22
M  V30 22 2 21 23
M  V30 23 1 21 24
M  V30 24 1 23 25
M  V30 25 2 24 26
M  V30 26 2 25 27
M  V30 27 1 25 28
M  V30 28 1 27 29
M  V30 29 1 28 30
M  V30 30 2 29 31
M  V30 31 1 29 32
M  V30 32 1 9 10
M  V30 33 1 12 14
M  V30 34 1 19 20
M  V30 35 1 26 27
M  V30 36 1 30 32
M  V30 END BOND
M  V30 END CTAB
M  END
>  <Molecule Name>
Compound 970

>  <Molecule Name 2>
Compound 970

>  <Compound ID>
267

>  <Name>


>  <Uniprot>
O96013

>  <Target>
PAK4

>  <Smiles>
NC1=NC=C(C2=CC=C(S(=O)(=O)NC3CC3)C=C2F)C=C1C1=CC=C2C(=O)NCCC2=C1

>  <Kd (nM)>


>  <Assay (Kd)>


>  <Ki (nM)>


>  <Assay (Ki)>


>  <IC50 (nM)>


>  <Assay (IC50)>


>  <EC50 (nM)>


>  <Assay (EC50)>


>  <Article DOI>
10.1016/j.cell.2020.10.038

>  <Molecular Weight>
452.511

>  <Exact Mass>
452.1318398

>  <XLogP3>
2.69

>  <Heavy Atom Count>
32

>  <Ring Count>
5

>  <Hydrogen Bond Acceptor Count>
5

>  <Hydrogen Bond Donor Count>
3

>  <Rotatable Bond Count>
5

>  <Topological Polar Surface Area>
114.18

>  <Molecular Formula>
C23H21FN4O3S

>  <InChI>
InChI=1S/C23H21FN4O3S/c24-21-11-17(32(30,31)28-16-2-3-16)4-6-18(21)15-10-20(22(25)27-12-15)13-1-5-19-14(9-13)7-8-26-23(19)29/h1,4-6,9-12,16,28H,2-3,7-8H2,(H2,25,27)(H,26,29)

>  <InChI Key>
UZJTTYGNPCEORU-UHFFFAOYSA-N

>  <BindingDB>


>  <PubChem>
122597258

>  <ChEMBL>


$$$$
267
Actelion Java MolfileCreator 2.0

  0  0  0  0  0  0              0 V3000
M  V30 BEGIN CTAB
M  V30 COUNTS 32 36 0 0 0
M  V30 BEGIN ATOM
M  V30 1 S 2.598 -0.75 0.0 0
M  V30 2 O 1.848 -2.049 0.0 0
M  V30 3 O 3.348 -2.049 0.0 0
M  V30 4 N 1.299 0.0 0.0 0
M  V30 5 C 3.8971 0.0 0.0 0
M  V30 6 C 0.0 -0.75 0.0 0
M  V30 7 C 5.1961 -0.75 0.0 0
M  V30 8 C 3.8971 1.5 0.0 0
M  V30 9 C -1.5 -0.75 0.0 0
M  V30 10 C -0.75 -2.049 0.0 0
M  V30 11 C 6.4951 0.0 0.0 0
M  V30 12 C 5.1961 2.25 0.0 0
M  V30 13 F 7.7942 -0.75 0.0 0
M  V30 14 C 6.4951 1.5 0.0 0
M  V30 15 C 7.7942 2.25 0.0 0
M  V30 16 C 9.0932 1.5 0.0 0
M  V30 17 C 7.7942 3.75 0.0 0
M  V30 18 N 10.3923 2.25 0.0 0
M  V30 19 C 9.0932 4.5 0.0 0
M  V30 20 C 10.3923 3.75 0.0 0
M  V30 21 C 9.0932 6.0 0.0 0
M  V30 22 N 11.6913 4.5 0.0 0
M  V30 23 C 10.3923 6.75 0.0 0
M  V30 24 C 7.7942 6.75 0.0 0
M  V30 25 C 10.3923 8.25 0.0 0
M  V30 26 C 7.7942 8.25 0.0 0
M  V30 27 C 9.0932 9.0 0.0 0
M  V30 28 C 11.6913 9.0 0.0 0
M  V30 29 C 9.0932 10.5 0.0 0
M  V30 30 C 11.6913 10.5 0.0 0
M  V30 31 O 7.7942 11.25 0.0 0
M  V30 32 N 10.3923 11.25 0.0 0
M  V30 END ATOM
M  V30 BEGIN BOND
M  V30 1 2 1 2
M  V30 2 2 1 3
M  V30 3 1 1 4
M  V30 4 1 1 5
M  V30 5 1 4 6
M  V30 6 2 5 7
M  V30 7 1 5 8
M  V30 8 1 6 9
M  V30 9 1 6 10
M  V30 10 1 7 11
M  V30 11 2 8 12
M  V30 12 1 11 13
M  V30 13 2 11 14
M  V30 14 1 14 15
M  V30 15 2 15 16
M  V30 16 1 15 17
M  V30 17 1 16 18
M  V30 18 2 17 19
M  V30 19 2 18 20
M  V30 20 1 19 21
M  V30 21 1 20 22
M  V30 22 2 21 23
M  V30 23 1 21 24
M  V30 24 1 23 25
M  V30 25 2 24 26
M  V30 26 2 25 27
M  V30 27 1 25 28
M  V30 28 1 27 29
M  V30 29 1 28 30
M  V30 30 2 29 31
M  V30 31 1 29 32
M  V30 32 1 9 10
M  V30 33 1 12 14
M  V30 34 1 19 20
M  V30 35 1 26 27
M  V30 36 1 30 32
M  V30 END BOND
M  V30 END CTAB
M  END
>  <Molecule Name>
Compound 971

>  <Molecule Name 2>
Compound 971

>  <Compound ID>
267

>  <Name>


>  <Uniprot>
Q9P1W9

>  <Target>
PIM2

>  <Smiles>
NC1=NC=C(C2=CC=C(S(=O)(=O)NC3CC3)C=C2F)C=C1C1=CC=C2C(=O)NCCC2=C1

>  <Kd (nM)>


>  <Assay (Kd)>


>  <Ki (nM)>


>  <Assay (Ki)>


>  <IC50 (nM)>


>  <Assay (IC50)>


>  <EC50 (nM)>


>  <Assay (EC50)>


>  <Article DOI>
10.1016/j.cell.2020.10.038

>  <Molecular Weight>
452.511

>  <Exact Mass>
452.1318398

>  <XLogP3>
2.69

>  <Heavy Atom Count>
32

>  <Ring Count>
5

>  <Hydrogen Bond Acceptor Count>
5

>  <Hydrogen Bond Donor Count>
3

>  <Rotatable Bond Count>
5

>  <Topological Polar Surface Area>
114.18

>  <Molecular Formula>
C23H21FN4O3S

>  <InChI>
InChI=1S/C23H21FN4O3S/c24-21-11-17(32(30,31)28-16-2-3-16)4-6-18(21)15-10-20(22(25)27-12-15)13-1-5-19-14(9-13)7-8-26-23(19)29/h1,4-6,9-12,16,28H,2-3,7-8H2,(H2,25,27)(H,26,29)

>  <InChI Key>
UZJTTYGNPCEORU-UHFFFAOYSA-N

>  <BindingDB>


>  <PubChem>
122597258

>  <ChEMBL>


$$$$
267
Actelion Java MolfileCreator 2.0

  0  0  0  0  0  0              0 V3000
M  V30 BEGIN CTAB
M  V30 COUNTS 32 36 0 0 0
M  V30 BEGIN ATOM
M  V30 1 S 2.598 -0.75 0.0 0
M  V30 2 O 1.848 -2.049 0.0 0
M  V30 3 O 3.348 -2.049 0.0 0
M  V30 4 N 1.299 0.0 0.0 0
M  V30 5 C 3.8971 0.0 0.0 0
M  V30 6 C 0.0 -0.75 0.0 0
M  V30 7 C 5.1961 -0.75 0.0 0
M  V30 8 C 3.8971 1.5 0.0 0
M  V30 9 C -1.5 -0.75 0.0 0
M  V30 10 C -0.75 -2.049 0.0 0
M  V30 11 C 6.4951 0.0 0.0 0
M  V30 12 C 5.1961 2.25 0.0 0
M  V30 13 F 7.7942 -0.75 0.0 0
M  V30 14 C 6.4951 1.5 0.0 0
M  V30 15 C 7.7942 2.25 0.0 0
M  V30 16 C 9.0932 1.5 0.0 0
M  V30 17 C 7.7942 3.75 0.0 0
M  V30 18 N 10.3923 2.25 0.0 0
M  V30 19 C 9.0932 4.5 0.0 0
M  V30 20 C 10.3923 3.75 0.0 0
M  V30 21 C 9.0932 6.0 0.0 0
M  V30 22 N 11.6913 4.5 0.0 0
M  V30 23 C 10.3923 6.75 0.0 0
M  V30 24 C 7.7942 6.75 0.0 0
M  V30 25 C 10.3923 8.25 0.0 0
M  V30 26 C 7.7942 8.25 0.0 0
M  V30 27 C 9.0932 9.0 0.0 0
M  V30 28 C 11.6913 9.0 0.0 0
M  V30 29 C 9.0932 10.5 0.0 0
M  V30 30 C 11.6913 10.5 0.0 0
M  V30 31 O 7.7942 11.25 0.0 0
M  V30 32 N 10.3923 11.25 0.0 0
M  V30 END ATOM
M  V30 BEGIN BOND
M  V30 1 2 1 2
M  V30 2 2 1 3
M  V30 3 1 1 4
M  V30 4 1 1 5
M  V30 5 1 4 6
M  V30 6 2 5 7
M  V30 7 1 5 8
M  V30 8 1 6 9
M  V30 9 1 6 10
M  V30 10 1 7 11
M  V30 11 2 8 12
M  V30 12 1 11 13
M  V30 13 2 11 14
M  V30 14 1 14 15
M  V30 15 2 15 16
M  V30 16 1 15 17
M  V30 17 1 16 18
M  V30 18 2 17 19
M  V30 19 2 18 20
M  V30 20 1 19 21
M  V30 21 1 20 22
M  V30 22 2 21 23
M  V30 23 1 21 24
M  V30 24 1 23 25
M  V30 25 2 24 26
M  V30 26 2 25 27
M  V30 27 1 25 28
M  V30 28 1 27 29
M  V30 29 1 28 30
M  V30 30 2 29 31
M  V30 31 1 29 32
M  V30 32 1 9 10
M  V30 33 1 12 14
M  V30 34 1 19 20
M  V30 35 1 26 27
M  V30 36 1 30 32
M  V30 END BOND
M  V30 END CTAB
M  END
>  <Molecule Name>
Compound 972

>  <Molecule Name 2>
Compound 972

>  <Compound ID>
267

>  <Name>


>  <Uniprot>
O94804

>  <Target>
STK10

>  <Smiles>
NC1=NC=C(C2=CC=C(S(=O)(=O)NC3CC3)C=C2F)C=C1C1=CC=C2C(=O)NCCC2=C1

>  <Kd (nM)>


>  <Assay (Kd)>


>  <Ki (nM)>


>  <Assay (Ki)>


>  <IC50 (nM)>


>  <Assay (IC50)>


>  <EC50 (nM)>


>  <Assay (EC50)>


>  <Article DOI>
10.1016/j.cell.2020.10.038

>  <Molecular Weight>
452.511

>  <Exact Mass>
452.1318398

>  <XLogP3>
2.69

>  <Heavy Atom Count>
32

>  <Ring Count>
5

>  <Hydrogen Bond Acceptor Count>
5

>  <Hydrogen Bond Donor Count>
3

>  <Rotatable Bond Count>
5

>  <Topological Polar Surface Area>
114.18

>  <Molecular Formula>
C23H21FN4O3S

>  <InChI>
InChI=1S/C23H21FN4O3S/c24-21-11-17(32(30,31)28-16-2-3-16)4-6-18(21)15-10-20(22(25)27-12-15)13-1-5-19-14(9-13)7-8-26-23(19)29/h1,4-6,9-12,16,28H,2-3,7-8H2,(H2,25,27)(H,26,29)

>  <InChI Key>
UZJTTYGNPCEORU-UHFFFAOYSA-N

>  <BindingDB>


>  <PubChem>
122597258

>  <ChEMBL>


$$$$
267
Actelion Java MolfileCreator 2.0

  0  0  0  0  0  0              0 V3000
M  V30 BEGIN CTAB
M  V30 COUNTS 32 36 0 0 0
M  V30 BEGIN ATOM
M  V30 1 S 2.598 -0.75 0.0 0
M  V30 2 O 1.848 -2.049 0.0 0
M  V30 3 O 3.348 -2.049 0.0 0
M  V30 4 N 1.299 0.0 0.0 0
M  V30 5 C 3.8971 0.0 0.0 0
M  V30 6 C 0.0 -0.75 0.0 0
M  V30 7 C 5.1961 -0.75 0.0 0
M  V30 8 C 3.8971 1.5 0.0 0
M  V30 9 C -1.5 -0.75 0.0 0
M  V30 10 C -0.75 -2.049 0.0 0
M  V30 11 C 6.4951 0.0 0.0 0
M  V30 12 C 5.1961 2.25 0.0 0
M  V30 13 F 7.7942 -0.75 0.0 0
M  V30 14 C 6.4951 1.5 0.0 0
M  V30 15 C 7.7942 2.25 0.0 0
M  V30 16 C 9.0932 1.5 0.0 0
M  V30 17 C 7.7942 3.75 0.0 0
M  V30 18 N 10.3923 2.25 0.0 0
M  V30 19 C 9.0932 4.5 0.0 0
M  V30 20 C 10.3923 3.75 0.0 0
M  V30 21 C 9.0932 6.0 0.0 0
M  V30 22 N 11.6913 4.5 0.0 0
M  V30 23 C 10.3923 6.75 0.0 0
M  V30 24 C 7.7942 6.75 0.0 0
M  V30 25 C 10.3923 8.25 0.0 0
M  V30 26 C 7.7942 8.25 0.0 0
M  V30 27 C 9.0932 9.0 0.0 0
M  V30 28 C 11.6913 9.0 0.0 0
M  V30 29 C 9.0932 10.5 0.0 0
M  V30 30 C 11.6913 10.5 0.0 0
M  V30 31 O 7.7942 11.25 0.0 0
M  V30 32 N 10.3923 11.25 0.0 0
M  V30 END ATOM
M  V30 BEGIN BOND
M  V30 1 2 1 2
M  V30 2 2 1 3
M  V30 3 1 1 4
M  V30 4 1 1 5
M  V30 5 1 4 6
M  V30 6 2 5 7
M  V30 7 1 5 8
M  V30 8 1 6 9
M  V30 9 1 6 10
M  V30 10 1 7 11
M  V30 11 2 8 12
M  V30 12 1 11 13
M  V30 13 2 11 14
M  V30 14 1 14 15
M  V30 15 2 15 16
M  V30 16 1 15 17
M  V30 17 1 16 18
M  V30 18 2 17 19
M  V30 19 2 18 20
M  V30 20 1 19 21
M  V30 21 1 20 22
M  V30 22 2 21 23
M  V30 23 1 21 24
M  V30 24 1 23 25
M  V30 25 2 24 26
M  V30 26 2 25 27
M  V30 27 1 25 28
M  V30 28 1 27 29
M  V30 29 1 28 30
M  V30 30 2 29 31
M  V30 31 1 29 32
M  V30 32 1 9 10
M  V30 33 1 12 14
M  V30 34 1 19 20
M  V30 35 1 26 27
M  V30 36 1 30 32
M  V30 END BOND
M  V30 END CTAB
M  END
>  <Molecule Name>
Compound 973

>  <Molecule Name 2>
Compound 973

>  <Compound ID>
267

>  <Name>


>  <Uniprot>
O94768

>  <Target>
STK17B

>  <Smiles>
NC1=NC=C(C2=CC=C(S(=O)(=O)NC3CC3)C=C2F)C=C1C1=CC=C2C(=O)NCCC2=C1

>  <Kd (nM)>


>  <Assay (Kd)>


>  <Ki (nM)>


>  <Assay (Ki)>


>  <IC50 (nM)>


>  <Assay (IC50)>


>  <EC50 (nM)>


>  <Assay (EC50)>


>  <Article DOI>
10.1016/j.cell.2020.10.038

>  <Molecular Weight>
452.511

>  <Exact Mass>
452.1318398

>  <XLogP3>
2.69

>  <Heavy Atom Count>
32

>  <Ring Count>
5

>  <Hydrogen Bond Acceptor Count>
5

>  <Hydrogen Bond Donor Count>
3

>  <Rotatable Bond Count>
5

>  <Topological Polar Surface Area>
114.18

>  <Molecular Formula>
C23H21FN4O3S

>  <InChI>
InChI=1S/C23H21FN4O3S/c24-21-11-17(32(30,31)28-16-2-3-16)4-6-18(21)15-10-20(22(25)27-12-15)13-1-5-19-14(9-13)7-8-26-23(19)29/h1,4-6,9-12,16,28H,2-3,7-8H2,(H2,25,27)(H,26,29)

>  <InChI Key>
UZJTTYGNPCEORU-UHFFFAOYSA-N

>  <BindingDB>


>  <PubChem>
122597258

>  <ChEMBL>


$$$$
267
Actelion Java MolfileCreator 2.0

  0  0  0  0  0  0              0 V3000
M  V30 BEGIN CTAB
M  V30 COUNTS 32 36 0 0 0
M  V30 BEGIN ATOM
M  V30 1 S 2.598 -0.75 0.0 0
M  V30 2 O 1.848 -2.049 0.0 0
M  V30 3 O 3.348 -2.049 0.0 0
M  V30 4 N 1.299 0.0 0.0 0
M  V30 5 C 3.8971 0.0 0.0 0
M  V30 6 C 0.0 -0.75 0.0 0
M  V30 7 C 5.1961 -0.75 0.0 0
M  V30 8 C 3.8971 1.5 0.0 0
M  V30 9 C -1.5 -0.75 0.0 0
M  V30 10 C -0.75 -2.049 0.0 0
M  V30 11 C 6.4951 0.0 0.0 0
M  V30 12 C 5.1961 2.25 0.0 0
M  V30 13 F 7.7942 -0.75 0.0 0
M  V30 14 C 6.4951 1.5 0.0 0
M  V30 15 C 7.7942 2.25 0.0 0
M  V30 16 C 9.0932 1.5 0.0 0
M  V30 17 C 7.7942 3.75 0.0 0
M  V30 18 N 10.3923 2.25 0.0 0
M  V30 19 C 9.0932 4.5 0.0 0
M  V30 20 C 10.3923 3.75 0.0 0
M  V30 21 C 9.0932 6.0 0.0 0
M  V30 22 N 11.6913 4.5 0.0 0
M  V30 23 C 10.3923 6.75 0.0 0
M  V30 24 C 7.7942 6.75 0.0 0
M  V30 25 C 10.3923 8.25 0.0 0
M  V30 26 C 7.7942 8.25 0.0 0
M  V30 27 C 9.0932 9.0 0.0 0
M  V30 28 C 11.6913 9.0 0.0 0
M  V30 29 C 9.0932 10.5 0.0 0
M  V30 30 C 11.6913 10.5 0.0 0
M  V30 31 O 7.7942 11.25 0.0 0
M  V30 32 N 10.3923 11.25 0.0 0
M  V30 END ATOM
M  V30 BEGIN BOND
M  V30 1 2 1 2
M  V30 2 2 1 3
M  V30 3 1 1 4
M  V30 4 1 1 5
M  V30 5 1 4 6
M  V30 6 2 5 7
M  V30 7 1 5 8
M  V30 8 1 6 9
M  V30 9 1 6 10
M  V30 10 1 7 11
M  V30 11 2 8 12
M  V30 12 1 11 13
M  V30 13 2 11 14
M  V30 14 1 14 15
M  V30 15 2 15 16
M  V30 16 1 15 17
M  V30 17 1 16 18
M  V30 18 2 17 19
M  V30 19 2 18 20
M  V30 20 1 19 21
M  V30 21 1 20 22
M  V30 22 2 21 23
M  V30 23 1 21 24
M  V30 24 1 23 25
M  V30 25 2 24 26
M  V30 26 2 25 27
M  V30 27 1 25 28
M  V30 28 1 27 29
M  V30 29 1 28 30
M  V30 30 2 29 31
M  V30 31 1 29 32
M  V30 32 1 9 10
M  V30 33 1 12 14
M  V30 34 1 19 20
M  V30 35 1 26 27
M  V30 36 1 30 32
M  V30 END BOND
M  V30 END CTAB
M  END
>  <Molecule Name>
Compound 974

>  <Molecule Name 2>
Compound 974

>  <Compound ID>
267

>  <Name>


>  <Uniprot>
Q8TDR2

>  <Target>
STK35

>  <Smiles>
NC1=NC=C(C2=CC=C(S(=O)(=O)NC3CC3)C=C2F)C=C1C1=CC=C2C(=O)NCCC2=C1

>  <Kd (nM)>


>  <Assay (Kd)>


>  <Ki (nM)>


>  <Assay (Ki)>


>  <IC50 (nM)>


>  <Assay (IC50)>


>  <EC50 (nM)>


>  <Assay (EC50)>


>  <Article DOI>
10.1016/j.cell.2020.10.038

>  <Molecular Weight>
452.511

>  <Exact Mass>
452.1318398

>  <XLogP3>
2.69

>  <Heavy Atom Count>
32

>  <Ring Count>
5

>  <Hydrogen Bond Acceptor Count>
5

>  <Hydrogen Bond Donor Count>
3

>  <Rotatable Bond Count>
5

>  <Topological Polar Surface Area>
114.18

>  <Molecular Formula>
C23H21FN4O3S

>  <InChI>
InChI=1S/C23H21FN4O3S/c24-21-11-17(32(30,31)28-16-2-3-16)4-6-18(21)15-10-20(22(25)27-12-15)13-1-5-19-14(9-13)7-8-26-23(19)29/h1,4-6,9-12,16,28H,2-3,7-8H2,(H2,25,27)(H,26,29)

>  <InChI Key>
UZJTTYGNPCEORU-UHFFFAOYSA-N

>  <BindingDB>


>  <PubChem>
122597258

>  <ChEMBL>


$$$$
267
Actelion Java MolfileCreator 2.0

  0  0  0  0  0  0              0 V3000
M  V30 BEGIN CTAB
M  V30 COUNTS 32 36 0 0 0
M  V30 BEGIN ATOM
M  V30 1 S 2.598 -0.75 0.0 0
M  V30 2 O 1.848 -2.049 0.0 0
M  V30 3 O 3.348 -2.049 0.0 0
M  V30 4 N 1.299 0.0 0.0 0
M  V30 5 C 3.8971 0.0 0.0 0
M  V30 6 C 0.0 -0.75 0.0 0
M  V30 7 C 5.1961 -0.75 0.0 0
M  V30 8 C 3.8971 1.5 0.0 0
M  V30 9 C -1.5 -0.75 0.0 0
M  V30 10 C -0.75 -2.049 0.0 0
M  V30 11 C 6.4951 0.0 0.0 0
M  V30 12 C 5.1961 2.25 0.0 0
M  V30 13 F 7.7942 -0.75 0.0 0
M  V30 14 C 6.4951 1.5 0.0 0
M  V30 15 C 7.7942 2.25 0.0 0
M  V30 16 C 9.0932 1.5 0.0 0
M  V30 17 C 7.7942 3.75 0.0 0
M  V30 18 N 10.3923 2.25 0.0 0
M  V30 19 C 9.0932 4.5 0.0 0
M  V30 20 C 10.3923 3.75 0.0 0
M  V30 21 C 9.0932 6.0 0.0 0
M  V30 22 N 11.6913 4.5 0.0 0
M  V30 23 C 10.3923 6.75 0.0 0
M  V30 24 C 7.7942 6.75 0.0 0
M  V30 25 C 10.3923 8.25 0.0 0
M  V30 26 C 7.7942 8.25 0.0 0
M  V30 27 C 9.0932 9.0 0.0 0
M  V30 28 C 11.6913 9.0 0.0 0
M  V30 29 C 9.0932 10.5 0.0 0
M  V30 30 C 11.6913 10.5 0.0 0
M  V30 31 O 7.7942 11.25 0.0 0
M  V30 32 N 10.3923 11.25 0.0 0
M  V30 END ATOM
M  V30 BEGIN BOND
M  V30 1 2 1 2
M  V30 2 2 1 3
M  V30 3 1 1 4
M  V30 4 1 1 5
M  V30 5 1 4 6
M  V30 6 2 5 7
M  V30 7 1 5 8
M  V30 8 1 6 9
M  V30 9 1 6 10
M  V30 10 1 7 11
M  V30 11 2 8 12
M  V30 12 1 11 13
M  V30 13 2 11 14
M  V30 14 1 14 15
M  V30 15 2 15 16
M  V30 16 1 15 17
M  V30 17 1 16 18
M  V30 18 2 17 19
M  V30 19 2 18 20
M  V30 20 1 19 21
M  V30 21 1 20 22
M  V30 22 2 21 23
M  V30 23 1 21 24
M  V30 24 1 23 25
M  V30 25 2 24 26
M  V30 26 2 25 27
M  V30 27 1 25 28
M  V30 28 1 27 29
M  V30 29 1 28 30
M  V30 30 2 29 31
M  V30 31 1 29 32
M  V30 32 1 9 10
M  V30 33 1 12 14
M  V30 34 1 19 20
M  V30 35 1 26 27
M  V30 36 1 30 32
M  V30 END BOND
M  V30 END CTAB
M  END
>  <Molecule Name>
Compound 975

>  <Molecule Name 2>
Compound 975

>  <Compound ID>
267

>  <Name>


>  <Uniprot>
Q13043

>  <Target>
STK4

>  <Smiles>
NC1=NC=C(C2=CC=C(S(=O)(=O)NC3CC3)C=C2F)C=C1C1=CC=C2C(=O)NCCC2=C1

>  <Kd (nM)>


>  <Assay (Kd)>


>  <Ki (nM)>


>  <Assay (Ki)>


>  <IC50 (nM)>


>  <Assay (IC50)>


>  <EC50 (nM)>


>  <Assay (EC50)>


>  <Article DOI>


>  <Molecular Weight>
452.511

>  <Exact Mass>
452.1318398

>  <XLogP3>
2.69

>  <Heavy Atom Count>
32

>  <Ring Count>
5

>  <Hydrogen Bond Acceptor Count>
5

>  <Hydrogen Bond Donor Count>
3

>  <Rotatable Bond Count>
5

>  <Topological Polar Surface Area>
114.18

>  <Molecular Formula>
C23H21FN4O3S

>  <InChI>
InChI=1S/C23H21FN4O3S/c24-21-11-17(32(30,31)28-16-2-3-16)4-6-18(21)15-10-20(22(25)27-12-15)13-1-5-19-14(9-13)7-8-26-23(19)29/h1,4-6,9-12,16,28H,2-3,7-8H2,(H2,25,27)(H,26,29)

>  <InChI Key>
UZJTTYGNPCEORU-UHFFFAOYSA-N

>  <BindingDB>


>  <PubChem>
122597258

>  <ChEMBL>


$$$$
268
Actelion Java MolfileCreator 2.0

  0  0  0  0  0  0              0 V3000
M  V30 BEGIN CTAB
M  V30 COUNTS 11 11 0 0 0
M  V30 BEGIN ATOM
M  V30 1 O 2.598 0.0 0.0 0
M  V30 2 C 1.732 -0.5 0.0 0
M  V30 3 N 0.866 0.0 0.0 0
M  V30 4 C 1.732 -1.5 0.0 0
M  V30 5 O 0.0 -0.5 0.0 0
M  V30 6 C 0.866 -1.9999 0.0 0
M  V30 7 C 2.598 -2.0 0.0 0
M  V30 8 C 0.866 -2.9999 0.0 0
M  V30 9 C 2.598 -3.0 0.0 0
M  V30 10 C 1.732 -3.5 0.0 0
M  V30 11 C 0.0 -3.4999 0.0 0
M  V30 END ATOM
M  V30 BEGIN BOND
M  V30 1 2 1 2
M  V30 2 1 2 3
M  V30 3 1 2 4
M  V30 4 1 3 5
M  V30 5 2 4 6
M  V30 6 1 4 7
M  V30 7 1 6 8
M  V30 8 2 7 9
M  V30 9 2 8 10
M  V30 10 1 8 11
M  V30 11 1 9 10
M  V30 END BOND
M  V30 END CTAB
M  END
>  <Molecule Name>
Compound 976

>  <Molecule Name 2>
Compound 976

>  <Compound ID>
268

>  <Name>


>  <Uniprot>
Q9UBN7

>  <Target>
HDAC6

>  <Smiles>
CC1=CC=CC(C(=O)NO)=C1

>  <Kd (nM)>


>  <Assay (Kd)>


>  <Ki (nM)>


>  <Assay (Ki)>


>  <IC50 (nM)>
650

>  <Assay (IC50)>
IC50 was assessed by fluorescence assay

>  <EC50 (nM)>


>  <Assay (EC50)>


>  <Article DOI>
10.1021/jm400390r

>  <Molecular Weight>
151.165

>  <Exact Mass>
151.0633285

>  <XLogP3>
1.63

>  <Heavy Atom Count>
11

>  <Ring Count>
1

>  <Hydrogen Bond Acceptor Count>
2

>  <Hydrogen Bond Donor Count>
2

>  <Rotatable Bond Count>
1

>  <Topological Polar Surface Area>
49.33

>  <Molecular Formula>
C8H9NO2

>  <InChI>
InChI=1S/C8H9NO2/c1-6-3-2-4-7(5-6)8(10)9-11/h2-5,11H,1H3,(H,9,10)

>  <InChI Key>
HMIQPPRQWABYPJ-UHFFFAOYSA-N

>  <BindingDB>


>  <PubChem>
4288771

>  <ChEMBL>
CHEMBL2381522

$$$$
268
Actelion Java MolfileCreator 2.0

  0  0  0  0  0  0              0 V3000
M  V30 BEGIN CTAB
M  V30 COUNTS 11 11 0 0 0
M  V30 BEGIN ATOM
M  V30 1 O 2.598 0.0 0.0 0
M  V30 2 C 1.732 -0.5 0.0 0
M  V30 3 N 0.866 0.0 0.0 0
M  V30 4 C 1.732 -1.5 0.0 0
M  V30 5 O 0.0 -0.5 0.0 0
M  V30 6 C 0.866 -1.9999 0.0 0
M  V30 7 C 2.598 -2.0 0.0 0
M  V30 8 C 0.866 -2.9999 0.0 0
M  V30 9 C 2.598 -3.0 0.0 0
M  V30 10 C 1.732 -3.5 0.0 0
M  V30 11 C 0.0 -3.4999 0.0 0
M  V30 END ATOM
M  V30 BEGIN BOND
M  V30 1 2 1 2
M  V30 2 1 2 3
M  V30 3 1 2 4
M  V30 4 1 3 5
M  V30 5 2 4 6
M  V30 6 1 4 7
M  V30 7 1 6 8
M  V30 8 2 7 9
M  V30 9 2 8 10
M  V30 10 1 8 11
M  V30 11 1 9 10
M  V30 END BOND
M  V30 END CTAB
M  END
>  <Molecule Name>
Compound 977

>  <Molecule Name 2>
Compound 977

>  <Compound ID>
268

>  <Name>


>  <Uniprot>
Q9BY41

>  <Target>
HDAC8

>  <Smiles>
CC1=CC=CC(C(=O)NO)=C1

>  <Kd (nM)>


>  <Assay (Kd)>


>  <Ki (nM)>


>  <Assay (Ki)>


>  <IC50 (nM)>
3300

>  <Assay (IC50)>
IC50 was assessed by fluorescence assay

>  <EC50 (nM)>


>  <Assay (EC50)>


>  <Article DOI>
10.1021/jm400390r

>  <Molecular Weight>
151.165

>  <Exact Mass>
151.0633285

>  <XLogP3>
1.63

>  <Heavy Atom Count>
11

>  <Ring Count>
1

>  <Hydrogen Bond Acceptor Count>
2

>  <Hydrogen Bond Donor Count>
2

>  <Rotatable Bond Count>
1

>  <Topological Polar Surface Area>
49.33

>  <Molecular Formula>
C8H9NO2

>  <InChI>
InChI=1S/C8H9NO2/c1-6-3-2-4-7(5-6)8(10)9-11/h2-5,11H,1H3,(H,9,10)

>  <InChI Key>
HMIQPPRQWABYPJ-UHFFFAOYSA-N

>  <BindingDB>


>  <PubChem>
4288771

>  <ChEMBL>
CHEMBL2381522

$$$$
269
Actelion Java MolfileCreator 2.0

  0  0  0  0  0  0              0 V3000
M  V30 BEGIN CTAB
M  V30 COUNTS 14 14 0 0 0
M  V30 BEGIN ATOM
M  V30 1 O 4.3301 3.0 0.0 0
M  V30 2 C 3.4641 2.5 0.0 0
M  V30 3 N 2.598 3.0 0.0 0
M  V30 4 C 3.4641 1.5 0.0 0
M  V30 5 O 1.732 2.5 0.0 0
M  V30 6 C 2.598 1.0 0.0 0
M  V30 7 C 4.3301 1.0 0.0 0
M  V30 8 C 2.598 0.0 0.0 0
M  V30 9 C 4.3301 0.0 0.0 0
M  V30 10 C 1.732 -0.5 0.0 0
M  V30 11 C 3.4641 -0.4999 0.0 0
M  V30 12 O 1.732 -1.5 0.0 0
M  V30 13 N 0.866 0.0 0.0 0
M  V30 14 C 0.0 -0.5 0.0 0
M  V30 END ATOM
M  V30 BEGIN BOND
M  V30 1 2 1 2
M  V30 2 1 2 3
M  V30 3 1 2 4
M  V30 4 1 3 5
M  V30 5 2 4 6
M  V30 6 1 4 7
M  V30 7 1 6 8
M  V30 8 2 7 9
M  V30 9 1 8 10
M  V30 10 2 8 11
M  V30 11 2 10 12
M  V30 12 1 10 13
M  V30 13 1 13 14
M  V30 14 1 9 11
M  V30 END BOND
M  V30 END CTAB
M  END
>  <Molecule Name>
Compound 978

>  <Molecule Name 2>
Compound 978

>  <Compound ID>
269

>  <Name>


>  <Uniprot>
Q9UBN7

>  <Target>
HDAC6

>  <Smiles>
CNC(=O)C1=CC=CC(C(=O)NO)=C1

>  <Kd (nM)>


>  <Assay (Kd)>


>  <Ki (nM)>


>  <Assay (Ki)>


>  <IC50 (nM)>
2500

>  <Assay (IC50)>
IC50 was assessed by fluorescence assay

>  <EC50 (nM)>


>  <Assay (EC50)>


>  <Article DOI>
10.1021/jm400390r

>  <Molecular Weight>
194.19

>  <Exact Mass>
194.0691422

>  <XLogP3>
-0.46

>  <Heavy Atom Count>
14

>  <Ring Count>
1

>  <Hydrogen Bond Acceptor Count>
3

>  <Hydrogen Bond Donor Count>
3

>  <Rotatable Bond Count>
2

>  <Topological Polar Surface Area>
78.43

>  <Molecular Formula>
C9H10N2O3

>  <InChI>
InChI=1S/C9H10N2O3/c1-10-8(12)6-3-2-4-7(5-6)9(13)11-14/h2-5,14H,1H3,(H,10,12)(H,11,13)

>  <InChI Key>
OTVCGIWBAYNHOW-UHFFFAOYSA-N

>  <BindingDB>


>  <PubChem>
71680917

>  <ChEMBL>
CHEMBL2381521

$$$$
269
Actelion Java MolfileCreator 2.0

  0  0  0  0  0  0              0 V3000
M  V30 BEGIN CTAB
M  V30 COUNTS 14 14 0 0 0
M  V30 BEGIN ATOM
M  V30 1 O 4.3301 3.0 0.0 0
M  V30 2 C 3.4641 2.5 0.0 0
M  V30 3 N 2.598 3.0 0.0 0
M  V30 4 C 3.4641 1.5 0.0 0
M  V30 5 O 1.732 2.5 0.0 0
M  V30 6 C 2.598 1.0 0.0 0
M  V30 7 C 4.3301 1.0 0.0 0
M  V30 8 C 2.598 0.0 0.0 0
M  V30 9 C 4.3301 0.0 0.0 0
M  V30 10 C 1.732 -0.5 0.0 0
M  V30 11 C 3.4641 -0.4999 0.0 0
M  V30 12 O 1.732 -1.5 0.0 0
M  V30 13 N 0.866 0.0 0.0 0
M  V30 14 C 0.0 -0.5 0.0 0
M  V30 END ATOM
M  V30 BEGIN BOND
M  V30 1 2 1 2
M  V30 2 1 2 3
M  V30 3 1 2 4
M  V30 4 1 3 5
M  V30 5 2 4 6
M  V30 6 1 4 7
M  V30 7 1 6 8
M  V30 8 2 7 9
M  V30 9 1 8 10
M  V30 10 2 8 11
M  V30 11 2 10 12
M  V30 12 1 10 13
M  V30 13 1 13 14
M  V30 14 1 9 11
M  V30 END BOND
M  V30 END CTAB
M  END
>  <Molecule Name>
Compound 979

>  <Molecule Name 2>
Compound 979

>  <Compound ID>
269

>  <Name>


>  <Uniprot>
Q9BY41

>  <Target>
HDAC8

>  <Smiles>
CNC(=O)C1=CC=CC(C(=O)NO)=C1

>  <Kd (nM)>


>  <Assay (Kd)>


>  <Ki (nM)>


>  <Assay (Ki)>


>  <IC50 (nM)>
14000

>  <Assay (IC50)>
IC50 was assessed by fluorescence assay

>  <EC50 (nM)>


>  <Assay (EC50)>


>  <Article DOI>
10.1021/jm400390r

>  <Molecular Weight>
194.19

>  <Exact Mass>
194.0691422

>  <XLogP3>
-0.46

>  <Heavy Atom Count>
14

>  <Ring Count>
1

>  <Hydrogen Bond Acceptor Count>
3

>  <Hydrogen Bond Donor Count>
3

>  <Rotatable Bond Count>
2

>  <Topological Polar Surface Area>
78.43

>  <Molecular Formula>
C9H10N2O3

>  <InChI>
InChI=1S/C9H10N2O3/c1-10-8(12)6-3-2-4-7(5-6)9(13)11-14/h2-5,14H,1H3,(H,10,12)(H,11,13)

>  <InChI Key>
OTVCGIWBAYNHOW-UHFFFAOYSA-N

>  <BindingDB>


>  <PubChem>
71680917

>  <ChEMBL>
CHEMBL2381521

$$$$
270
Actelion Java MolfileCreator 2.0

  0  0  0  0  0  0              0 V3000
M  V30 BEGIN CTAB
M  V30 COUNTS 36 41 0 0 0
M  V30 BEGIN ATOM
M  V30 1 O 2.598 -5.25 0.0 0
M  V30 2 C 3.8971 -4.5 0.0 0
M  V30 3 C 3.8971 -3.0 0.0 0
M  V30 4 C 5.1961 -5.25 0.0 0
M  V30 5 C 5.1961 -2.25 0.0 0
M  V30 6 C 2.598 -2.25 0.0 0
M  V30 7 C 5.508 -6.7172 0.0 0
M  V30 8 C 6.4951 -4.5 0.0 0
M  V30 9 C 5.1961 -0.75 0.0 0
M  V30 10 C 6.4951 -3.0 0.0 0
M  V30 11 C 2.598 -0.75 0.0 0
M  V30 12 C 6.9998 -6.874 0.0 0
M  V30 13 C 4.6263 -7.9307 0.0 0
M  V30 14 N 7.6099 -5.5037 0.0 0
M  V30 15 C 3.8971 0.0 0.0 0
M  V30 16 C 7.9951 -3.0 0.0 0
M  V30 17 C 7.2451 -1.7009 0.0 0
M  V30 18 C 1.299 0.0 0.0 0
M  V30 19 C 7.6099 -8.2443 0.0 0
M  V30 20 C 5.2364 -9.301 0.0 0
M  V30 21 N 3.8971 1.5 0.0 0
M  V30 22 C 0.0 -0.75 0.0 0
M  V30 23 C 6.7282 -9.4578 0.0 0
M  V30 24 C 5.1961 2.25 0.0 0
M  V30 25 C 2.598 2.25 0.0 0
M  V30 26 C 7.3383 -10.8281 0.0 0
M  V30 27 C 5.1961 3.75 0.0 0
M  V30 28 C 2.598 3.75 0.0 0
M  V30 29 N 7.9484 -12.1985 0.0 0
M  V30 30 C 3.8971 4.5 0.0 0
M  V30 31 N 3.8971 6.0 0.0 0
M  V30 32 C 5.1961 6.75 0.0 0
M  V30 33 C 2.598 6.75 0.0 0
M  V30 34 C 5.1961 8.25 0.0 0
M  V30 35 C 2.598 8.25 0.0 0
M  V30 36 O 3.8971 9.0 0.0 0
M  V30 END ATOM
M  V30 BEGIN BOND
M  V30 1 2 1 2
M  V30 2 1 2 3
M  V30 3 1 2 4
M  V30 4 2 3 5
M  V30 5 1 3 6
M  V30 6 1 4 7
M  V30 7 2 4 8
M  V30 8 1 5 9
M  V30 9 1 5 10
M  V30 10 2 6 11
M  V30 11 2 7 12
M  V30 12 1 7 13
M  V30 13 1 8 14
M  V30 14 2 9 15
M  V30 15 1 10 16
M  V30 16 1 10 17
M  V30 17 1 11 18
M  V30 18 1 12 19
M  V30 19 2 13 20
M  V30 20 1 15 21
M  V30 21 1 18 22
M  V30 22 2 19 23
M  V30 23 1 21 24
M  V30 24 1 21 25
M  V30 25 1 23 26
M  V30 26 1 24 27
M  V30 27 1 25 28
M  V30 28 3 26 29
M  V30 29 1 27 30
M  V30 30 1 30 31
M  V30 31 1 31 32
M  V30 32 1 31 33
M  V30 33 1 32 34
M  V30 34 1 33 35
M  V30 35 1 34 36
M  V30 36 1 8 10
M  V30 37 1 11 15
M  V30 38 1 12 14
M  V30 39 1 20 23
M  V30 40 1 28 30
M  V30 41 1 35 36
M  V30 END BOND
M  V30 END CTAB
M  END
>  <Molecule Name>
Compound 980

>  <Molecule Name 2>
Compound 980

>  <Compound ID>
270

>  <Name>
Alectinib

>  <Uniprot>
Q9UM73

>  <Target>
ALK

>  <Smiles>
CCC1=CC2=C(C=C1N1CCC(N3CCOCC3)CC1)C(C)(C)C1=C(C2=O)C2=CC=C(C#N)C=C2[NH]1

>  <Kd (nM)>


>  <Assay (Kd)>


>  <Ki (nM)>


>  <Assay (Ki)>


>  <IC50 (nM)>
1.9

>  <Assay (IC50)>
IC50 was assessed by TR-FRET assay

>  <EC50 (nM)>


>  <Assay (EC50)>


>  <Article DOI>
10.1016/j.bmc.2011.12.021

>  <Molecular Weight>
482.628

>  <Exact Mass>
482.2681763

>  <XLogP3>
5.25

>  <Heavy Atom Count>
36

>  <Ring Count>
6

>  <Hydrogen Bond Acceptor Count>
5

>  <Hydrogen Bond Donor Count>
1

>  <Rotatable Bond Count>
3

>  <Topological Polar Surface Area>
72.36

>  <Molecular Formula>
C30H34N4O2

>  <InChI>
InChI=1S/C30H34N4O2/c1-4-20-16-23-24(17-26(20)34-9-7-21(8-10-34)33-11-13-36-14-12-33)30(2,3)29-27(28(23)35)22-6-5-19(18-31)15-25(22)32-29/h5-6,15-17,21,32H,4,7-14H2,1-3H3

>  <InChI Key>
KDGFLJKFZUIJMX-UHFFFAOYSA-N

>  <BindingDB>
50362781

>  <PubChem>
49806720

>  <ChEMBL>
CHEMBL1738797

$$$$
271
Actelion Java MolfileCreator 2.0

  0  0  0  0  0  0              0 V3000
M  V30 BEGIN CTAB
M  V30 COUNTS 34 37 0 0 0
M  V30 BEGIN ATOM
M  V30 1 Cl 9.5262 -2.0 0.0 0
M  V30 2 C 8.6602 -1.5 0.0 0
M  V30 3 C 7.7942 -2.0 0.0 0
M  V30 4 C 8.6602 -0.5 0.0 0
M  V30 5 F 7.7942 -3.0 0.0 0
M  V30 6 C 6.9282 -1.5 0.0 0
M  V30 7 C 7.7942 0.0 0.0 0
M  V30 8 C 6.9282 -0.5 0.0 0
M  V30 9 N 7.7942 0.9999 0.0 0
M  V30 10 C 6.9282 1.4999 0.0 0
M  V30 11 N 6.9282 2.4999 0.0 0
M  V30 12 C 6.0621 0.9999 0.0 0
M  V30 13 C 6.0621 2.9999 0.0 0
M  V30 14 C 5.1961 1.4999 0.0 0
M  V30 15 C 6.0621 0.0 0.0 0
M  V30 16 N 5.1961 2.4999 0.0 0
M  V30 17 C 4.3301 0.9999 0.0 0
M  V30 18 C 5.1961 -0.5 0.0 0
M  V30 19 C 4.3301 0.0 0.0 0
M  V30 20 N 5.1961 -1.5 0.0 0
M  V30 21 O 3.4641 -0.5 0.0 0
M  V30 22 C 4.3301 -2.0 0.0 0
M  V30 23 C 2.598 0.0 0.0 0
M  V30 24 O 3.4641 -1.5 0.0 0
M  V30 25 C 4.3301 -3.0 0.0 0
M  V30 26 C 1.732 -0.5 0.0 0
M  V30 27 C 3.4641 -3.5 0.0 0
M  V30 28 C 0.866 0.0 0.0 0
M  V30 29 N 0.0 -0.5 0.0 0
M  V30 30 C -0.866 0.0 0.0 0
M  V30 31 C 0.0 -1.4999 0.0 0
M  V30 32 C -1.732 -0.4999 0.0 0
M  V30 33 C -0.866 -1.9999 0.0 0
M  V30 34 O -1.732 -1.4999 0.0 0
M  V30 END ATOM
M  V30 BEGIN BOND
M  V30 1 1 1 2
M  V30 2 2 2 3
M  V30 3 1 2 4
M  V30 4 1 3 5
M  V30 5 1 3 6
M  V30 6 2 4 7
M  V30 7 2 6 8
M  V30 8 1 7 9
M  V30 9 1 9 10
M  V30 10 2 10 11
M  V30 11 1 10 12
M  V30 12 1 11 13
M  V30 13 1 12 14
M  V30 14 2 12 15
M  V30 15 2 13 16
M  V30 16 2 14 17
M  V30 17 1 15 18
M  V30 18 1 17 19
M  V30 19 1 18 20
M  V30 20 1 19 21
M  V30 21 1 20 22
M  V30 22 1 21 23
M  V30 23 2 22 24
M  V30 24 1 22 25
M  V30 25 1 23 26
M  V30 26 2 25 27
M  V30 27 1 26 28
M  V30 28 1 28 29
M  V30 29 1 29 30
M  V30 30 1 29 31
M  V30 31 1 30 32
M  V30 32 1 31 33
M  V30 33 1 32 34
M  V30 34 1 7 8
M  V30 35 1 14 16
M  V30 36 2 18 19
M  V30 37 1 33 34
M  V30 END BOND
M  V30 END CTAB
M  END
>  <Molecule Name>
Compound 981

>  <Molecule Name 2>
Compound 981

>  <Compound ID>
271

>  <Name>
Canertinib

>  <Uniprot>
P00533

>  <Target>
EGFR e19d

>  <Smiles>
C=CC(=O)NC1=CC2=C(NC3=CC=C(F)C(Cl)=C3)N=CN=C2C=C1OCCCN1CCOCC1

>  <Kd (nM)>


>  <Assay (Kd)>


>  <Ki (nM)>


>  <Assay (Ki)>


>  <IC50 (nM)>


>  <Assay (IC50)>


>  <EC50 (nM)>


>  <Assay (EC50)>


>  <Article DOI>
10.1016/j.ejmech.2021.113328

>  <Molecular Weight>
485.947

>  <Exact Mass>
485.1629956

>  <XLogP3>
3.9

>  <Heavy Atom Count>
34

>  <Ring Count>
4

>  <Hydrogen Bond Acceptor Count>
7

>  <Hydrogen Bond Donor Count>
2

>  <Rotatable Bond Count>
9

>  <Topological Polar Surface Area>
88.61

>  <Molecular Formula>
C24H25ClFN5O3

>  <InChI>
InChI=1S/C24H25ClFN5O3/c1-2-23(32)30-21-13-17-20(14-22(21)34-9-3-6-31-7-10-33-11-8-31)27-15-28-24(17)29-16-4-5-19(26)18(25)12-16/h2,4-5,12-15H,1,3,6-11H2,(H,30,32)(H,27,28,29)

>  <InChI Key>
OMZCMEYTWSXEPZ-UHFFFAOYSA-N

>  <BindingDB>
4779

>  <PubChem>
156414

>  <ChEMBL>
CHEMBL31965

$$$$
271
Actelion Java MolfileCreator 2.0

  0  0  0  0  0  0              0 V3000
M  V30 BEGIN CTAB
M  V30 COUNTS 34 37 0 0 0
M  V30 BEGIN ATOM
M  V30 1 Cl 9.5262 -2.0 0.0 0
M  V30 2 C 8.6602 -1.5 0.0 0
M  V30 3 C 7.7942 -2.0 0.0 0
M  V30 4 C 8.6602 -0.5 0.0 0
M  V30 5 F 7.7942 -3.0 0.0 0
M  V30 6 C 6.9282 -1.5 0.0 0
M  V30 7 C 7.7942 0.0 0.0 0
M  V30 8 C 6.9282 -0.5 0.0 0
M  V30 9 N 7.7942 0.9999 0.0 0
M  V30 10 C 6.9282 1.4999 0.0 0
M  V30 11 N 6.9282 2.4999 0.0 0
M  V30 12 C 6.0621 0.9999 0.0 0
M  V30 13 C 6.0621 2.9999 0.0 0
M  V30 14 C 5.1961 1.4999 0.0 0
M  V30 15 C 6.0621 0.0 0.0 0
M  V30 16 N 5.1961 2.4999 0.0 0
M  V30 17 C 4.3301 0.9999 0.0 0
M  V30 18 C 5.1961 -0.5 0.0 0
M  V30 19 C 4.3301 0.0 0.0 0
M  V30 20 N 5.1961 -1.5 0.0 0
M  V30 21 O 3.4641 -0.5 0.0 0
M  V30 22 C 4.3301 -2.0 0.0 0
M  V30 23 C 2.598 0.0 0.0 0
M  V30 24 O 3.4641 -1.5 0.0 0
M  V30 25 C 4.3301 -3.0 0.0 0
M  V30 26 C 1.732 -0.5 0.0 0
M  V30 27 C 3.4641 -3.5 0.0 0
M  V30 28 C 0.866 0.0 0.0 0
M  V30 29 N 0.0 -0.5 0.0 0
M  V30 30 C -0.866 0.0 0.0 0
M  V30 31 C 0.0 -1.4999 0.0 0
M  V30 32 C -1.732 -0.4999 0.0 0
M  V30 33 C -0.866 -1.9999 0.0 0
M  V30 34 O -1.732 -1.4999 0.0 0
M  V30 END ATOM
M  V30 BEGIN BOND
M  V30 1 1 1 2
M  V30 2 2 2 3
M  V30 3 1 2 4
M  V30 4 1 3 5
M  V30 5 1 3 6
M  V30 6 2 4 7
M  V30 7 2 6 8
M  V30 8 1 7 9
M  V30 9 1 9 10
M  V30 10 2 10 11
M  V30 11 1 10 12
M  V30 12 1 11 13
M  V30 13 1 12 14
M  V30 14 2 12 15
M  V30 15 2 13 16
M  V30 16 2 14 17
M  V30 17 1 15 18
M  V30 18 1 17 19
M  V30 19 1 18 20
M  V30 20 1 19 21
M  V30 21 1 20 22
M  V30 22 1 21 23
M  V30 23 2 22 24
M  V30 24 1 22 25
M  V30 25 1 23 26
M  V30 26 2 25 27
M  V30 27 1 26 28
M  V30 28 1 28 29
M  V30 29 1 29 30
M  V30 30 1 29 31
M  V30 31 1 30 32
M  V30 32 1 31 33
M  V30 33 1 32 34
M  V30 34 1 7 8
M  V30 35 1 14 16
M  V30 36 2 18 19
M  V30 37 1 33 34
M  V30 END BOND
M  V30 END CTAB
M  END
>  <Molecule Name>
Compound 982

>  <Molecule Name 2>
Compound 982

>  <Compound ID>
271

>  <Name>
Canertinib

>  <Uniprot>
P00533

>  <Target>
EGFR L858R/T790M

>  <Smiles>
C=CC(=O)NC1=CC2=C(NC3=CC=C(F)C(Cl)=C3)N=CN=C2C=C1OCCCN1CCOCC1

>  <Kd (nM)>


>  <Assay (Kd)>


>  <Ki (nM)>
0.11

>  <Assay (Ki)>
Reversible binding affinity to EGFR L858R/T790M expressed in baculovirus by fluorometric analysis

>  <IC50 (nM)>


>  <Assay (IC50)>


>  <EC50 (nM)>


>  <Assay (EC50)>


>  <Article DOI>
10.1021/acs.jmedchem.5b01633

>  <Molecular Weight>
485.947

>  <Exact Mass>
485.1629956

>  <XLogP3>
3.9

>  <Heavy Atom Count>
34

>  <Ring Count>
4

>  <Hydrogen Bond Acceptor Count>
7

>  <Hydrogen Bond Donor Count>
2

>  <Rotatable Bond Count>
9

>  <Topological Polar Surface Area>
88.61

>  <Molecular Formula>
C24H25ClFN5O3

>  <InChI>
InChI=1S/C24H25ClFN5O3/c1-2-23(32)30-21-13-17-20(14-22(21)34-9-3-6-31-7-10-33-11-8-31)27-15-28-24(17)29-16-4-5-19(26)18(25)12-16/h2,4-5,12-15H,1,3,6-11H2,(H,30,32)(H,27,28,29)

>  <InChI Key>
OMZCMEYTWSXEPZ-UHFFFAOYSA-N

>  <BindingDB>
4779

>  <PubChem>
156414

>  <ChEMBL>
CHEMBL31965

$$$$
271
Actelion Java MolfileCreator 2.0

  0  0  0  0  0  0              0 V3000
M  V30 BEGIN CTAB
M  V30 COUNTS 34 37 0 0 0
M  V30 BEGIN ATOM
M  V30 1 Cl 9.5262 -2.0 0.0 0
M  V30 2 C 8.6602 -1.5 0.0 0
M  V30 3 C 7.7942 -2.0 0.0 0
M  V30 4 C 8.6602 -0.5 0.0 0
M  V30 5 F 7.7942 -3.0 0.0 0
M  V30 6 C 6.9282 -1.5 0.0 0
M  V30 7 C 7.7942 0.0 0.0 0
M  V30 8 C 6.9282 -0.5 0.0 0
M  V30 9 N 7.7942 0.9999 0.0 0
M  V30 10 C 6.9282 1.4999 0.0 0
M  V30 11 N 6.9282 2.4999 0.0 0
M  V30 12 C 6.0621 0.9999 0.0 0
M  V30 13 C 6.0621 2.9999 0.0 0
M  V30 14 C 5.1961 1.4999 0.0 0
M  V30 15 C 6.0621 0.0 0.0 0
M  V30 16 N 5.1961 2.4999 0.0 0
M  V30 17 C 4.3301 0.9999 0.0 0
M  V30 18 C 5.1961 -0.5 0.0 0
M  V30 19 C 4.3301 0.0 0.0 0
M  V30 20 N 5.1961 -1.5 0.0 0
M  V30 21 O 3.4641 -0.5 0.0 0
M  V30 22 C 4.3301 -2.0 0.0 0
M  V30 23 C 2.598 0.0 0.0 0
M  V30 24 O 3.4641 -1.5 0.0 0
M  V30 25 C 4.3301 -3.0 0.0 0
M  V30 26 C 1.732 -0.5 0.0 0
M  V30 27 C 3.4641 -3.5 0.0 0
M  V30 28 C 0.866 0.0 0.0 0
M  V30 29 N 0.0 -0.5 0.0 0
M  V30 30 C -0.866 0.0 0.0 0
M  V30 31 C 0.0 -1.4999 0.0 0
M  V30 32 C -1.732 -0.4999 0.0 0
M  V30 33 C -0.866 -1.9999 0.0 0
M  V30 34 O -1.732 -1.4999 0.0 0
M  V30 END ATOM
M  V30 BEGIN BOND
M  V30 1 1 1 2
M  V30 2 2 2 3
M  V30 3 1 2 4
M  V30 4 1 3 5
M  V30 5 1 3 6
M  V30 6 2 4 7
M  V30 7 2 6 8
M  V30 8 1 7 9
M  V30 9 1 9 10
M  V30 10 2 10 11
M  V30 11 1 10 12
M  V30 12 1 11 13
M  V30 13 1 12 14
M  V30 14 2 12 15
M  V30 15 2 13 16
M  V30 16 2 14 17
M  V30 17 1 15 18
M  V30 18 1 17 19
M  V30 19 1 18 20
M  V30 20 1 19 21
M  V30 21 1 20 22
M  V30 22 1 21 23
M  V30 23 2 22 24
M  V30 24 1 22 25
M  V30 25 1 23 26
M  V30 26 2 25 27
M  V30 27 1 26 28
M  V30 28 1 28 29
M  V30 29 1 29 30
M  V30 30 1 29 31
M  V30 31 1 30 32
M  V30 32 1 31 33
M  V30 33 1 32 34
M  V30 34 1 7 8
M  V30 35 1 14 16
M  V30 36 2 18 19
M  V30 37 1 33 34
M  V30 END BOND
M  V30 END CTAB
M  END
>  <Molecule Name>
Compound 983

>  <Molecule Name 2>
Compound 983

>  <Compound ID>
271

>  <Name>
Canertinib

>  <Uniprot>
P00533

>  <Target>
EGFR

>  <Smiles>
C=CC(=O)NC1=CC2=C(NC3=CC=C(F)C(Cl)=C3)N=CN=C2C=C1OCCCN1CCOCC1

>  <Kd (nM)>
0.19

>  <Assay (Kd)>
Kd was assessed by competition binding assays

>  <Ki (nM)>


>  <Assay (Ki)>


>  <IC50 (nM)>


>  <Assay (IC50)>


>  <EC50 (nM)>


>  <Assay (EC50)>


>  <Article DOI>
10.1038/nbt.1990

>  <Molecular Weight>
485.947

>  <Exact Mass>
485.1629956

>  <XLogP3>
3.9

>  <Heavy Atom Count>
34

>  <Ring Count>
4

>  <Hydrogen Bond Acceptor Count>
7

>  <Hydrogen Bond Donor Count>
2

>  <Rotatable Bond Count>
9

>  <Topological Polar Surface Area>
88.61

>  <Molecular Formula>
C24H25ClFN5O3

>  <InChI>
InChI=1S/C24H25ClFN5O3/c1-2-23(32)30-21-13-17-20(14-22(21)34-9-3-6-31-7-10-33-11-8-31)27-15-28-24(17)29-16-4-5-19(26)18(25)12-16/h2,4-5,12-15H,1,3,6-11H2,(H,30,32)(H,27,28,29)

>  <InChI Key>
OMZCMEYTWSXEPZ-UHFFFAOYSA-N

>  <BindingDB>
4779

>  <PubChem>
156414

>  <ChEMBL>
CHEMBL31965

$$$$
272
Actelion Java MolfileCreator 2.0

  0  0  0  0  0  0              0 V3000
M  V30 BEGIN CTAB
M  V30 COUNTS 28 31 0 0 0
M  V30 BEGIN ATOM
M  V30 1 Cl 2.598 1.0 0.0 0
M  V30 2 C 2.598 0.0 0.0 0
M  V30 3 C 3.4641 -0.4999 0.0 0
M  V30 4 C 1.732 -0.5 0.0 0
M  V30 5 N 3.4641 -1.4999 0.0 0
M  V30 6 N 4.3301 0.0 0.0 0
M  V30 7 S 0.866 0.0 0.0 0
M  V30 8 C 1.732 -1.4999 0.0 0
M  V30 9 C 2.598 -1.9999 0.0 0
M  V30 10 C 0.0 -0.5 0.0 0
M  V30 11 N -0.866 0.0 0.0 0
M  V30 12 C 0.0 -1.4999 0.0 0
M  V30 13 C -1.732 -0.4999 0.0 0
M  V30 14 N -0.866 -1.9999 0.0 0
M  V30 15 N 0.866 -2.0 0.0 0
M  V30 16 C -1.732 -1.4999 0.0 0
M  V30 17 N -2.598 -1.9999 0.0 0
M  V30 18 C -3.4641 -1.4999 0.0 0
M  V30 19 C -2.598 -2.9999 0.0 0
M  V30 20 C -4.3301 -1.9999 0.0 0
M  V30 21 C -3.4641 -3.4999 0.0 0
M  V30 22 C -4.3301 -2.9999 0.0 0
M  V30 23 C -5.2436 -2.5932 0.0 0 CFG=2
M  V30 24 C -4.4346 -3.9945 0.0 0
M  V30 25 N -5.4515 -1.6151 0.0 0
M  V30 26 C -5.9128 -3.3364 0.0 0 CFG=1
M  V30 27 O -5.4128 -4.2024 0.0 0
M  V30 28 C -6.9073 -3.2318 0.0 0
M  V30 END ATOM
M  V30 BEGIN BOND
M  V30 1 1 1 2
M  V30 2 2 2 3
M  V30 3 1 2 4
M  V30 4 1 3 5
M  V30 5 1 3 6
M  V30 6 1 4 7
M  V30 7 2 4 8
M  V30 8 2 5 9
M  V30 9 1 7 10
M  V30 10 2 10 11
M  V30 11 1 10 12
M  V30 12 1 11 13
M  V30 13 2 12 14
M  V30 14 1 12 15
M  V30 15 2 13 16
M  V30 16 1 16 17
M  V30 17 1 17 18
M  V30 18 1 17 19
M  V30 19 1 18 20
M  V30 20 1 19 21
M  V30 21 1 20 22
M  V30 22 1 23 22
M  V30 23 1 22 24
M  V30 24 1 23 25 CFG=1
M  V30 25 1 26 23
M  V30 26 1 24 27
M  V30 27 1 26 28 CFG=1
M  V30 28 1 8 9
M  V30 29 1 14 16
M  V30 30 1 21 22
M  V30 31 1 26 27
M  V30 END BOND
M  V30 BEGIN COLLECTION
M  V30 MDLV30/STEABS ATOMS=(2 23 26)
M  V30 END COLLECTION
M  V30 END CTAB
M  END
>  <Molecule Name>
Compound 984

>  <Molecule Name 2>
Compound 984

>  <Compound ID>
272

>  <Name>
TNO155

>  <Uniprot>
Q06124

>  <Target>
SHP2

>  <Smiles>
C[C@@H]1OCC2(CCN(C3=CN=C(SC4=CC=NC(N)=C4Cl)C(N)=N3)CC2)[C@@H]1N

>  <Kd (nM)>


>  <Assay (Kd)>


>  <Ki (nM)>


>  <Assay (Ki)>


>  <IC50 (nM)>
11

>  <Assay (IC50)>
Inhibition of SHP2

>  <EC50 (nM)>


>  <Assay (EC50)>


>  <Article DOI>
10.1021/acs.jmedchem.0c01170

>  <Molecular Weight>
421.958

>  <Exact Mass>
421.1451571

>  <XLogP3>
1.29

>  <Heavy Atom Count>
28

>  <Ring Count>
4

>  <Hydrogen Bond Acceptor Count>
9

>  <Hydrogen Bond Donor Count>
3

>  <Rotatable Bond Count>
3

>  <Topological Polar Surface Area>
129.2

>  <Molecular Formula>
C18H24ClN7OS

>  <InChI>
InChI=1S/C18H24ClN7OS/c1-10-14(20)18(9-27-10)3-6-26(7-4-18)12-8-24-17(16(22)25-12)28-11-2-5-23-15(21)13(11)19/h2,5,8,10,14H,3-4,6-7,9,20H2,1H3,(H2,21,23)(H2,22,25)/t10-,14+/m0/s1

>  <InChI Key>
UCJZOKGUEJUNIO-IINYFYTJSA-N

>  <BindingDB>


>  <PubChem>
118238370

>  <ChEMBL>


$$$$
273
Actelion Java MolfileCreator 2.0

  0  0  0  0  0  0              0 V3000
M  V30 BEGIN CTAB
M  V30 COUNTS 26 29 0 0 0
M  V30 BEGIN ATOM
M  V30 1 S 1.732 -0.5 0.0 0
M  V30 2 C 2.598 0.0 0.0 0
M  V30 3 C 0.866 0.0 0.0 0
M  V30 4 C 3.4641 -0.4999 0.0 0
M  V30 5 C 2.598 0.9999 0.0 0
M  V30 6 C 0.0 -0.5 0.0 0
M  V30 7 C 4.3301 0.0 0.0 0
M  V30 8 C 3.4641 1.5 0.0 0
M  V30 9 N -0.866 0.0 0.0 0
M  V30 10 N 0.0 -1.4999 0.0 0
M  V30 11 N 4.3301 1.0 0.0 0
M  V30 12 C -1.732 -0.4999 0.0 0
M  V30 13 C -0.866 -1.9999 0.0 0
M  V30 14 C -1.732 -1.4999 0.0 0
M  V30 15 C -2.598 0.0 0.0 0
M  V30 16 O -0.866 -2.9999 0.0 0
M  V30 17 C -2.598 -1.9999 0.0 0
M  V30 18 C -3.4641 -0.4999 0.0 0
M  V30 19 F -2.598 -2.9999 0.0 0
M  V30 20 C -3.4641 -1.4999 0.0 0
M  V30 21 N -4.3301 0.0 0.0 0
M  V30 22 C -5.1961 -0.4999 0.0 0
M  V30 23 C -6.1096 -0.0932 0.0 0
M  V30 24 C -5.3006 -1.4945 0.0 0
M  V30 25 C -6.7788 -0.8364 0.0 0
M  V30 26 C -6.2788 -1.7024 0.0 0
M  V30 END ATOM
M  V30 BEGIN BOND
M  V30 1 1 1 2
M  V30 2 1 1 3
M  V30 3 1 2 4
M  V30 4 1 2 5
M  V30 5 1 3 6
M  V30 6 1 4 7
M  V30 7 1 5 8
M  V30 8 2 6 9
M  V30 9 1 6 10
M  V30 10 1 7 11
M  V30 11 1 9 12
M  V30 12 1 10 13
M  V30 13 2 12 14
M  V30 14 1 12 15
M  V30 15 2 13 16
M  V30 16 1 14 17
M  V30 17 2 15 18
M  V30 18 1 17 19
M  V30 19 2 17 20
M  V30 20 1 18 21
M  V30 21 1 21 22
M  V30 22 1 22 23
M  V30 23 1 22 24
M  V30 24 1 23 25
M  V30 25 1 24 26
M  V30 26 1 8 11
M  V30 27 1 13 14
M  V30 28 1 18 20
M  V30 29 1 25 26
M  V30 END BOND
M  V30 END CTAB
M  END
>  <Molecule Name>
Compound 985

>  <Molecule Name 2>
Compound 985

>  <Compound ID>
273

>  <Name>
RBN012042

>  <Uniprot>
Q460N5

>  <Target>
PARP14

>  <Smiles>
O=C1[NH]C(CSC2CCNCC2)=NC2=CC(NC3CCCC3)=CC(F)=C12

>  <Kd (nM)>


>  <Assay (Kd)>


>  <Ki (nM)>


>  <Assay (Ki)>


>  <IC50 (nM)>
19

>  <Assay (IC50)>
IC50 was assessed by probe displacement assay

>  <EC50 (nM)>


>  <Assay (EC50)>


>  <Article DOI>
10.1002/cbic.202100047

>  <Molecular Weight>
376.501

>  <Exact Mass>
376.1733106

>  <XLogP3>
2.85

>  <Heavy Atom Count>
26

>  <Ring Count>
4

>  <Hydrogen Bond Acceptor Count>
5

>  <Hydrogen Bond Donor Count>
3

>  <Rotatable Bond Count>
5

>  <Topological Polar Surface Area>
69.81

>  <Molecular Formula>
C19H25FN4OS

>  <InChI>
InChI=1S/C19H25FN4OS/c20-15-9-13(22-12-3-1-2-4-12)10-16-18(15)19(25)24-17(23-16)11-26-14-5-7-21-8-6-14/h9-10,12,14,21-22H,1-8,11H2,(H,23,24,25)

>  <InChI Key>
YZDTVOCBHYWUNM-UHFFFAOYSA-N

>  <BindingDB>


>  <PubChem>
138697008

>  <ChEMBL>


$$$$
274
Actelion Java MolfileCreator 2.0

  0  0  0  0  0  0              0 V3000
M  V30 BEGIN CTAB
M  V30 COUNTS 40 44 0 0 0
M  V30 BEGIN ATOM
M  V30 1 Cl 15.5884 -0.5 0.0 0
M  V30 2 C 14.7224 0.0 0.0 0
M  V30 3 C 14.7224 0.9999 0.0 0
M  V30 4 C 13.8564 -0.5 0.0 0
M  V30 5 N 13.8564 1.4999 0.0 0
M  V30 6 C 15.5884 1.4999 0.0 0
M  V30 7 N 12.9903 0.0 0.0 0
M  V30 8 C 12.9903 0.9999 0.0 0
M  V30 9 C 16.502 1.0932 0.0 0
M  V30 10 C 15.6929 2.4945 0.0 0
M  V30 11 N 12.1243 1.4999 0.0 0
M  V30 12 C 17.1711 1.8364 0.0 0
M  V30 13 C 16.811 0.1422 0.0 0
M  V30 14 N 16.6711 2.7024 0.0 0
M  V30 15 C 11.2583 0.9999 0.0 0 CFG=1
M  V30 16 C 18.1492 1.6284 0.0 0
M  V30 17 C 17.7891 -0.0657 0.0 0
M  V30 18 C 10.3923 1.4999 0.0 0
M  V30 19 C 11.2583 0.0 0.0 0
M  V30 20 C 18.4582 0.6774 0.0 0
M  V30 21 N 9.5262 0.9999 0.0 0
M  V30 22 C 10.3923 -0.5 0.0 0
M  V30 23 C 8.6602 1.4999 0.0 0
M  V30 24 C 9.5262 0.0 0.0 0
M  V30 25 O 8.6602 2.4999 0.0 0
M  V30 26 C 7.7942 0.9999 0.0 0
M  V30 27 C 6.9282 1.4999 0.0 0
M  V30 28 C 7.7942 0.0 0.0 0
M  V30 29 C 6.0621 0.9999 0.0 0
M  V30 30 C 6.9282 -0.5 0.0 0
M  V30 31 C 6.0621 0.0 0.0 0
M  V30 32 N 5.1961 -0.5 0.0 0
M  V30 33 C 4.3301 0.0 0.0 0
M  V30 34 O 4.3301 1.0 0.0 0
M  V30 35 C 3.4641 -0.5 0.0 0
M  V30 36 C 2.598 0.0 0.0 0
M  V30 37 C 1.732 -0.5 0.0 0
M  V30 38 N 0.866 0.0 0.0 0
M  V30 39 C 0.866 1.0 0.0 0
M  V30 40 C 0.0 -0.5 0.0 0
M  V30 END ATOM
M  V30 BEGIN BOND
M  V30 1 1 1 2
M  V30 2 2 2 3
M  V30 3 1 2 4
M  V30 4 1 3 5
M  V30 5 1 3 6
M  V30 6 2 4 7
M  V30 7 2 5 8
M  V30 8 1 6 9
M  V30 9 2 6 10
M  V30 10 1 8 11
M  V30 11 2 9 12
M  V30 12 1 9 13
M  V30 13 1 10 14
M  V30 14 1 15 11 CFG=3
M  V30 15 1 12 16
M  V30 16 2 13 17
M  V30 17 1 15 18
M  V30 18 1 15 19
M  V30 19 2 16 20
M  V30 20 1 18 21
M  V30 21 1 19 22
M  V30 22 1 21 23
M  V30 23 1 21 24
M  V30 24 2 23 25
M  V30 25 1 23 26
M  V30 26 2 26 27
M  V30 27 1 26 28
M  V30 28 1 27 29
M  V30 29 2 28 30
M  V30 30 2 29 31
M  V30 31 1 31 32
M  V30 32 1 32 33
M  V30 33 2 33 34
M  V30 34 1 33 35
M  V30 35 2 35 36
M  V30 36 1 36 37
M  V30 37 1 37 38
M  V30 38 1 38 39
M  V30 39 1 38 40
M  V30 40 1 7 8
M  V30 41 1 12 14
M  V30 42 1 17 20
M  V30 43 1 22 24
M  V30 44 1 30 31
M  V30 END BOND
M  V30 BEGIN COLLECTION
M  V30 MDLV30/STEABS ATOMS=(1 15)
M  V30 END COLLECTION
M  V30 END CTAB
M  END
>  <Molecule Name>
Compound 986

>  <Molecule Name 2>
Compound 986

>  <Compound ID>
274

>  <Name>
THZ531

>  <Uniprot>
Q9NYV4

>  <Target>
CDK12

>  <Smiles>
CN(C)C/C=C/C(=O)NC1=CC=C(C(=O)N2CCC[C@@H](NC3=NC=C(Cl)C(C4=C[NH]C5=CC=CC=C45)=N3)C2)C=C1

>  <Kd (nM)>


>  <Assay (Kd)>


>  <Ki (nM)>


>  <Assay (Ki)>


>  <IC50 (nM)>
158

>  <Assay (IC50)>
Competitive irreversible inhibition of CDK12/cyclinK

>  <EC50 (nM)>


>  <Assay (EC50)>


>  <Article DOI>
10.1016/j.bmcl.2019.126637

>  <Molecular Weight>
558.086

>  <Exact Mass>
557.2306009

>  <XLogP3>
4.12

>  <Heavy Atom Count>
40

>  <Ring Count>
5

>  <Hydrogen Bond Acceptor Count>
6

>  <Hydrogen Bond Donor Count>
3

>  <Rotatable Bond Count>
8

>  <Topological Polar Surface Area>
106.25

>  <Molecular Formula>
C30H32ClN7O2

>  <InChI>
InChI=1S/C30H32ClN7O2/c1-37(2)15-6-10-27(39)34-21-13-11-20(12-14-21)29(40)38-16-5-7-22(19-38)35-30-33-18-25(31)28(36-30)24-17-32-26-9-4-3-8-23(24)26/h3-4,6,8-14,17-18,22,32H,5,7,15-16,19H2,1-2H3,(H,34,39)(H,33,35,36)/b10-6+/t22-/m1/s1

>  <InChI Key>
RUBYHLPRZRMTJO-MOVYNIQHSA-N

>  <BindingDB>
50528813

>  <PubChem>
118025540

>  <ChEMBL>
CHEMBL4163879

$$$$
275
Actelion Java MolfileCreator 2.0

  0  0  0  0  0  0              0 V3000
M  V30 BEGIN CTAB
M  V30 COUNTS 27 29 0 0 0
M  V30 BEGIN ATOM
M  V30 1 Cl 0.0 3.75 0.0 0
M  V30 2 C 1.299 4.5 0.0 0
M  V30 3 C 2.598 3.75 0.0 0
M  V30 4 C 1.299 6.0 0.0 0
M  V30 5 N 3.8971 4.5 0.0 0
M  V30 6 N 2.598 2.25 0.0 0
M  V30 7 N 2.598 6.75 0.0 0
M  V30 8 C 3.8971 6.0 0.0 0
M  V30 9 C 3.8971 1.5 0.0 0
M  V30 10 N 5.1961 6.75 0.0 0
M  V30 11 C 3.8971 0.0 0.0 0
M  V30 12 C 5.1961 2.25 0.0 0
M  V30 13 C 5.1961 8.25 0.0 0 CFG=1
M  V30 14 S 2.598 -0.75 0.0 0
M  V30 15 C 5.1961 -0.75 0.0 0
M  V30 16 C 6.4952 1.5 0.0 0
M  V30 17 C 6.4952 9.0 0.0 0
M  V30 18 C 3.8971 9.0 0.0 0
M  V30 19 O 1.848 -2.049 0.0 0
M  V30 20 O 3.348 -2.049 0.0 0
M  V30 21 C 1.299 0.0 0.0 0
M  V30 22 C 6.4952 0.0 0.0 0
M  V30 23 N 6.4952 10.5 0.0 0
M  V30 24 C 3.8971 10.5 0.0 0
M  V30 25 C 1.299 1.5 0.0 0
M  V30 26 C 0.0 -0.75 0.0 0
M  V30 27 C 5.1961 11.25 0.0 0
M  V30 END ATOM
M  V30 BEGIN BOND
M  V30 1 1 1 2
M  V30 2 2 2 3
M  V30 3 1 2 4
M  V30 4 1 3 5
M  V30 5 1 3 6
M  V30 6 2 4 7
M  V30 7 2 5 8
M  V30 8 1 6 9
M  V30 9 1 8 10
M  V30 10 2 9 11
M  V30 11 1 9 12
M  V30 12 1 13 10 CFG=3
M  V30 13 1 11 14
M  V30 14 1 11 15
M  V30 15 2 12 16
M  V30 16 1 13 17
M  V30 17 1 13 18
M  V30 18 2 14 19
M  V30 19 2 14 20
M  V30 20 1 14 21
M  V30 21 2 15 22
M  V30 22 1 17 23
M  V30 23 1 18 24
M  V30 24 1 21 25
M  V30 25 1 21 26
M  V30 26 1 23 27
M  V30 27 1 7 8
M  V30 28 1 16 22
M  V30 29 1 24 27
M  V30 END BOND
M  V30 BEGIN COLLECTION
M  V30 MDLV30/STEABS ATOMS=(1 13)
M  V30 END COLLECTION
M  V30 END CTAB
M  END
>  <Molecule Name>
Compound 987

>  <Molecule Name 2>
Compound 987

>  <Compound ID>
275

>  <Name>


>  <Uniprot>
Q9NYV4

>  <Target>
CDK12

>  <Smiles>
CC(C)S(=O)(=O)C1=CC=CC=C1NC1=NC(N[C@@H]2CCCNC2)=NC=C1Cl

>  <Kd (nM)>


>  <Assay (Kd)>


>  <Ki (nM)>


>  <Assay (Ki)>


>  <IC50 (nM)>


>  <Assay (IC50)>


>  <EC50 (nM)>


>  <Assay (EC50)>


>  <Article DOI>
10.1038/s41589-021-00765-y

>  <Molecular Weight>
409.943

>  <Exact Mass>
409.1339237

>  <XLogP3>
3.74

>  <Heavy Atom Count>
27

>  <Ring Count>
3

>  <Hydrogen Bond Acceptor Count>
7

>  <Hydrogen Bond Donor Count>
3

>  <Rotatable Bond Count>
6

>  <Topological Polar Surface Area>
96.01

>  <Molecular Formula>
C18H24ClN5O2S

>  <InChI>
InChI=1S/C18H24ClN5O2S/c1-12(2)27(25,26)16-8-4-3-7-15(16)23-17-14(19)11-21-18(24-17)22-13-6-5-9-20-10-13/h3-4,7-8,11-13,20H,5-6,9-10H2,1-2H3,(H2,21,22,23,24)/t13-/m1/s1

>  <InChI Key>
FPZZWAVDOQUIAK-CYBMUJFWSA-N

>  <BindingDB>


>  <PubChem>
155235850

>  <ChEMBL>


$$$$
276
Actelion Java MolfileCreator 2.0

  0  0  0  0  0  0              0 V3000
M  V30 BEGIN CTAB
M  V30 COUNTS 29 33 0 0 0
M  V30 BEGIN ATOM
M  V30 1 F 0.866 2.9999 0.0 0
M  V30 2 C 1.732 2.5 0.0 0
M  V30 3 C 1.732 1.5 0.0 0
M  V30 4 C 2.598 3.0 0.0 0
M  V30 5 C 0.866 1.0 0.0 0
M  V30 6 C 2.598 0.9999 0.0 0
M  V30 7 C 3.4641 2.4999 0.0 0
M  V30 8 N 0.0 1.5 0.0 0
M  V30 9 C 0.866 0.0 0.0 0
M  V30 10 N 2.598 0.0 0.0 0
M  V30 11 C 3.4641 1.4999 0.0 0
M  V30 12 C 1.732 -0.4999 0.0 0
M  V30 13 C 0.0 -0.5 0.0 0
M  V30 14 O 1.732 -1.4999 0.0 0
M  V30 15 N -0.9135 -0.0932 0.0 0
M  V30 16 N -0.1045 -1.4945 0.0 0
M  V30 17 C -1.5826 -0.8364 0.0 0
M  V30 18 C -1.0826 -1.7024 0.0 0
M  V30 19 C -2.5826 -0.8364 0.0 0
M  V30 20 C -1.5826 -2.5684 0.0 0
M  V30 21 C -3.0826 -1.7024 0.0 0
M  V30 22 C -2.5826 -2.5684 0.0 0
M  V30 23 N -3.0826 -3.4344 0.0 0
M  V30 24 C -4.0826 -3.4344 0.0 0
M  V30 25 C -2.5826 -4.3005 0.0 0
M  V30 26 C -4.5826 -4.3005 0.0 0
M  V30 27 C -3.0826 -5.1665 0.0 0
M  V30 28 N -4.0826 -5.1665 0.0 0
M  V30 29 C -4.5826 -6.0325 0.0 0
M  V30 END ATOM
M  V30 BEGIN BOND
M  V30 1 1 1 2
M  V30 2 2 2 3
M  V30 3 1 2 4
M  V30 4 1 3 5
M  V30 5 1 3 6
M  V30 6 2 4 7
M  V30 7 1 5 8
M  V30 8 2 5 9
M  V30 9 1 6 10
M  V30 10 2 6 11
M  V30 11 1 9 12
M  V30 12 1 9 13
M  V30 13 2 12 14
M  V30 14 2 13 15
M  V30 15 1 13 16
M  V30 16 1 15 17
M  V30 17 1 16 18
M  V30 18 1 17 19
M  V30 19 1 18 20
M  V30 20 2 19 21
M  V30 21 2 20 22
M  V30 22 1 22 23
M  V30 23 1 23 24
M  V30 24 1 23 25
M  V30 25 1 24 26
M  V30 26 1 25 27
M  V30 27 1 26 28
M  V30 28 1 28 29
M  V30 29 1 7 11
M  V30 30 1 10 12
M  V30 31 2 17 18
M  V30 32 1 21 22
M  V30 33 1 27 28
M  V30 END BOND
M  V30 END CTAB
M  END
>  <Molecule Name>
Compound 988

>  <Molecule Name 2>
Compound 988

>  <Compound ID>
276

>  <Name>
Dovitinib

>  <Uniprot>
P36888

>  <Target>
FLT3-ITD

>  <Smiles>
CN1CCN(C2=CC=C3N=C(C4=C(N)C5=C(F)C=CC=C5[NH]C4=O)[NH]C3=C2)CC1

>  <Kd (nM)>


>  <Assay (Kd)>


>  <Ki (nM)>


>  <Assay (Ki)>


>  <IC50 (nM)>


>  <Assay (IC50)>


>  <EC50 (nM)>
13

>  <Assay (EC50)>
Inhibit proliferation of MV4;11 (FLT3 ITD) cells

>  <Article DOI>
10.1158/1078-0432.CCR-05-0358

>  <Molecular Weight>
392.438

>  <Exact Mass>
392.1760875

>  <XLogP3>
1.64

>  <Heavy Atom Count>
29

>  <Ring Count>
5

>  <Hydrogen Bond Acceptor Count>
5

>  <Hydrogen Bond Donor Count>
3

>  <Rotatable Bond Count>
2

>  <Topological Polar Surface Area>
94.04

>  <Molecular Formula>
C21H21FN6O

>  <InChI>
InChI=1S/C21H21FN6O/c1-27-7-9-28(10-8-27)12-5-6-14-16(11-12)25-20(24-14)18-19(23)17-13(22)3-2-4-15(17)26-21(18)29/h2-6,11H,7-10H2,1H3,(H,24,25)(H3,23,26,29)

>  <InChI Key>
PIQCTGMSNWUMAF-UHFFFAOYSA-N

>  <BindingDB>
25118

>  <PubChem>
135398510

>  <ChEMBL>
CHEMBL522892

$$$$
276
Actelion Java MolfileCreator 2.0

  0  0  0  0  0  0              0 V3000
M  V30 BEGIN CTAB
M  V30 COUNTS 29 33 0 0 0
M  V30 BEGIN ATOM
M  V30 1 F 0.866 2.9999 0.0 0
M  V30 2 C 1.732 2.5 0.0 0
M  V30 3 C 1.732 1.5 0.0 0
M  V30 4 C 2.598 3.0 0.0 0
M  V30 5 C 0.866 1.0 0.0 0
M  V30 6 C 2.598 0.9999 0.0 0
M  V30 7 C 3.4641 2.4999 0.0 0
M  V30 8 N 0.0 1.5 0.0 0
M  V30 9 C 0.866 0.0 0.0 0
M  V30 10 N 2.598 0.0 0.0 0
M  V30 11 C 3.4641 1.4999 0.0 0
M  V30 12 C 1.732 -0.4999 0.0 0
M  V30 13 C 0.0 -0.5 0.0 0
M  V30 14 O 1.732 -1.4999 0.0 0
M  V30 15 N -0.9135 -0.0932 0.0 0
M  V30 16 N -0.1045 -1.4945 0.0 0
M  V30 17 C -1.5826 -0.8364 0.0 0
M  V30 18 C -1.0826 -1.7024 0.0 0
M  V30 19 C -2.5826 -0.8364 0.0 0
M  V30 20 C -1.5826 -2.5684 0.0 0
M  V30 21 C -3.0826 -1.7024 0.0 0
M  V30 22 C -2.5826 -2.5684 0.0 0
M  V30 23 N -3.0826 -3.4344 0.0 0
M  V30 24 C -4.0826 -3.4344 0.0 0
M  V30 25 C -2.5826 -4.3005 0.0 0
M  V30 26 C -4.5826 -4.3005 0.0 0
M  V30 27 C -3.0826 -5.1665 0.0 0
M  V30 28 N -4.0826 -5.1665 0.0 0
M  V30 29 C -4.5826 -6.0325 0.0 0
M  V30 END ATOM
M  V30 BEGIN BOND
M  V30 1 1 1 2
M  V30 2 2 2 3
M  V30 3 1 2 4
M  V30 4 1 3 5
M  V30 5 1 3 6
M  V30 6 2 4 7
M  V30 7 1 5 8
M  V30 8 2 5 9
M  V30 9 1 6 10
M  V30 10 2 6 11
M  V30 11 1 9 12
M  V30 12 1 9 13
M  V30 13 2 12 14
M  V30 14 2 13 15
M  V30 15 1 13 16
M  V30 16 1 15 17
M  V30 17 1 16 18
M  V30 18 1 17 19
M  V30 19 1 18 20
M  V30 20 2 19 21
M  V30 21 2 20 22
M  V30 22 1 22 23
M  V30 23 1 23 24
M  V30 24 1 23 25
M  V30 25 1 24 26
M  V30 26 1 25 27
M  V30 27 1 26 28
M  V30 28 1 28 29
M  V30 29 1 7 11
M  V30 30 1 10 12
M  V30 31 2 17 18
M  V30 32 1 21 22
M  V30 33 1 27 28
M  V30 END BOND
M  V30 END CTAB
M  END
>  <Molecule Name>
Compound 989

>  <Molecule Name 2>
Compound 989

>  <Compound ID>
276

>  <Name>
Dovitinib

>  <Uniprot>
P36888

>  <Target>
FLT3

>  <Smiles>
CN1CCN(C2=CC=C3N=C(C4=C(N)C5=C(F)C=CC=C5[NH]C4=O)[NH]C3=C2)CC1

>  <Kd (nM)>


>  <Assay (Kd)>


>  <Ki (nM)>


>  <Assay (Ki)>


>  <IC50 (nM)>
1

>  <Assay (IC50)>
IC50 was assessed by ATP-competitive binding assays

>  <EC50 (nM)>


>  <Assay (EC50)>


>  <Article DOI>
10.1158/1078-0432.CCR-05-0358

>  <Molecular Weight>
392.438

>  <Exact Mass>
392.1760875

>  <XLogP3>
1.64

>  <Heavy Atom Count>
29

>  <Ring Count>
5

>  <Hydrogen Bond Acceptor Count>
5

>  <Hydrogen Bond Donor Count>
3

>  <Rotatable Bond Count>
2

>  <Topological Polar Surface Area>
94.04

>  <Molecular Formula>
C21H21FN6O

>  <InChI>
InChI=1S/C21H21FN6O/c1-27-7-9-28(10-8-27)12-5-6-14-16(11-12)25-20(24-14)18-19(23)17-13(22)3-2-4-15(17)26-21(18)29/h2-6,11H,7-10H2,1H3,(H,24,25)(H3,23,26,29)

>  <InChI Key>
PIQCTGMSNWUMAF-UHFFFAOYSA-N

>  <BindingDB>
25118

>  <PubChem>
135398510

>  <ChEMBL>
CHEMBL522892

$$$$
277
Actelion Java MolfileCreator 2.0

  0  0  0  0  0  0              0 V3000
M  V30 BEGIN CTAB
M  V30 COUNTS 40 44 0 0 0
M  V30 BEGIN ATOM
M  V30 1 F 1.232 0.6339 0.0 0
M  V30 2 C 1.732 1.4999 0.0 0
M  V30 3 F 0.866 1.9999 0.0 0
M  V30 4 F 2.232 2.366 0.0 0
M  V30 5 C 2.598 1.0 0.0 0
M  V30 6 C 2.598 0.0 0.0 0
M  V30 7 C 3.4641 1.4999 0.0 0
M  V30 8 C 1.732 -0.5 0.0 0
M  V30 9 C 3.4641 -0.5 0.0 0
M  V30 10 C 4.3301 1.0 0.0 0
M  V30 11 O 1.732 -1.5 0.0 0
M  V30 12 N 0.866 0.0 0.0 0
M  V30 13 N 4.3301 0.0 0.0 0
M  V30 14 O 5.1961 1.5 0.0 0
M  V30 15 C 0.0 -0.5 0.0 0
M  V30 16 C -0.866 0.0 0.0 0
M  V30 17 C 0.0 -1.4999 0.0 0
M  V30 18 N -0.866 1.0 0.0 0
M  V30 19 C -1.732 -0.4999 0.0 0
M  V30 20 C -0.866 -1.9999 0.0 0
M  V30 21 C 0.0 1.4999 0.0 0
M  V30 22 C -1.732 1.5 0.0 0
M  V30 23 C -1.732 -1.4999 0.0 0
M  V30 24 C -0.866 -2.9999 0.0 0
M  V30 25 C 0.0 2.4999 0.0 0
M  V30 26 C -1.732 2.5 0.0 0
M  V30 27 C -1.732 -3.4999 0.0 0
M  V30 28 C 0.0 -3.4999 0.0 0
M  V30 29 N -0.866 3.0 0.0 0
M  V30 30 C -1.732 -4.4999 0.0 0
M  V30 31 C 0.0 -4.5 0.0 0
M  V30 32 C -0.866 4.0 0.0 0
M  V30 33 C -0.866 -4.9999 0.0 0
M  V30 34 C -2.598 -4.9999 0.0 0
M  V30 35 N -2.598 -5.9999 0.0 0
M  V30 36 C -3.4641 -6.4999 0.0 0
M  V30 37 C -1.732 -6.4999 0.0 0
M  V30 38 C -3.4641 -7.4999 0.0 0
M  V30 39 C -1.732 -7.4999 0.0 0
M  V30 40 O -2.598 -7.9999 0.0 0
M  V30 END ATOM
M  V30 BEGIN BOND
M  V30 1 1 1 2
M  V30 2 1 2 3
M  V30 3 1 2 4
M  V30 4 1 2 5
M  V30 5 1 5 6
M  V30 6 2 5 7
M  V30 7 1 6 8
M  V30 8 2 6 9
M  V30 9 1 7 10
M  V30 10 2 8 11
M  V30 11 1 8 12
M  V30 12 1 9 13
M  V30 13 2 10 14
M  V30 14 1 12 15
M  V30 15 2 15 16
M  V30 16 1 15 17
M  V30 17 1 16 18
M  V30 18 1 16 19
M  V30 19 2 17 20
M  V30 20 1 18 21
M  V30 21 1 18 22
M  V30 22 2 19 23
M  V30 23 1 20 24
M  V30 24 1 21 25
M  V30 25 1 22 26
M  V30 26 2 24 27
M  V30 27 1 24 28
M  V30 28 1 25 29
M  V30 29 1 27 30
M  V30 30 2 28 31
M  V30 31 1 29 32
M  V30 32 2 30 33
M  V30 33 1 30 34
M  V30 34 1 34 35
M  V30 35 1 35 36
M  V30 36 1 35 37
M  V30 37 1 36 38
M  V30 38 1 37 39
M  V30 39 1 38 40
M  V30 40 1 10 13
M  V30 41 1 20 23
M  V30 42 1 26 29
M  V30 43 1 31 33
M  V30 44 1 39 40
M  V30 END BOND
M  V30 END CTAB
M  END
>  <Molecule Name>
Compound 990

>  <Molecule Name 2>
Compound 990

>  <Compound ID>
277

>  <Name>
OICR-9429

>  <Uniprot>
P61964

>  <Target>
WDR5

>  <Smiles>
CN1CCN(C2=CC=C(C3=CC=CC(CN4CCOCC4)=C3)C=C2NC(=O)C2=C[NH]C(=O)C=C2C(F)(F)F)CC1

>  <Kd (nM)>
30

>  <Assay (Kd)>
Kd was assessed by surface plasmon resonance analysis

>  <Ki (nM)>


>  <Assay (Ki)>


>  <IC50 (nM)>


>  <Assay (IC50)>


>  <EC50 (nM)>


>  <Assay (EC50)>


>  <Article DOI>
10.1021/acs.jmedchem.5b01630

>  <Molecular Weight>
555.601

>  <Exact Mass>
555.2457245

>  <XLogP3>
2.22

>  <Heavy Atom Count>
40

>  <Ring Count>
5

>  <Hydrogen Bond Acceptor Count>
6

>  <Hydrogen Bond Donor Count>
2

>  <Rotatable Bond Count>
6

>  <Topological Polar Surface Area>
80.91

>  <Molecular Formula>
C29H32F3N5O3

>  <InChI>
InChI=1S/C29H32F3N5O3/c1-35-7-9-37(10-8-35)26-6-5-22(21-4-2-3-20(15-21)19-36-11-13-40-14-12-36)16-25(26)34-28(39)23-18-33-27(38)17-24(23)29(30,31)32/h2-6,15-18H,7-14,19H2,1H3,(H,33,38)(H,34,39)

>  <InChI Key>
DJOVLOYCGXNVPI-UHFFFAOYSA-N

>  <BindingDB>
50164794

>  <PubChem>
91623360

>  <ChEMBL>
CHEMBL3798846

$$$$
278
Actelion Java MolfileCreator 2.0

  0  0  0  0  0  0              0 V3000
M  V30 BEGIN CTAB
M  V30 COUNTS 27 30 0 0 0
M  V30 BEGIN ATOM
M  V30 1 Cl 6.9282 -0.5 0.0 0
M  V30 2 C 6.0621 0.0 0.0 0
M  V30 3 C 6.0621 0.9999 0.0 0
M  V30 4 C 5.1961 -0.5 0.0 0
M  V30 5 Cl 6.9282 1.4999 0.0 0
M  V30 6 C 5.1961 1.4999 0.0 0
M  V30 7 C 4.3301 0.0 0.0 0
M  V30 8 C 4.3301 1.0 0.0 0
M  V30 9 C 3.4641 -0.5 0.0 0
M  V30 10 C 2.598 0.0 0.0 0
M  V30 11 O 2.598 1.0 0.0 0
M  V30 12 N 1.732 -0.5 0.0 0
M  V30 13 C 0.866 0.0 0.0 0
M  V30 14 C 0.0 -0.5 0.0 0
M  V30 15 C -0.866 0.0 0.0 0
M  V30 16 C 0.0 -1.4999 0.0 0
M  V30 17 C -1.732 -0.4999 0.0 0
M  V30 18 C -0.866 -1.9999 0.0 0
M  V30 19 C -2.598 0.0 0.0 0
M  V30 20 C -1.732 -1.4999 0.0 0
M  V30 21 N -2.7026 0.9945 0.0 0
M  V30 22 C -3.5116 -0.4067 0.0 0
M  V30 23 C -3.6807 1.2024 0.0 0
M  V30 24 N -4.1807 0.3364 0.0 0
M  V30 25 C -4.3498 1.9455 0.0 0
M  V30 26 C -5.1588 0.5443 0.0 0
M  V30 27 C -5.2634 1.5388 0.0 0
M  V30 END ATOM
M  V30 BEGIN BOND
M  V30 1 1 1 2
M  V30 2 2 2 3
M  V30 3 1 2 4
M  V30 4 1 3 5
M  V30 5 1 3 6
M  V30 6 2 4 7
M  V30 7 2 6 8
M  V30 8 1 7 9
M  V30 9 1 9 10
M  V30 10 2 10 11
M  V30 11 1 10 12
M  V30 12 1 12 13
M  V30 13 1 13 14
M  V30 14 2 14 15
M  V30 15 1 14 16
M  V30 16 1 15 17
M  V30 17 2 16 18
M  V30 18 1 17 19
M  V30 19 2 17 20
M  V30 20 1 19 21
M  V30 21 2 19 22
M  V30 22 2 21 23
M  V30 23 1 22 24
M  V30 24 1 23 25
M  V30 25 1 24 26
M  V30 26 1 25 27
M  V30 27 1 7 8
M  V30 28 1 18 20
M  V30 29 1 23 24
M  V30 30 1 26 27
M  V30 END BOND
M  V30 END CTAB
M  END
>  <Molecule Name>
Compound 991

>  <Molecule Name 2>
Compound 991

>  <Compound ID>
278

>  <Name>


>  <Uniprot>
P61964

>  <Target>
WDR5

>  <Smiles>
O=C(CC1=CC=C(Cl)C(Cl)=C1)NCC1=CC=CC(C2=CN3CCCC3=N2)=C1

>  <Kd (nM)>


>  <Assay (Kd)>


>  <Ki (nM)>
118

>  <Assay (Ki)>
Ki was assessed by fluorescence-polarization anisotropy

>  <IC50 (nM)>


>  <Assay (IC50)>


>  <EC50 (nM)>


>  <Assay (EC50)>


>  <Article DOI>
10.1021/acs.jmedchem.8b00375

>  <Molecular Weight>
400.309

>  <Exact Mass>
399.0905176

>  <XLogP3>
4

>  <Heavy Atom Count>
27

>  <Ring Count>
4

>  <Hydrogen Bond Acceptor Count>
3

>  <Hydrogen Bond Donor Count>
1

>  <Rotatable Bond Count>
5

>  <Topological Polar Surface Area>
46.92

>  <Molecular Formula>
C21H19Cl2N3O

>  <InChI>
InChI=1S/C21H19Cl2N3O/c22-17-7-6-14(10-18(17)23)11-21(27)24-12-15-3-1-4-16(9-15)19-13-26-8-2-5-20(26)25-19/h1,3-4,6-7,9-10,13H,2,5,8,11-12H2,(H,24,27)

>  <InChI Key>
QOIRVBBMKNKETR-UHFFFAOYSA-N

>  <BindingDB>
50465599

>  <PubChem>
134369623

>  <ChEMBL>
CHEMBL4288724

$$$$
279
Actelion Java MolfileCreator 2.0

  0  0  0  0  0  0              0 V3000
M  V30 BEGIN CTAB
M  V30 COUNTS 39 43 0 0 0
M  V30 BEGIN ATOM
M  V30 1 O 10.3923 -0.75 0.0 0
M  V30 2 C 10.3923 -2.2499 0.0 0
M  V30 3 N 9.0932 -3.0 0.0 0
M  V30 4 C 11.6913 -3.0 0.0 0
M  V30 5 C 9.0932 -4.4999 0.0 0
M  V30 6 C 7.7942 -2.2499 0.0 0 CFG=1
M  V30 7 C 11.6913 -4.5 0.0 0
M  V30 8 N 7.7942 -5.2499 0.0 0
M  V30 9 C 10.3923 -5.25 0.0 0
M  V30 10 C 7.7942 -0.75 0.0 0
M  V30 11 C 6.4951 -2.9999 0.0 0
M  V30 12 C 12.9903 -5.25 0.0 0
M  V30 13 C 7.7942 -6.75 0.0 0
M  V30 14 C 10.3923 -6.75 0.0 0
M  V30 15 C 6.4951 0.0 0.0 0
M  V30 16 C 5.1961 -2.25 0.0 0
M  V30 17 N 9.0932 -7.5 0.0 0
M  V30 18 N 6.4951 -7.5 0.0 0
M  V30 19 C 5.1961 -0.75 0.0 0 CFG=2
M  V30 20 C 6.4951 -9.0 0.0 0
M  V30 21 N 3.8971 0.0 0.0 0
M  V30 22 C 5.1961 -9.7499 0.0 0
M  V30 23 C 7.7942 -9.75 0.0 0
M  V30 24 C 2.598 -0.75 0.0 0
M  V30 25 O 3.8971 -8.9999 0.0 0
M  V30 26 C 5.1961 -11.2499 0.0 0
M  V30 27 C 7.7942 -11.25 0.0 0
M  V30 28 O 2.598 -2.25 0.0 0
M  V30 29 C 1.299 0.0 0.0 0
M  V30 30 C 2.598 -9.7499 0.0 0
M  V30 31 C 6.4951 -11.9999 0.0 0
M  V30 32 C 0.0 -0.75 0.0 0
M  V30 33 N 6.4951 -13.5 0.0 0
M  V30 34 C 5.1961 -14.2499 0.0 0
M  V30 35 C 7.7942 -14.25 0.0 0
M  V30 36 C 5.1961 -15.7499 0.0 0
M  V30 37 C 7.7942 -15.75 0.0 0
M  V30 38 N 6.4951 -16.5 0.0 0
M  V30 39 C 6.4951 -18.0 0.0 0
M  V30 END ATOM
M  V30 BEGIN BOND
M  V30 1 2 1 2
M  V30 2 1 2 3
M  V30 3 1 2 4
M  V30 4 1 3 5
M  V30 5 1 6 3 CFG=3
M  V30 6 2 4 7
M  V30 7 2 5 8
M  V30 8 1 5 9
M  V30 9 1 6 10
M  V30 10 1 6 11
M  V30 11 1 7 12
M  V30 12 1 8 13
M  V30 13 2 9 14
M  V30 14 1 10 15
M  V30 15 1 11 16
M  V30 16 2 13 17
M  V30 17 1 13 18
M  V30 18 1 19 15
M  V30 19 1 18 20
M  V30 20 1 19 21 CFG=3
M  V30 21 2 20 22
M  V30 22 1 20 23
M  V30 23 1 21 24
M  V30 24 1 22 25
M  V30 25 1 22 26
M  V30 26 2 23 27
M  V30 27 2 24 28
M  V30 28 1 24 29
M  V30 29 1 25 30
M  V30 30 2 26 31
M  V30 31 1 29 32
M  V30 32 1 31 33
M  V30 33 1 33 34
M  V30 34 1 33 35
M  V30 35 1 34 36
M  V30 36 1 35 37
M  V30 37 1 36 38
M  V30 38 1 38 39
M  V30 39 1 7 9
M  V30 40 1 14 17
M  V30 41 1 16 19
M  V30 42 1 27 31
M  V30 43 1 37 38
M  V30 END BOND
M  V30 BEGIN COLLECTION
M  V30 MDLV30/STEABS ATOMS=(2 6 19)
M  V30 END COLLECTION
M  V30 END CTAB
M  END
>  <Molecule Name>
Compound 992

>  <Molecule Name 2>
Compound 992

>  <Compound ID>
279

>  <Name>


>  <Uniprot>
P33981

>  <Target>
TTK

>  <Smiles>
CCC(=O)N[C@H]1CC[C@@H](N2C(=O)C=C(C)C3=CN=C(NC4=CC=C(N5CCN(C)CC5)C=C4OC)N=C32)CC1

>  <Kd (nM)>
0.7

>  <Assay (Kd)>
Kd of TTK

>  <Ki (nM)>


>  <Assay (Ki)>


>  <IC50 (nM)>


>  <Assay (IC50)>


>  <EC50 (nM)>


>  <Assay (EC50)>


>  <Article DOI>
10.1021/acs.jmedchem.1c01768

>  <Molecular Weight>
533.677

>  <Exact Mass>
533.3114381

>  <XLogP3>
2.95

>  <Heavy Atom Count>
39

>  <Ring Count>
5

>  <Hydrogen Bond Acceptor Count>
9

>  <Hydrogen Bond Donor Count>
2

>  <Rotatable Bond Count>
7

>  <Topological Polar Surface Area>
104.62

>  <Molecular Formula>
C29H39N7O3

>  <InChI>
InChI=1S/C29H39N7O3/c1-5-26(37)31-20-6-8-21(9-7-20)36-27(38)16-19(2)23-18-30-29(33-28(23)36)32-24-11-10-22(17-25(24)39-4)35-14-12-34(3)13-15-35/h10-11,16-18,20-21H,5-9,12-15H2,1-4H3,(H,31,37)(H,30,32,33)/t20-,21+

>  <InChI Key>
BZFRLXSVKCBWHB-OYRHEFFESA-N

>  <BindingDB>


>  <PubChem>


>  <ChEMBL>


$$$$
280
Actelion Java MolfileCreator 2.0

  0  0  0  0  0  0              0 V3000
M  V30 BEGIN CTAB
M  V30 COUNTS 27 29 0 0 0
M  V30 BEGIN ATOM
M  V30 1 S 0.0 -5.25 0.0 0
M  V30 2 O 0.75 -6.549 0.0 0
M  V30 3 O -0.75 -6.549 0.0 0
M  V30 4 C 1.299 -4.5 0.0 0
M  V30 5 C -1.299 -4.5 0.0 0
M  V30 6 C 2.598 -5.25 0.0 0
M  V30 7 C 1.299 -3.0 0.0 0
M  V30 8 C -0.549 -3.2009 0.0 0
M  V30 9 C -2.598 -3.75 0.0 0
M  V30 10 C -2.049 -5.799 0.0 0
M  V30 11 O 2.598 -6.75 0.0 0
M  V30 12 C 3.8971 -4.5 0.0 0
M  V30 13 C 2.598 -2.25 0.0 0
M  V30 14 C 3.8971 -7.5 0.0 0
M  V30 15 C 3.8971 -3.0 0.0 0
M  V30 16 C 2.598 -0.75 0.0 0
M  V30 17 N 5.1961 -2.25 0.0 0
M  V30 18 N 3.8971 0.0 0.0 0
M  V30 19 N 1.299 0.0 0.0 0
M  V30 20 C 5.1961 -0.75 0.0 0
M  V30 21 C 1.299 1.5 0.0 0
M  V30 22 N 0.0855 2.3816 0.0 0
M  V30 23 C 2.5125 2.3816 0.0 0
M  V30 24 N 0.549 3.8082 0.0 0
M  V30 25 C 2.049 3.8082 0.0 0
M  V30 26 C 3.9391 1.9181 0.0 0
M  V30 27 C 2.9307 5.0217 0.0 0
M  V30 END ATOM
M  V30 BEGIN BOND
M  V30 1 2 1 2
M  V30 2 2 1 3
M  V30 3 1 1 4
M  V30 4 1 1 5
M  V30 5 1 4 6
M  V30 6 2 4 7
M  V30 7 1 5 8
M  V30 8 1 5 9
M  V30 9 1 5 10
M  V30 10 1 6 11
M  V30 11 2 6 12
M  V30 12 1 7 13
M  V30 13 1 11 14
M  V30 14 1 12 15
M  V30 15 2 13 16
M  V30 16 2 15 17
M  V30 17 1 16 18
M  V30 18 1 16 19
M  V30 19 1 17 20
M  V30 20 1 19 21
M  V30 21 2 21 22
M  V30 22 1 21 23
M  V30 23 1 22 24
M  V30 24 2 23 25
M  V30 25 1 23 26
M  V30 26 1 25 27
M  V30 27 1 13 15
M  V30 28 2 18 20
M  V30 29 1 24 25
M  V30 END BOND
M  V30 END CTAB
M  END
>  <Molecule Name>
Compound 993

>  <Molecule Name 2>
Compound 993

>  <Compound ID>
280

>  <Name>


>  <Uniprot>
O43353

>  <Target>
RIPK2

>  <Smiles>
COC1=CC2=NC=NC(NC3=N[NH]C(C)=C3C)=C2C=C1S(=O)(=O)C(C)(C)C

>  <Kd (nM)>


>  <Assay (Kd)>


>  <Ki (nM)>


>  <Assay (Ki)>


>  <IC50 (nM)>
1

>  <Assay (IC50)>
IC50 was assessed by fluorescence polarization assay

>  <EC50 (nM)>


>  <Assay (EC50)>


>  <Article DOI>
10.1021/acsmedchemlett.8b00344

>  <Molecular Weight>
389.481

>  <Exact Mass>
389.1521606

>  <XLogP3>
3

>  <Heavy Atom Count>
27

>  <Ring Count>
3

>  <Hydrogen Bond Acceptor Count>
7

>  <Hydrogen Bond Donor Count>
2

>  <Rotatable Bond Count>
4

>  <Topological Polar Surface Area>
109.86

>  <Molecular Formula>
C18H23N5O3S

>  <InChI>
InChI=1S/C18H23N5O3S/c1-10-11(2)22-23-16(10)21-17-12-7-15(27(24,25)18(3,4)5)14(26-6)8-13(12)19-9-20-17/h7-9H,1-6H3,(H2,19,20,21,22,23)

>  <InChI Key>
LLJFMVIGBWDCOB-UHFFFAOYSA-N

>  <BindingDB>


>  <PubChem>
71259213

>  <ChEMBL>


$$$$
281
Actelion Java MolfileCreator 2.0

  0  0  0  0  0  0              0 V3000
M  V30 BEGIN CTAB
M  V30 COUNTS 33 36 0 0 0
M  V30 BEGIN ATOM
M  V30 1 Cl 1.732 -3.4999 0.0 0
M  V30 2 C 2.598 -2.9999 0.0 0
M  V30 3 C 2.598 -1.9999 0.0 0
M  V30 4 C 3.4641 -3.4999 0.0 0
M  V30 5 F 1.732 -1.4999 0.0 0
M  V30 6 C 3.4641 -1.4999 0.0 0
M  V30 7 C 4.3301 -2.9999 0.0 0
M  V30 8 C 4.3301 -1.9999 0.0 0
M  V30 9 N 5.1961 -3.4999 0.0 0
M  V30 10 C 6.0621 -2.9999 0.0 0
M  V30 11 N 6.9282 -3.5 0.0 0
M  V30 12 C 6.0621 -2.0 0.0 0
M  V30 13 C 7.7942 -3.0 0.0 0
M  V30 14 C 6.9282 -1.5 0.0 0
M  V30 15 C 5.1961 -1.5 0.0 0
M  V30 16 N 7.7942 -2.0 0.0 0
M  V30 17 C 6.9282 -0.5 0.0 0
M  V30 18 C 5.1961 -0.5 0.0 0
M  V30 19 C 6.0621 0.0 0.0 0
M  V30 20 N 4.3301 0.0 0.0 0
M  V30 21 O 6.0621 0.9999 0.0 0
M  V30 22 C 4.3301 1.0 0.0 0
M  V30 23 C 6.9282 1.4999 0.0 0
M  V30 24 O 5.1961 1.5 0.0 0
M  V30 25 C 3.4641 1.5 0.0 0
M  V30 26 C 3.4641 2.5 0.0 0
M  V30 27 C 2.598 3.0 0.0 0
M  V30 28 N 2.598 4.0 0.0 0
M  V30 29 C 1.732 4.5 0.0 0
M  V30 30 C 3.4641 4.5 0.0 0
M  V30 31 C 1.732 5.5 0.0 0
M  V30 32 C 3.4641 5.5 0.0 0
M  V30 33 C 2.598 6.0 0.0 0
M  V30 END ATOM
M  V30 BEGIN BOND
M  V30 1 1 1 2
M  V30 2 2 2 3
M  V30 3 1 2 4
M  V30 4 1 3 5
M  V30 5 1 3 6
M  V30 6 2 4 7
M  V30 7 2 6 8
M  V30 8 1 7 9
M  V30 9 1 9 10
M  V30 10 2 10 11
M  V30 11 1 10 12
M  V30 12 1 11 13
M  V30 13 1 12 14
M  V30 14 2 12 15
M  V30 15 2 13 16
M  V30 16 2 14 17
M  V30 17 1 15 18
M  V30 18 1 17 19
M  V30 19 1 18 20
M  V30 20 1 19 21
M  V30 21 1 20 22
M  V30 22 1 21 23
M  V30 23 2 22 24
M  V30 24 1 22 25
M  V30 25 2 25 26
M  V30 26 1 26 27
M  V30 27 1 27 28
M  V30 28 1 28 29
M  V30 29 1 28 30
M  V30 30 1 29 31
M  V30 31 1 30 32
M  V30 32 1 31 33
M  V30 33 1 7 8
M  V30 34 1 14 16
M  V30 35 2 18 19
M  V30 36 1 32 33
M  V30 END BOND
M  V30 END CTAB
M  END
>  <Molecule Name>
Compound 994

>  <Molecule Name 2>
Compound 994

>  <Compound ID>
281

>  <Name>
Dacomitinib

>  <Uniprot>
P00533

>  <Target>
EGFR e19d

>  <Smiles>
COC1=CC2=NC=NC(NC3=CC=C(F)C(Cl)=C3)=C2C=C1NC(=O)/C=C/CN1CCCCC1

>  <Kd (nM)>


>  <Assay (Kd)>


>  <Ki (nM)>


>  <Assay (Ki)>


>  <IC50 (nM)>
7

>  <Assay (IC50)>
Inhibit proliferation of HCC-827 (EGFRdel19) cells

>  <EC50 (nM)>


>  <Assay (EC50)>


>  <Article DOI>
10.1016/j.bioorg.2022.105605

>  <Molecular Weight>
469.948

>  <Exact Mass>
469.1680809

>  <XLogP3>
4.43

>  <Heavy Atom Count>
33

>  <Ring Count>
4

>  <Hydrogen Bond Acceptor Count>
6

>  <Hydrogen Bond Donor Count>
2

>  <Rotatable Bond Count>
7

>  <Topological Polar Surface Area>
79.38

>  <Molecular Formula>
C24H25ClFN5O2

>  <InChI>
InChI=1S/C24H25ClFN5O2/c1-33-22-14-20-17(24(28-15-27-20)29-16-7-8-19(26)18(25)12-16)13-21(22)30-23(32)6-5-11-31-9-3-2-4-10-31/h5-8,12-15H,2-4,9-11H2,1H3,(H,30,32)(H,27,28,29)/b6-5+

>  <InChI Key>
LVXJQMNHJWSHET-AATRIKPKSA-N

>  <BindingDB>
112499

>  <PubChem>
11511120

>  <ChEMBL>
CHEMBL2110732

$$$$
281
Actelion Java MolfileCreator 2.0

  0  0  0  0  0  0              0 V3000
M  V30 BEGIN CTAB
M  V30 COUNTS 33 36 0 0 0
M  V30 BEGIN ATOM
M  V30 1 Cl 1.732 -3.4999 0.0 0
M  V30 2 C 2.598 -2.9999 0.0 0
M  V30 3 C 2.598 -1.9999 0.0 0
M  V30 4 C 3.4641 -3.4999 0.0 0
M  V30 5 F 1.732 -1.4999 0.0 0
M  V30 6 C 3.4641 -1.4999 0.0 0
M  V30 7 C 4.3301 -2.9999 0.0 0
M  V30 8 C 4.3301 -1.9999 0.0 0
M  V30 9 N 5.1961 -3.4999 0.0 0
M  V30 10 C 6.0621 -2.9999 0.0 0
M  V30 11 N 6.9282 -3.5 0.0 0
M  V30 12 C 6.0621 -2.0 0.0 0
M  V30 13 C 7.7942 -3.0 0.0 0
M  V30 14 C 6.9282 -1.5 0.0 0
M  V30 15 C 5.1961 -1.5 0.0 0
M  V30 16 N 7.7942 -2.0 0.0 0
M  V30 17 C 6.9282 -0.5 0.0 0
M  V30 18 C 5.1961 -0.5 0.0 0
M  V30 19 C 6.0621 0.0 0.0 0
M  V30 20 N 4.3301 0.0 0.0 0
M  V30 21 O 6.0621 0.9999 0.0 0
M  V30 22 C 4.3301 1.0 0.0 0
M  V30 23 C 6.9282 1.4999 0.0 0
M  V30 24 O 5.1961 1.5 0.0 0
M  V30 25 C 3.4641 1.5 0.0 0
M  V30 26 C 3.4641 2.5 0.0 0
M  V30 27 C 2.598 3.0 0.0 0
M  V30 28 N 2.598 4.0 0.0 0
M  V30 29 C 1.732 4.5 0.0 0
M  V30 30 C 3.4641 4.5 0.0 0
M  V30 31 C 1.732 5.5 0.0 0
M  V30 32 C 3.4641 5.5 0.0 0
M  V30 33 C 2.598 6.0 0.0 0
M  V30 END ATOM
M  V30 BEGIN BOND
M  V30 1 1 1 2
M  V30 2 2 2 3
M  V30 3 1 2 4
M  V30 4 1 3 5
M  V30 5 1 3 6
M  V30 6 2 4 7
M  V30 7 2 6 8
M  V30 8 1 7 9
M  V30 9 1 9 10
M  V30 10 2 10 11
M  V30 11 1 10 12
M  V30 12 1 11 13
M  V30 13 1 12 14
M  V30 14 2 12 15
M  V30 15 2 13 16
M  V30 16 2 14 17
M  V30 17 1 15 18
M  V30 18 1 17 19
M  V30 19 1 18 20
M  V30 20 1 19 21
M  V30 21 1 20 22
M  V30 22 1 21 23
M  V30 23 2 22 24
M  V30 24 1 22 25
M  V30 25 2 25 26
M  V30 26 1 26 27
M  V30 27 1 27 28
M  V30 28 1 28 29
M  V30 29 1 28 30
M  V30 30 1 29 31
M  V30 31 1 30 32
M  V30 32 1 31 33
M  V30 33 1 7 8
M  V30 34 1 14 16
M  V30 35 2 18 19
M  V30 36 1 32 33
M  V30 END BOND
M  V30 END CTAB
M  END
>  <Molecule Name>
Compound 995

>  <Molecule Name 2>
Compound 995

>  <Compound ID>
281

>  <Name>
Dacomitinib

>  <Uniprot>
P00533

>  <Target>
EGFR

>  <Smiles>
COC1=CC2=NC=NC(NC3=CC=C(F)C(Cl)=C3)=C2C=C1NC(=O)/C=C/CN1CCCCC1

>  <Kd (nM)>


>  <Assay (Kd)>


>  <Ki (nM)>


>  <Assay (Ki)>


>  <IC50 (nM)>
1.8

>  <Assay (IC50)>
IC50 was assessed by ELISA method

>  <EC50 (nM)>


>  <Assay (EC50)>


>  <Article DOI>
10.1016/j.ejmech.2015.08.026

>  <Molecular Weight>
469.948

>  <Exact Mass>
469.1680809

>  <XLogP3>
4.43

>  <Heavy Atom Count>
33

>  <Ring Count>
4

>  <Hydrogen Bond Acceptor Count>
6

>  <Hydrogen Bond Donor Count>
2

>  <Rotatable Bond Count>
7

>  <Topological Polar Surface Area>
79.38

>  <Molecular Formula>
C24H25ClFN5O2

>  <InChI>
InChI=1S/C24H25ClFN5O2/c1-33-22-14-20-17(24(28-15-27-20)29-16-7-8-19(26)18(25)12-16)13-21(22)30-23(32)6-5-11-31-9-3-2-4-10-31/h5-8,12-15H,2-4,9-11H2,1H3,(H,30,32)(H,27,28,29)/b6-5+

>  <InChI Key>
LVXJQMNHJWSHET-AATRIKPKSA-N

>  <BindingDB>
112499

>  <PubChem>
11511120

>  <ChEMBL>
CHEMBL2110732

$$$$
282
Actelion Java MolfileCreator 2.0

  0  0  0  0  0  0              0 V3000
M  V30 BEGIN CTAB
M  V30 COUNTS 25 27 0 0 0
M  V30 BEGIN ATOM
M  V30 1 S 2.655 3.0877 0.0 0
M  V30 2 C 3.4641 2.5 0.0 0
M  V30 3 C 2.9641 4.0388 0.0 0
M  V30 4 C 3.4641 1.5 0.0 0
M  V30 5 C 4.2731 3.0877 0.0 0
M  V30 6 C 3.9641 4.0388 0.0 0
M  V30 7 C 2.598 1.0 0.0 0
M  V30 8 C 4.3301 1.0 0.0 0
M  V30 9 C 2.598 0.0 0.0 0
M  V30 10 C 4.3301 0.0 0.0 0
M  V30 11 N 1.732 -0.5 0.0 0
M  V30 12 C 3.4641 -0.4999 0.0 0
M  V30 13 C 0.866 0.0 0.0 0
M  V30 14 N 3.4641 -1.5 0.0 0
M  V30 15 O 0.866 1.0 0.0 0
M  V30 16 C 0.0 -0.5 0.0 0
M  V30 17 C -0.866 0.0 0.0 0
M  V30 18 C 0.0 -1.4999 0.0 0
M  V30 19 C -1.732 -0.4999 0.0 0
M  V30 20 C -0.866 -1.9999 0.0 0
M  V30 21 C -1.732 -1.4999 0.0 0
M  V30 22 N -2.598 -1.9999 0.0 0
M  V30 23 C -3.4641 -1.4999 0.0 0
M  V30 24 O -3.4641 -0.4999 0.0 0
M  V30 25 C -4.3301 -1.9999 0.0 0
M  V30 END ATOM
M  V30 BEGIN BOND
M  V30 1 1 1 2
M  V30 2 1 1 3
M  V30 3 1 2 4
M  V30 4 2 2 5
M  V30 5 2 3 6
M  V30 6 2 4 7
M  V30 7 1 4 8
M  V30 8 1 7 9
M  V30 9 2 8 10
M  V30 10 1 9 11
M  V30 11 2 9 12
M  V30 12 1 11 13
M  V30 13 1 12 14
M  V30 14 2 13 15
M  V30 15 1 13 16
M  V30 16 2 16 17
M  V30 17 1 16 18
M  V30 18 1 17 19
M  V30 19 2 18 20
M  V30 20 2 19 21
M  V30 21 1 21 22
M  V30 22 1 22 23
M  V30 23 2 23 24
M  V30 24 1 23 25
M  V30 25 1 5 6
M  V30 26 1 10 12
M  V30 27 1 20 21
M  V30 END BOND
M  V30 END CTAB
M  END
>  <Molecule Name>
Compound 996

>  <Molecule Name 2>
Compound 996

>  <Compound ID>
282

>  <Name>
BRD-6929

>  <Uniprot>
Q13547

>  <Target>
HDAC1

>  <Smiles>
CC(=O)NC1=CC=C(C(=O)NC2=CC(C3=CC=CS3)=CC=C2N)C=C1

>  <Kd (nM)>


>  <Assay (Kd)>


>  <Ki (nM)>


>  <Assay (Ki)>


>  <IC50 (nM)>
7

>  <Assay (IC50)>
IC50 was assessed by biochemical activity assay

>  <EC50 (nM)>


>  <Assay (EC50)>


>  <Article DOI>
10.1016/j.bmcl.2007.12.031

>  <Molecular Weight>
351.431

>  <Exact Mass>
351.1041478

>  <XLogP3>
2.59

>  <Heavy Atom Count>
25

>  <Ring Count>
3

>  <Hydrogen Bond Acceptor Count>
4

>  <Hydrogen Bond Donor Count>
3

>  <Rotatable Bond Count>
4

>  <Topological Polar Surface Area>
84.22

>  <Molecular Formula>
C19H17N3O2S

>  <InChI>
InChI=1S/C19H17N3O2S/c1-12(23)21-15-7-4-13(5-8-15)19(24)22-17-11-14(6-9-16(17)20)18-3-2-10-25-18/h2-11H,20H2,1H3,(H,21,23)(H,22,24)

>  <InChI Key>
ABZSPJVXTTUFAA-UHFFFAOYSA-N

>  <BindingDB>
19423

>  <PubChem>
6918878

>  <ChEMBL>
CHEMBL235842

$$$$
282
Actelion Java MolfileCreator 2.0

  0  0  0  0  0  0              0 V3000
M  V30 BEGIN CTAB
M  V30 COUNTS 25 27 0 0 0
M  V30 BEGIN ATOM
M  V30 1 S 2.655 3.0877 0.0 0
M  V30 2 C 3.4641 2.5 0.0 0
M  V30 3 C 2.9641 4.0388 0.0 0
M  V30 4 C 3.4641 1.5 0.0 0
M  V30 5 C 4.2731 3.0877 0.0 0
M  V30 6 C 3.9641 4.0388 0.0 0
M  V30 7 C 2.598 1.0 0.0 0
M  V30 8 C 4.3301 1.0 0.0 0
M  V30 9 C 2.598 0.0 0.0 0
M  V30 10 C 4.3301 0.0 0.0 0
M  V30 11 N 1.732 -0.5 0.0 0
M  V30 12 C 3.4641 -0.4999 0.0 0
M  V30 13 C 0.866 0.0 0.0 0
M  V30 14 N 3.4641 -1.5 0.0 0
M  V30 15 O 0.866 1.0 0.0 0
M  V30 16 C 0.0 -0.5 0.0 0
M  V30 17 C -0.866 0.0 0.0 0
M  V30 18 C 0.0 -1.4999 0.0 0
M  V30 19 C -1.732 -0.4999 0.0 0
M  V30 20 C -0.866 -1.9999 0.0 0
M  V30 21 C -1.732 -1.4999 0.0 0
M  V30 22 N -2.598 -1.9999 0.0 0
M  V30 23 C -3.4641 -1.4999 0.0 0
M  V30 24 O -3.4641 -0.4999 0.0 0
M  V30 25 C -4.3301 -1.9999 0.0 0
M  V30 END ATOM
M  V30 BEGIN BOND
M  V30 1 1 1 2
M  V30 2 1 1 3
M  V30 3 1 2 4
M  V30 4 2 2 5
M  V30 5 2 3 6
M  V30 6 2 4 7
M  V30 7 1 4 8
M  V30 8 1 7 9
M  V30 9 2 8 10
M  V30 10 1 9 11
M  V30 11 2 9 12
M  V30 12 1 11 13
M  V30 13 1 12 14
M  V30 14 2 13 15
M  V30 15 1 13 16
M  V30 16 2 16 17
M  V30 17 1 16 18
M  V30 18 1 17 19
M  V30 19 2 18 20
M  V30 20 2 19 21
M  V30 21 1 21 22
M  V30 22 1 22 23
M  V30 23 2 23 24
M  V30 24 1 23 25
M  V30 25 1 5 6
M  V30 26 1 10 12
M  V30 27 1 20 21
M  V30 END BOND
M  V30 END CTAB
M  END
>  <Molecule Name>
Compound 997

>  <Molecule Name 2>
Compound 997

>  <Compound ID>
282

>  <Name>
BRD-6929

>  <Uniprot>
Q92769

>  <Target>
HDAC2

>  <Smiles>
CC(=O)NC1=CC=C(C(=O)NC2=CC(C3=CC=CS3)=CC=C2N)C=C1

>  <Kd (nM)>


>  <Assay (Kd)>


>  <Ki (nM)>


>  <Assay (Ki)>


>  <IC50 (nM)>
49

>  <Assay (IC50)>
IC50 was assessed by biochemical activity assay

>  <EC50 (nM)>


>  <Assay (EC50)>


>  <Article DOI>
10.1016/j.bmcl.2007.12.031

>  <Molecular Weight>
351.431

>  <Exact Mass>
351.1041478

>  <XLogP3>
2.59

>  <Heavy Atom Count>
25

>  <Ring Count>
3

>  <Hydrogen Bond Acceptor Count>
4

>  <Hydrogen Bond Donor Count>
3

>  <Rotatable Bond Count>
4

>  <Topological Polar Surface Area>
84.22

>  <Molecular Formula>
C19H17N3O2S

>  <InChI>
InChI=1S/C19H17N3O2S/c1-12(23)21-15-7-4-13(5-8-15)19(24)22-17-11-14(6-9-16(17)20)18-3-2-10-25-18/h2-11H,20H2,1H3,(H,21,23)(H,22,24)

>  <InChI Key>
ABZSPJVXTTUFAA-UHFFFAOYSA-N

>  <BindingDB>
19423

>  <PubChem>
6918878

>  <ChEMBL>
CHEMBL235842

$$$$
282
Actelion Java MolfileCreator 2.0

  0  0  0  0  0  0              0 V3000
M  V30 BEGIN CTAB
M  V30 COUNTS 25 27 0 0 0
M  V30 BEGIN ATOM
M  V30 1 S 2.655 3.0877 0.0 0
M  V30 2 C 3.4641 2.5 0.0 0
M  V30 3 C 2.9641 4.0388 0.0 0
M  V30 4 C 3.4641 1.5 0.0 0
M  V30 5 C 4.2731 3.0877 0.0 0
M  V30 6 C 3.9641 4.0388 0.0 0
M  V30 7 C 2.598 1.0 0.0 0
M  V30 8 C 4.3301 1.0 0.0 0
M  V30 9 C 2.598 0.0 0.0 0
M  V30 10 C 4.3301 0.0 0.0 0
M  V30 11 N 1.732 -0.5 0.0 0
M  V30 12 C 3.4641 -0.4999 0.0 0
M  V30 13 C 0.866 0.0 0.0 0
M  V30 14 N 3.4641 -1.5 0.0 0
M  V30 15 O 0.866 1.0 0.0 0
M  V30 16 C 0.0 -0.5 0.0 0
M  V30 17 C -0.866 0.0 0.0 0
M  V30 18 C 0.0 -1.4999 0.0 0
M  V30 19 C -1.732 -0.4999 0.0 0
M  V30 20 C -0.866 -1.9999 0.0 0
M  V30 21 C -1.732 -1.4999 0.0 0
M  V30 22 N -2.598 -1.9999 0.0 0
M  V30 23 C -3.4641 -1.4999 0.0 0
M  V30 24 O -3.4641 -0.4999 0.0 0
M  V30 25 C -4.3301 -1.9999 0.0 0
M  V30 END ATOM
M  V30 BEGIN BOND
M  V30 1 1 1 2
M  V30 2 1 1 3
M  V30 3 1 2 4
M  V30 4 2 2 5
M  V30 5 2 3 6
M  V30 6 2 4 7
M  V30 7 1 4 8
M  V30 8 1 7 9
M  V30 9 2 8 10
M  V30 10 1 9 11
M  V30 11 2 9 12
M  V30 12 1 11 13
M  V30 13 1 12 14
M  V30 14 2 13 15
M  V30 15 1 13 16
M  V30 16 2 16 17
M  V30 17 1 16 18
M  V30 18 1 17 19
M  V30 19 2 18 20
M  V30 20 2 19 21
M  V30 21 1 21 22
M  V30 22 1 22 23
M  V30 23 2 23 24
M  V30 24 1 23 25
M  V30 25 1 5 6
M  V30 26 1 10 12
M  V30 27 1 20 21
M  V30 END BOND
M  V30 END CTAB
M  END
>  <Molecule Name>
Compound 998

>  <Molecule Name 2>
Compound 998

>  <Compound ID>
282

>  <Name>
BRD-6929

>  <Uniprot>
O15379

>  <Target>
HDAC3

>  <Smiles>
CC(=O)NC1=CC=C(C(=O)NC2=CC(C3=CC=CS3)=CC=C2N)C=C1

>  <Kd (nM)>


>  <Assay (Kd)>


>  <Ki (nM)>


>  <Assay (Ki)>


>  <IC50 (nM)>
10000

>  <Assay (IC50)>
IC50 was assessed by biochemical activity assay

>  <EC50 (nM)>


>  <Assay (EC50)>


>  <Article DOI>
10.1016/j.bmcl.2007.12.031

>  <Molecular Weight>
351.431

>  <Exact Mass>
351.1041478

>  <XLogP3>
2.59

>  <Heavy Atom Count>
25

>  <Ring Count>
3

>  <Hydrogen Bond Acceptor Count>
4

>  <Hydrogen Bond Donor Count>
3

>  <Rotatable Bond Count>
4

>  <Topological Polar Surface Area>
84.22

>  <Molecular Formula>
C19H17N3O2S

>  <InChI>
InChI=1S/C19H17N3O2S/c1-12(23)21-15-7-4-13(5-8-15)19(24)22-17-11-14(6-9-16(17)20)18-3-2-10-25-18/h2-11H,20H2,1H3,(H,21,23)(H,22,24)

>  <InChI Key>
ABZSPJVXTTUFAA-UHFFFAOYSA-N

>  <BindingDB>
19423

>  <PubChem>
6918878

>  <ChEMBL>
CHEMBL235842

$$$$
283
Actelion Java MolfileCreator 2.0

  0  0  0  0  0  0              0 V3000
M  V30 BEGIN CTAB
M  V30 COUNTS 28 30 0 0 0
M  V30 BEGIN ATOM
M  V30 1 N 7.7942 0.0 0.0 0
M  V30 2 C 6.9282 -0.5 0.0 0
M  V30 3 C 8.6602 -0.4999 0.0 0
M  V30 4 N 6.0621 0.0 0.0 0
M  V30 5 C 6.9282 -1.5 0.0 0
M  V30 6 N 8.6602 -1.4999 0.0 0
M  V30 7 C 9.6113 -0.1909 0.0 0
M  V30 8 C 5.1961 -0.5 0.0 0
M  V30 9 C 7.7942 -1.9999 0.0 0
M  V30 10 N 9.6113 -1.809 0.0 0
M  V30 11 C 10.199 -0.9999 0.0 0
M  V30 12 C 9.9203 0.76 0.0 0
M  V30 13 C 4.3301 0.0 0.0 0
M  V30 14 N 7.7942 -2.9999 0.0 0
M  V30 15 C 10.8984 0.9679 0.0 0
M  V30 16 C 9.2511 1.5032 0.0 0
M  V30 17 C 3.4641 -0.5 0.0 0
M  V30 18 C 6.9282 -3.5 0.0 0
M  V30 19 C 2.598 0.0 0.0 0
M  V30 20 C 6.9282 -4.5 0.0 0
M  V30 21 C 1.732 -0.5 0.0 0
M  V30 22 C 6.0621 -4.9999 0.0 0
M  V30 23 C 7.7942 -5.0 0.0 0
M  V30 24 C 0.866 0.0 0.0 0
M  V30 25 C 6.0621 -5.9999 0.0 0
M  V30 26 C 7.7942 -6.0 0.0 0
M  V30 27 N 0.0 -0.5 0.0 0
M  V30 28 C 6.9282 -6.5 0.0 0
M  V30 END ATOM
M  V30 BEGIN BOND
M  V30 1 2 1 2
M  V30 2 1 1 3
M  V30 3 1 2 4
M  V30 4 1 2 5
M  V30 5 1 3 6
M  V30 6 2 3 7
M  V30 7 1 4 8
M  V30 8 2 5 9
M  V30 9 1 6 10
M  V30 10 1 7 11
M  V30 11 1 7 12
M  V30 12 1 8 13
M  V30 13 1 9 14
M  V30 14 1 12 15
M  V30 15 1 12 16
M  V30 16 1 13 17
M  V30 17 1 14 18
M  V30 18 1 17 19
M  V30 19 1 18 20
M  V30 20 1 19 21
M  V30 21 2 20 22
M  V30 22 1 20 23
M  V30 23 1 21 24
M  V30 24 1 22 25
M  V30 25 2 23 26
M  V30 26 1 24 27
M  V30 27 2 25 28
M  V30 28 1 6 9
M  V30 29 2 10 11
M  V30 30 1 26 28
M  V30 END BOND
M  V30 END CTAB
M  END
>  <Molecule Name>
Compound 999

>  <Molecule Name 2>
Compound 999

>  <Compound ID>
283

>  <Name>
BS-181

>  <Uniprot>
P50750

>  <Target>
CDK9

>  <Smiles>
CC(C)C1=C2N=C(NCCCCCCN)C=C(NCC3=CC=CC=C3)N2N=C1

>  <Kd (nM)>


>  <Assay (Kd)>


>  <Ki (nM)>


>  <Assay (Ki)>


>  <IC50 (nM)>
2180

>  <Assay (IC50)>
Inhibition of CDK9

>  <EC50 (nM)>


>  <Assay (EC50)>


>  <Article DOI>
10.1016/j.ejmech.2016.01.011

>  <Molecular Weight>
380.54

>  <Exact Mass>
380.268845

>  <XLogP3>
4.07

>  <Heavy Atom Count>
28

>  <Ring Count>
3

>  <Hydrogen Bond Acceptor Count>
6

>  <Hydrogen Bond Donor Count>
3

>  <Rotatable Bond Count>
11

>  <Topological Polar Surface Area>
80.27

>  <Molecular Formula>
C22H32N6

>  <InChI>
InChI=1S/C22H32N6/c1-17(2)19-16-26-28-21(25-15-18-10-6-5-7-11-18)14-20(27-22(19)28)24-13-9-4-3-8-12-23/h5-7,10-11,14,16-17,25H,3-4,8-9,12-13,15,23H2,1-2H3,(H,24,27)

>  <InChI Key>
DNYBIOICMDTDAP-UHFFFAOYSA-N

>  <BindingDB>
50347389

>  <PubChem>
49867929

>  <ChEMBL>
CHEMBL1801932

$$$$
284
Actelion Java MolfileCreator 2.0

  0  0  0  0  0  0              0 V3000
M  V30 BEGIN CTAB
M  V30 COUNTS 33 37 0 0 0
M  V30 BEGIN ATOM
M  V30 1 O 3.4641 2.5 0.0 0
M  V30 2 C 3.4641 1.5 0.0 0
M  V30 3 C 2.598 3.0 0.0 0
M  V30 4 N 2.598 1.0 0.0 0
M  V30 5 N 4.3301 1.0 0.0 0
M  V30 6 C 2.598 4.0 0.0 0
M  V30 7 C 1.732 2.5 0.0 0
M  V30 8 C 2.598 0.0 0.0 0
M  V30 9 C 4.3301 0.0 0.0 0
M  V30 10 C 1.732 4.5 0.0 0
M  V30 11 C 0.866 3.0 0.0 0
M  V30 12 N 3.4641 -0.4999 0.0 0
M  V30 13 N 1.732 -0.5 0.0 0
M  V30 14 C 5.0732 -0.6691 0.0 0
M  V30 15 N 0.866 4.0 0.0 0
M  V30 16 N 3.672 -1.4781 0.0 0
M  V30 17 C 0.866 0.0 0.0 0
M  V30 18 C 4.6665 -1.5826 0.0 0
M  V30 19 C 6.0514 -0.4612 0.0 0
M  V30 20 C 0.0 4.5 0.0 0
M  V30 21 C 0.0 -0.5 0.0 0
M  V30 22 C 6.7205 -1.2043 0.0 0
M  V30 23 C 6.3604 0.4898 0.0 0
M  V30 24 C -0.866 0.0 0.0 0
M  V30 25 C 0.0 -1.4999 0.0 0
M  V30 26 N -0.866 1.0 0.0 0
M  V30 27 C -1.732 -0.4999 0.0 0
M  V30 28 C -0.866 -1.9999 0.0 0
M  V30 29 C -0.057 1.5877 0.0 0
M  V30 30 C -1.675 1.5877 0.0 0
M  V30 31 C -1.732 -1.4999 0.0 0
M  V30 32 N -0.366 2.5388 0.0 0
M  V30 33 C -1.366 2.5388 0.0 0
M  V30 END ATOM
M  V30 BEGIN BOND
M  V30 1 1 1 2
M  V30 2 1 1 3
M  V30 3 1 2 4
M  V30 4 2 2 5
M  V30 5 1 3 6
M  V30 6 1 3 7
M  V30 7 2 4 8
M  V30 8 1 5 9
M  V30 9 1 6 10
M  V30 10 1 7 11
M  V30 11 1 8 12
M  V30 12 1 8 13
M  V30 13 2 9 14
M  V30 14 1 10 15
M  V30 15 1 12 16
M  V30 16 1 13 17
M  V30 17 1 14 18
M  V30 18 1 14 19
M  V30 19 1 15 20
M  V30 20 1 17 21
M  V30 21 1 19 22
M  V30 22 1 19 23
M  V30 23 2 21 24
M  V30 24 1 21 25
M  V30 25 1 24 26
M  V30 26 1 24 27
M  V30 27 2 25 28
M  V30 28 1 26 29
M  V30 29 1 26 30
M  V30 30 2 27 31
M  V30 31 2 29 32
M  V30 32 2 30 33
M  V30 33 1 9 12
M  V30 34 1 11 15
M  V30 35 2 16 18
M  V30 36 1 28 31
M  V30 37 1 32 33
M  V30 END BOND
M  V30 END CTAB
M  END
>  <Molecule Name>
Compound 1000

>  <Molecule Name 2>
Compound 1000

>  <Compound ID>
284

>  <Name>
LDC59

>  <Uniprot>
P50750

>  <Target>
CDK9

>  <Smiles>
CC(C)C1=C2N=C(OC3CCN(C)CC3)N=C(NCC3=CC=CC=C3N3C=CN=C3)N2N=C1

>  <Kd (nM)>


>  <Assay (Kd)>


>  <Ki (nM)>


>  <Assay (Ki)>


>  <IC50 (nM)>
3920

>  <Assay (IC50)>
Inhibit growth of MDA-MB-468 cells

>  <EC50 (nM)>


>  <Assay (EC50)>


>  <Article DOI>
10.1021/acs.jmedchem.1c01350

>  <Molecular Weight>
446.559

>  <Exact Mass>
446.2542576

>  <XLogP3>
3.68

>  <Heavy Atom Count>
33

>  <Ring Count>
5

>  <Hydrogen Bond Acceptor Count>
9

>  <Hydrogen Bond Donor Count>
1

>  <Rotatable Bond Count>
7

>  <Topological Polar Surface Area>
85.4

>  <Molecular Formula>
C24H30N8O

>  <InChI>
InChI=1S/C24H30N8O/c1-17(2)20-15-27-32-22(20)28-24(33-19-8-11-30(3)12-9-19)29-23(32)26-14-18-6-4-5-7-21(18)31-13-10-25-16-31/h4-7,10,13,15-17,19H,8-9,11-12,14H2,1-3H3,(H,26,28,29)

>  <InChI Key>
KLTSWTPLJGXFTH-UHFFFAOYSA-N

>  <BindingDB>


>  <PubChem>
71731909

>  <ChEMBL>


$$$$
285
Actelion Java MolfileCreator 2.0

  0  0  0  0  0  0              0 V3000
M  V30 BEGIN CTAB
M  V30 COUNTS 31 34 0 0 0
M  V30 BEGIN ATOM
M  V30 1 O 3.4641 2.5 0.0 0
M  V30 2 C 3.4641 1.5 0.0 0
M  V30 3 C 2.598 3.0 0.0 0
M  V30 4 N 2.598 1.0 0.0 0
M  V30 5 N 4.3301 1.0 0.0 0
M  V30 6 C 2.598 4.0 0.0 0
M  V30 7 C 1.732 2.5 0.0 0
M  V30 8 C 2.598 0.0 0.0 0
M  V30 9 C 4.3301 0.0 0.0 0
M  V30 10 C 1.732 4.5 0.0 0
M  V30 11 C 0.866 3.0 0.0 0
M  V30 12 N 3.4641 -0.4999 0.0 0
M  V30 13 N 1.732 -0.5 0.0 0
M  V30 14 C 5.0732 -0.6691 0.0 0
M  V30 15 N 0.866 4.0 0.0 0
M  V30 16 N 3.672 -1.4781 0.0 0
M  V30 17 C 0.866 0.0 0.0 0
M  V30 18 C 4.6665 -1.5826 0.0 0
M  V30 19 C 6.0514 -0.4612 0.0 0
M  V30 20 C 0.0 4.5 0.0 0
M  V30 21 C 0.0 -0.5 0.0 0
M  V30 22 C 6.7205 -1.2043 0.0 0
M  V30 23 C 6.3604 0.4898 0.0 0
M  V30 24 C -0.866 0.0 0.0 0
M  V30 25 C 0.0 -1.4999 0.0 0
M  V30 26 N -0.866 1.0 0.0 0
M  V30 27 C -1.732 -0.4999 0.0 0
M  V30 28 C -0.866 -1.9999 0.0 0
M  V30 29 C 0.0 1.5 0.0 0
M  V30 30 C -1.732 1.5 0.0 0
M  V30 31 C -1.732 -1.4999 0.0 0
M  V30 END ATOM
M  V30 BEGIN BOND
M  V30 1 1 1 2
M  V30 2 1 1 3
M  V30 3 1 2 4
M  V30 4 2 2 5
M  V30 5 1 3 6
M  V30 6 1 3 7
M  V30 7 2 4 8
M  V30 8 1 5 9
M  V30 9 1 6 10
M  V30 10 1 7 11
M  V30 11 1 8 12
M  V30 12 1 8 13
M  V30 13 2 9 14
M  V30 14 1 10 15
M  V30 15 1 12 16
M  V30 16 1 13 17
M  V30 17 1 14 18
M  V30 18 1 14 19
M  V30 19 1 15 20
M  V30 20 1 17 21
M  V30 21 1 19 22
M  V30 22 1 19 23
M  V30 23 2 21 24
M  V30 24 1 21 25
M  V30 25 1 24 26
M  V30 26 1 24 27
M  V30 27 2 25 28
M  V30 28 1 26 29
M  V30 29 1 26 30
M  V30 30 2 27 31
M  V30 31 1 9 12
M  V30 32 1 11 15
M  V30 33 2 16 18
M  V30 34 1 28 31
M  V30 END BOND
M  V30 END CTAB
M  END
>  <Molecule Name>
Compound 1001

>  <Molecule Name 2>
Compound 1001

>  <Compound ID>
285

>  <Name>
LDC3140

>  <Uniprot>
P50750

>  <Target>
CDK9

>  <Smiles>
CC(C)C1=C2N=C(OC3CCN(C)CC3)N=C(NCC3=CC=CC=C3N(C)C)N2N=C1

>  <Kd (nM)>


>  <Assay (Kd)>


>  <Ki (nM)>


>  <Assay (Ki)>


>  <IC50 (nM)>
7450

>  <Assay (IC50)>
Inhibition of CDK9

>  <EC50 (nM)>


>  <Assay (EC50)>


>  <Article DOI>
10.1016/j.ejmech.2019.111641

>  <Molecular Weight>
423.565

>  <Exact Mass>
423.2746587

>  <XLogP3>
4.05

>  <Heavy Atom Count>
31

>  <Ring Count>
4

>  <Hydrogen Bond Acceptor Count>
8

>  <Hydrogen Bond Donor Count>
1

>  <Rotatable Bond Count>
7

>  <Topological Polar Surface Area>
70.82

>  <Molecular Formula>
C23H33N7O

>  <InChI>
InChI=1S/C23H33N7O/c1-16(2)19-15-25-30-21(19)26-23(31-18-10-12-29(5)13-11-18)27-22(30)24-14-17-8-6-7-9-20(17)28(3)4/h6-9,15-16,18H,10-14H2,1-5H3,(H,24,26,27)

>  <InChI Key>
JYPAWUMVEPMZMD-UHFFFAOYSA-N

>  <BindingDB>
50526792

>  <PubChem>
71731769

>  <ChEMBL>
CHEMBL4454044

$$$$
286
Actelion Java MolfileCreator 2.0

  0  0  0  0  0  0              0 V3000
M  V30 BEGIN CTAB
M  V30 COUNTS 28 31 0 0 0
M  V30 BEGIN ATOM
M  V30 1 O 3.4641 2.5 0.0 0
M  V30 2 C 3.4641 1.5 0.0 0
M  V30 3 C 2.598 3.0 0.0 0
M  V30 4 N 2.598 1.0 0.0 0
M  V30 5 N 4.3301 1.0 0.0 0
M  V30 6 C 2.598 4.0 0.0 0
M  V30 7 C 1.732 2.5 0.0 0
M  V30 8 C 2.598 0.0 0.0 0
M  V30 9 C 4.3301 0.0 0.0 0
M  V30 10 C 1.732 4.5 0.0 0
M  V30 11 C 0.866 3.0 0.0 0
M  V30 12 N 3.4641 -0.4999 0.0 0
M  V30 13 N 1.732 -0.5 0.0 0
M  V30 14 C 5.0732 -0.6691 0.0 0
M  V30 15 N 0.866 4.0 0.0 0
M  V30 16 N 3.672 -1.4781 0.0 0
M  V30 17 C 0.866 0.0 0.0 0
M  V30 18 C 4.6665 -1.5826 0.0 0
M  V30 19 C 6.0514 -0.4612 0.0 0
M  V30 20 C 0.0 4.5 0.0 0
M  V30 21 C 0.0 -0.5 0.0 0
M  V30 22 C 6.7205 -1.2043 0.0 0
M  V30 23 C 6.3604 0.4898 0.0 0
M  V30 24 C -0.866 0.0 0.0 0
M  V30 25 C 0.0 -1.4999 0.0 0
M  V30 26 C -1.732 -0.4999 0.0 0
M  V30 27 C -0.866 -1.9999 0.0 0
M  V30 28 C -1.732 -1.4999 0.0 0
M  V30 END ATOM
M  V30 BEGIN BOND
M  V30 1 1 1 2
M  V30 2 1 1 3
M  V30 3 1 2 4
M  V30 4 2 2 5
M  V30 5 1 3 6
M  V30 6 1 3 7
M  V30 7 2 4 8
M  V30 8 1 5 9
M  V30 9 1 6 10
M  V30 10 1 7 11
M  V30 11 1 8 12
M  V30 12 1 8 13
M  V30 13 2 9 14
M  V30 14 1 10 15
M  V30 15 1 12 16
M  V30 16 1 13 17
M  V30 17 1 14 18
M  V30 18 1 14 19
M  V30 19 1 15 20
M  V30 20 1 17 21
M  V30 21 1 19 22
M  V30 22 1 19 23
M  V30 23 2 21 24
M  V30 24 1 21 25
M  V30 25 1 24 26
M  V30 26 2 25 27
M  V30 27 2 26 28
M  V30 28 1 9 12
M  V30 29 1 11 15
M  V30 30 2 16 18
M  V30 31 1 27 28
M  V30 END BOND
M  V30 END CTAB
M  END
>  <Molecule Name>
Compound 1002

>  <Molecule Name 2>
Compound 1002

>  <Compound ID>
286

>  <Name>


>  <Uniprot>
P50750

>  <Target>
CDK9

>  <Smiles>
CC(C)C1=C2N=C(OC3CCN(C)CC3)N=C(NCC3=CC=CC=C3)N2N=C1

>  <Kd (nM)>


>  <Assay (Kd)>


>  <Ki (nM)>


>  <Assay (Ki)>


>  <IC50 (nM)>
3070

>  <Assay (IC50)>
Inhibit growth of MDA-MB-468 cells

>  <EC50 (nM)>


>  <Assay (EC50)>


>  <Article DOI>
10.1021/acs.jmedchem.1c01350

>  <Molecular Weight>
380.496

>  <Exact Mass>
380.2324595

>  <XLogP3>
3.93

>  <Heavy Atom Count>
28

>  <Ring Count>
4

>  <Hydrogen Bond Acceptor Count>
7

>  <Hydrogen Bond Donor Count>
1

>  <Rotatable Bond Count>
6

>  <Topological Polar Surface Area>
67.58

>  <Molecular Formula>
C21H28N6O

>  <InChI>
InChI=1S/C21H28N6O/c1-15(2)18-14-23-27-19(18)24-21(28-17-9-11-26(3)12-10-17)25-20(27)22-13-16-7-5-4-6-8-16/h4-8,14-15,17H,9-13H2,1-3H3,(H,22,24,25)

>  <InChI Key>
BWJDMRPMFRWAOP-UHFFFAOYSA-N

>  <BindingDB>


>  <PubChem>
89789681

>  <ChEMBL>


$$$$
287
Actelion Java MolfileCreator 2.0

  0  0  0  0  0  0              0 V3000
M  V30 BEGIN CTAB
M  V30 COUNTS 25 27 0 0 0
M  V30 BEGIN ATOM
M  V30 1 Cl 6.9282 -1.4999 0.0 0
M  V30 2 C 6.9282 -0.4999 0.0 0
M  V30 3 C 7.7942 0.0 0.0 0
M  V30 4 C 6.0621 0.0 0.0 0
M  V30 5 C 8.6602 -0.4999 0.0 0
M  V30 6 C 7.7942 1.0 0.0 0
M  V30 7 C 6.0621 1.0 0.0 0
M  V30 8 N 9.5262 -0.9999 0.0 0
M  V30 9 C 6.9282 1.5 0.0 0
M  V30 10 O 5.1961 1.5 0.0 0
M  V30 11 C 4.3301 1.0 0.0 0 CFG=1
M  V30 12 C 3.4641 1.5 0.0 0
M  V30 13 C 4.3301 0.0 0.0 0
M  V30 14 C 2.598 0.9999 0.0 0
M  V30 15 C 3.4641 -0.4999 0.0 0
M  V30 16 C 2.598 0.0 0.0 0 CFG=1
M  V30 17 N 1.732 -0.5 0.0 0
M  V30 18 C 0.866 0.0 0.0 0
M  V30 19 O 0.866 1.0 0.0 0
M  V30 20 C 0.0 -0.5 0.0 0
M  V30 21 C -0.866 0.0 0.0 0
M  V30 22 C 0.0 -1.4999 0.0 0
M  V30 23 C -1.732 -0.4999 0.0 0
M  V30 24 C -0.866 -1.9999 0.0 0
M  V30 25 C -1.732 -1.4999 0.0 0
M  V30 END ATOM
M  V30 BEGIN BOND
M  V30 1 1 1 2
M  V30 2 2 2 3
M  V30 3 1 2 4
M  V30 4 1 3 5
M  V30 5 1 3 6
M  V30 6 2 4 7
M  V30 7 3 5 8
M  V30 8 2 6 9
M  V30 9 1 7 10
M  V30 10 1 11 10 CFG=3
M  V30 11 1 11 12
M  V30 12 1 11 13
M  V30 13 1 12 14
M  V30 14 1 13 15
M  V30 15 1 16 14
M  V30 16 1 16 17 CFG=1
M  V30 17 1 17 18
M  V30 18 2 18 19
M  V30 19 1 18 20
M  V30 20 2 20 21
M  V30 21 1 20 22
M  V30 22 1 21 23
M  V30 23 2 22 24
M  V30 24 2 23 25
M  V30 25 1 7 9
M  V30 26 1 15 16
M  V30 27 1 24 25
M  V30 END BOND
M  V30 BEGIN COLLECTION
M  V30 MDLV30/STEABS ATOMS=(2 11 16)
M  V30 END COLLECTION
M  V30 END CTAB
M  END
>  <Molecule Name>
Compound 1003

>  <Molecule Name 2>
Compound 1003

>  <Compound ID>
287

>  <Name>


>  <Uniprot>
P10275

>  <Target>
AR

>  <Smiles>
N#CC1=CC=C(O[C@H]2CC[C@H](NC(=O)C3=CC=CC=C3)CC2)C=C1Cl

>  <Kd (nM)>


>  <Assay (Kd)>


>  <Ki (nM)>


>  <Assay (Ki)>


>  <IC50 (nM)>


>  <Assay (IC50)>


>  <EC50 (nM)>


>  <Assay (EC50)>


>  <Article DOI>


>  <Molecular Weight>
354.837

>  <Exact Mass>
354.1135055

>  <XLogP3>
4.55

>  <Heavy Atom Count>
25

>  <Ring Count>
3

>  <Hydrogen Bond Acceptor Count>
3

>  <Hydrogen Bond Donor Count>
1

>  <Rotatable Bond Count>
4

>  <Topological Polar Surface Area>
62.12

>  <Molecular Formula>
C20H19ClN2O2

>  <InChI>
InChI=1S/C20H19ClN2O2/c21-19-12-18(9-6-15(19)13-22)25-17-10-7-16(8-11-17)23-20(24)14-4-2-1-3-5-14/h1-6,9,12,16-17H,7-8,10-11H2,(H,23,24)/t16-,17-

>  <InChI Key>
CHIRYVXGOIAKBG-QAQDUYKDSA-N

>  <BindingDB>


>  <PubChem>
155218484

>  <ChEMBL>


$$$$
288
Actelion Java MolfileCreator 2.0

  0  0  0  0  0  0              0 V3000
M  V30 BEGIN CTAB
M  V30 COUNTS 24 26 0 0 0
M  V30 BEGIN ATOM
M  V30 1 Cl 7.2521 0.707 0.0 0
M  V30 2 C 6.6643 1.516 0.0 0
M  V30 3 C 7.071 2.4295 0.0 0
M  V30 4 C 5.6697 1.4114 0.0 0
M  V30 5 C 8.0655 2.534 0.0 0
M  V30 6 C 6.4832 3.2385 0.0 0
M  V30 7 C 5.082 2.2205 0.0 0
M  V30 8 N 9.06 2.6386 0.0 0
M  V30 9 C 5.4887 3.134 0.0 0
M  V30 10 O 4.0874 2.1159 0.0 0
M  V30 11 C 3.6807 1.2024 0.0 0 CFG=2
M  V30 12 C 2.7026 0.9945 0.0 0
M  V30 13 C 4.1807 0.3364 0.0 0
M  V30 14 C 2.598 0.0 0.0 0 CFG=2
M  V30 15 C 3.5116 -0.4067 0.0 0
M  V30 16 N 1.732 -0.5 0.0 0
M  V30 17 C 0.866 0.0 0.0 0
M  V30 18 O 0.866 1.0 0.0 0
M  V30 19 C 0.0 -0.5 0.0 0
M  V30 20 C -0.866 0.0 0.0 0
M  V30 21 C 0.0 -1.4999 0.0 0
M  V30 22 C -1.732 -0.4999 0.0 0
M  V30 23 C -0.866 -1.9999 0.0 0
M  V30 24 C -1.732 -1.4999 0.0 0
M  V30 END ATOM
M  V30 BEGIN BOND
M  V30 1 1 1 2
M  V30 2 2 2 3
M  V30 3 1 2 4
M  V30 4 1 3 5
M  V30 5 1 3 6
M  V30 6 2 4 7
M  V30 7 3 5 8
M  V30 8 2 6 9
M  V30 9 1 7 10
M  V30 10 1 11 10 CFG=1
M  V30 11 1 11 12
M  V30 12 1 11 13
M  V30 13 1 14 12
M  V30 14 1 13 15
M  V30 15 1 14 16 CFG=3
M  V30 16 1 16 17
M  V30 17 2 17 18
M  V30 18 1 17 19
M  V30 19 2 19 20
M  V30 20 1 19 21
M  V30 21 1 20 22
M  V30 22 2 21 23
M  V30 23 2 22 24
M  V30 24 1 7 9
M  V30 25 1 14 15
M  V30 26 1 23 24
M  V30 END BOND
M  V30 BEGIN COLLECTION
M  V30 MDLV30/STEABS ATOMS=(2 11 14)
M  V30 END COLLECTION
M  V30 END CTAB
M  END
>  <Molecule Name>
Compound 1004

>  <Molecule Name 2>
Compound 1004

>  <Compound ID>
288

>  <Name>


>  <Uniprot>
P10275

>  <Target>
AR

>  <Smiles>
N#CC1=CC=C(O[C@H]2CC[C@H](NC(=O)C3=CC=CC=C3)C2)C=C1Cl

>  <Kd (nM)>


>  <Assay (Kd)>


>  <Ki (nM)>


>  <Assay (Ki)>


>  <IC50 (nM)>


>  <Assay (IC50)>


>  <EC50 (nM)>


>  <Assay (EC50)>


>  <Article DOI>
10.1021/acs.jmedchem.1c00900

>  <Molecular Weight>
340.81

>  <Exact Mass>
340.0978555

>  <XLogP3>
4.19

>  <Heavy Atom Count>
24

>  <Ring Count>
3

>  <Hydrogen Bond Acceptor Count>
3

>  <Hydrogen Bond Donor Count>
1

>  <Rotatable Bond Count>
4

>  <Topological Polar Surface Area>
62.12

>  <Molecular Formula>
C19H17ClN2O2

>  <InChI>
InChI=1S/C19H17ClN2O2/c20-18-11-17(8-6-14(18)12-21)24-16-9-7-15(10-16)22-19(23)13-4-2-1-3-5-13/h1-6,8,11,15-16H,7,9-10H2,(H,22,23)/t15-,16-/m0/s1

>  <InChI Key>
KGDRGLOJHBSFBJ-HOTGVXAUSA-N

>  <BindingDB>


>  <PubChem>


>  <ChEMBL>


$$$$
289
Actelion Java MolfileCreator 2.0

  0  0  0  0  0  0              0 V3000
M  V30 BEGIN CTAB
M  V30 COUNTS 26 28 0 0 0
M  V30 BEGIN ATOM
M  V30 1 Cl 11.506 0.6047 0.0 0
M  V30 2 C 10.8552 1.9562 0.0 0
M  V30 3 C 11.7002 3.1955 0.0 0
M  V30 4 C 9.3594 2.0683 0.0 0
M  V30 5 C 13.196 3.0834 0.0 0
M  V30 6 C 11.0494 4.547 0.0 0
M  V30 7 C 8.7086 3.4197 0.0 0
M  V30 8 N 14.6918 2.9713 0.0 0
M  V30 9 C 9.5536 4.6591 0.0 0
M  V30 10 O 7.2128 3.5318 0.0 0
M  V30 11 C 6.3678 2.2925 0.0 0 CFG=1
M  V30 12 C 4.8845 2.516 0.0 0
M  V30 13 C 7.1178 0.9934 0.0 0
M  V30 14 C 3.785 1.4958 0.0 0
M  V30 15 C 6.5698 -0.4028 0.0 0
M  V30 16 C 3.8971 0.0 0.0 0 CFG=1
M  V30 17 C 5.1364 -0.8449 0.0 0
M  V30 18 N 2.598 -0.75 0.0 0
M  V30 19 C 1.299 0.0 0.0 0
M  V30 20 O 1.299 1.5 0.0 0
M  V30 21 C 0.0 -0.75 0.0 0
M  V30 22 C -1.299 0.0 0.0 0
M  V30 23 C 0.0 -2.2499 0.0 0
M  V30 24 C -2.598 -0.7499 0.0 0
M  V30 25 C -1.299 -2.9999 0.0 0
M  V30 26 C -2.598 -2.2499 0.0 0
M  V30 END ATOM
M  V30 BEGIN BOND
M  V30 1 1 1 2
M  V30 2 2 2 3
M  V30 3 1 2 4
M  V30 4 1 3 5
M  V30 5 1 3 6
M  V30 6 2 4 7
M  V30 7 3 5 8
M  V30 8 2 6 9
M  V30 9 1 7 10
M  V30 10 1 11 10 CFG=3
M  V30 11 1 11 12
M  V30 12 1 11 13
M  V30 13 1 12 14
M  V30 14 1 13 15
M  V30 15 1 16 14
M  V30 16 1 15 17
M  V30 17 1 16 18 CFG=1
M  V30 18 1 18 19
M  V30 19 2 19 20
M  V30 20 1 19 21
M  V30 21 2 21 22
M  V30 22 1 21 23
M  V30 23 1 22 24
M  V30 24 2 23 25
M  V30 25 2 24 26
M  V30 26 1 7 9
M  V30 27 1 16 17
M  V30 28 1 25 26
M  V30 END BOND
M  V30 BEGIN COLLECTION
M  V30 MDLV30/STEABS ATOMS=(2 11 16)
M  V30 END COLLECTION
M  V30 END CTAB
M  END
>  <Molecule Name>
Compound 1005

>  <Molecule Name 2>
Compound 1005

>  <Compound ID>
289

>  <Name>


>  <Uniprot>
P10275

>  <Target>
AR

>  <Smiles>
N#CC1=CC=C(O[C@@H]2CCC[C@@H](NC(=O)C3=CC=CC=C3)CC2)C=C1Cl

>  <Kd (nM)>


>  <Assay (Kd)>


>  <Ki (nM)>


>  <Assay (Ki)>


>  <IC50 (nM)>


>  <Assay (IC50)>


>  <EC50 (nM)>


>  <Assay (EC50)>


>  <Article DOI>
10.1021/acs.jmedchem.1c00900

>  <Molecular Weight>
368.864

>  <Exact Mass>
368.1291556

>  <XLogP3>
4.9

>  <Heavy Atom Count>
26

>  <Ring Count>
3

>  <Hydrogen Bond Acceptor Count>
3

>  <Hydrogen Bond Donor Count>
1

>  <Rotatable Bond Count>
4

>  <Topological Polar Surface Area>
62.12

>  <Molecular Formula>
C21H21ClN2O2

>  <InChI>
InChI=1S/C21H21ClN2O2/c22-20-13-19(11-9-16(20)14-23)26-18-8-4-7-17(10-12-18)24-21(25)15-5-2-1-3-6-15/h1-3,5-6,9,11,13,17-18H,4,7-8,10,12H2,(H,24,25)/t17-,18-/m1/s1

>  <InChI Key>
FYHDSERYTSYVJO-QZTJIDSGSA-N

>  <BindingDB>


>  <PubChem>


>  <ChEMBL>


$$$$
290
Actelion Java MolfileCreator 2.0

  0  0  0  0  0  0              0 V3000
M  V30 BEGIN CTAB
M  V30 COUNTS 27 29 0 0 0
M  V30 BEGIN ATOM
M  V30 1 Cl 11.1887 -1.7901 0.0 0
M  V30 2 C 11.1887 -0.2901 0.0 0
M  V30 3 C 12.4878 0.4598 0.0 0
M  V30 4 C 9.8897 0.4598 0.0 0
M  V30 5 C 13.7868 -0.2901 0.0 0
M  V30 6 C 12.4878 1.9598 0.0 0
M  V30 7 C 9.8897 1.9598 0.0 0
M  V30 8 N 15.0858 -1.0401 0.0 0
M  V30 9 C 11.1887 2.7098 0.0 0
M  V30 10 O 8.5907 2.7098 0.0 0
M  V30 11 C 7.2916 1.9598 0.0 0 CFG=1
M  V30 12 C 7.4874 0.4726 0.0 0
M  V30 13 C 6.1016 2.8729 0.0 0
M  V30 14 C 6.5743 -0.7173 0.0 0
M  V30 15 C 4.6144 2.6771 0.0 0
M  V30 16 C 5.0871 -0.9131 0.0 0
M  V30 17 C 3.7013 1.4871 0.0 0
M  V30 18 C 3.8971 0.0 0.0 0 CFG=2
M  V30 19 N 2.598 -0.75 0.0 0
M  V30 20 C 1.299 0.0 0.0 0
M  V30 21 O 1.299 1.5 0.0 0
M  V30 22 C 0.0 -0.75 0.0 0
M  V30 23 C -1.299 0.0 0.0 0
M  V30 24 C 0.0 -2.2499 0.0 0
M  V30 25 C -2.598 -0.7499 0.0 0
M  V30 26 C -1.299 -2.9999 0.0 0
M  V30 27 C -2.598 -2.2499 0.0 0
M  V30 END ATOM
M  V30 BEGIN BOND
M  V30 1 1 1 2
M  V30 2 2 2 3
M  V30 3 1 2 4
M  V30 4 1 3 5
M  V30 5 1 3 6
M  V30 6 2 4 7
M  V30 7 3 5 8
M  V30 8 2 6 9
M  V30 9 1 7 10
M  V30 10 1 11 10 CFG=1
M  V30 11 1 11 12
M  V30 12 1 11 13
M  V30 13 1 12 14
M  V30 14 1 13 15
M  V30 15 1 14 16
M  V30 16 1 15 17
M  V30 17 1 18 16
M  V30 18 1 18 19 CFG=1
M  V30 19 1 19 20
M  V30 20 2 20 21
M  V30 21 1 20 22
M  V30 22 2 22 23
M  V30 23 1 22 24
M  V30 24 1 23 25
M  V30 25 2 24 26
M  V30 26 2 25 27
M  V30 27 1 7 9
M  V30 28 1 17 18
M  V30 29 1 26 27
M  V30 END BOND
M  V30 BEGIN COLLECTION
M  V30 MDLV30/STEABS ATOMS=(2 11 18)
M  V30 END COLLECTION
M  V30 END CTAB
M  END
>  <Molecule Name>
Compound 1006

>  <Molecule Name 2>
Compound 1006

>  <Compound ID>
290

>  <Name>


>  <Uniprot>
P10275

>  <Target>
AR

>  <Smiles>
N#CC1=CC=C(O[C@H]2CCC[C@@H](NC(=O)C3=CC=CC=C3)CCC2)C=C1Cl

>  <Kd (nM)>


>  <Assay (Kd)>


>  <Ki (nM)>


>  <Assay (Ki)>


>  <IC50 (nM)>


>  <Assay (IC50)>


>  <EC50 (nM)>


>  <Assay (EC50)>


>  <Article DOI>
10.1021/acs.jmedchem.1c00900

>  <Molecular Weight>
382.891

>  <Exact Mass>
382.1448057

>  <XLogP3>
5.26

>  <Heavy Atom Count>
27

>  <Ring Count>
3

>  <Hydrogen Bond Acceptor Count>
3

>  <Hydrogen Bond Donor Count>
1

>  <Rotatable Bond Count>
4

>  <Topological Polar Surface Area>
62.12

>  <Molecular Formula>
C22H23ClN2O2

>  <InChI>
InChI=1S/C22H23ClN2O2/c23-21-14-20(13-12-17(21)15-24)27-19-10-4-8-18(9-5-11-19)25-22(26)16-6-2-1-3-7-16/h1-3,6-7,12-14,18-19H,4-5,8-11H2,(H,25,26)/t18-,19+

>  <InChI Key>
SUGSIUUWCADAIP-KDURUIRLSA-N

>  <BindingDB>


>  <PubChem>


>  <ChEMBL>


$$$$
291
Actelion Java MolfileCreator 2.0

  0  0  0  0  0  0              0 V3000
M  V30 BEGIN CTAB
M  V30 COUNTS 24 26 0 0 0
M  V30 BEGIN ATOM
M  V30 1 Cl 2.598 -3.0 0.0 0
M  V30 2 C 2.598 -1.9999 0.0 0
M  V30 3 C 3.4641 -1.5 0.0 0
M  V30 4 C 1.732 -1.5 0.0 0
M  V30 5 C 4.3301 -2.0 0.0 0
M  V30 6 C 3.4641 -0.5 0.0 0
M  V30 7 C 1.732 -0.5 0.0 0
M  V30 8 N 5.1961 -2.5 0.0 0
M  V30 9 C 2.598 0.0 0.0 0
M  V30 10 O 0.866 0.0 0.0 0
M  V30 11 C 0.0 -0.5 0.0 0
M  V30 12 C -0.866 0.0 0.0 0
M  V30 13 C 0.0 -1.4999 0.0 0
M  V30 14 C -1.732 -0.4999 0.0 0
M  V30 15 C -0.866 -1.9999 0.0 0
M  V30 16 N -1.732 -1.4999 0.0 0
M  V30 17 C -2.598 -1.9999 0.0 0
M  V30 18 O -3.4641 -1.4999 0.0 0
M  V30 19 C -2.598 -2.9999 0.0 0
M  V30 20 C -3.4641 -3.4999 0.0 0
M  V30 21 C -1.732 -3.4999 0.0 0
M  V30 22 C -3.4641 -4.4999 0.0 0
M  V30 23 C -1.732 -4.4999 0.0 0
M  V30 24 C -2.598 -4.9999 0.0 0
M  V30 END ATOM
M  V30 BEGIN BOND
M  V30 1 1 1 2
M  V30 2 2 2 3
M  V30 3 1 2 4
M  V30 4 1 3 5
M  V30 5 1 3 6
M  V30 6 2 4 7
M  V30 7 3 5 8
M  V30 8 2 6 9
M  V30 9 1 7 10
M  V30 10 1 10 11
M  V30 11 1 11 12
M  V30 12 1 11 13
M  V30 13 1 12 14
M  V30 14 1 13 15
M  V30 15 1 14 16
M  V30 16 1 16 17
M  V30 17 2 17 18
M  V30 18 1 17 19
M  V30 19 2 19 20
M  V30 20 1 19 21
M  V30 21 1 20 22
M  V30 22 2 21 23
M  V30 23 2 22 24
M  V30 24 1 7 9
M  V30 25 1 15 16
M  V30 26 1 23 24
M  V30 END BOND
M  V30 END CTAB
M  END
>  <Molecule Name>
Compound 1007

>  <Molecule Name 2>
Compound 1007

>  <Compound ID>
291

>  <Name>


>  <Uniprot>
P10275

>  <Target>
AR

>  <Smiles>
N#CC1=CC=C(OC2CCN(C(=O)C3=CC=CC=C3)CC2)C=C1Cl

>  <Kd (nM)>


>  <Assay (Kd)>


>  <Ki (nM)>


>  <Assay (Ki)>


>  <IC50 (nM)>


>  <Assay (IC50)>


>  <EC50 (nM)>


>  <Assay (EC50)>


>  <Article DOI>


>  <Molecular Weight>
340.81

>  <Exact Mass>
340.0978555

>  <XLogP3>
3.95

>  <Heavy Atom Count>
24

>  <Ring Count>
3

>  <Hydrogen Bond Acceptor Count>
3

>  <Hydrogen Bond Donor Count>
0

>  <Rotatable Bond Count>
3

>  <Topological Polar Surface Area>
53.33

>  <Molecular Formula>
C19H17ClN2O2

>  <InChI>
InChI=1S/C19H17ClN2O2/c20-18-12-17(7-6-15(18)13-21)24-16-8-10-22(11-9-16)19(23)14-4-2-1-3-5-14/h1-7,12,16H,8-11H2

>  <InChI Key>
NVHHEOAEMWKXDL-UHFFFAOYSA-N

>  <BindingDB>


>  <PubChem>
155219071

>  <ChEMBL>


$$$$
292
Actelion Java MolfileCreator 2.0

  0  0  0  0  0  0              0 V3000
M  V30 BEGIN CTAB
M  V30 COUNTS 25 27 0 0 0
M  V30 BEGIN ATOM
M  V30 1 Cl 3.8971 -4.5 0.0 0
M  V30 2 C 3.8971 -3.0 0.0 0
M  V30 3 C 5.1961 -2.25 0.0 0
M  V30 4 C 2.598 -2.25 0.0 0
M  V30 5 C 6.4951 -3.0 0.0 0
M  V30 6 C 5.1961 -0.75 0.0 0
M  V30 7 C 2.598 -0.75 0.0 0
M  V30 8 N 7.7942 -3.75 0.0 0
M  V30 9 C 3.8971 0.0 0.0 0
M  V30 10 O 1.299 0.0 0.0 0
M  V30 11 C 0.0 -0.75 0.0 0 CFG=2
M  V30 12 C -1.2393 0.0949 0.0 0
M  V30 13 C 0.112 -2.2458 0.0 0
M  V30 14 C -2.6727 -0.3471 0.0 0
M  V30 15 C -0.9874 -3.266 0.0 0
M  V30 16 N -3.2207 -1.7434 0.0 0
M  V30 17 C -2.4707 -3.0425 0.0 0
M  V30 18 C -4.7165 -1.8555 0.0 0
M  V30 19 O -5.5615 -0.6162 0.0 0
M  V30 20 C -5.3673 -3.207 0.0 0
M  V30 21 C -6.8631 -3.3191 0.0 0
M  V30 22 C -4.5223 -4.4463 0.0 0
M  V30 23 C -7.5139 -4.6705 0.0 0
M  V30 24 C -5.1732 -5.7978 0.0 0
M  V30 25 C -6.669 -5.9099 0.0 0
M  V30 END ATOM
M  V30 BEGIN BOND
M  V30 1 1 1 2
M  V30 2 2 2 3
M  V30 3 1 2 4
M  V30 4 1 3 5
M  V30 5 1 3 6
M  V30 6 2 4 7
M  V30 7 3 5 8
M  V30 8 2 6 9
M  V30 9 1 7 10
M  V30 10 1 11 10 CFG=1
M  V30 11 1 11 12
M  V30 12 1 11 13
M  V30 13 1 12 14
M  V30 14 1 13 15
M  V30 15 1 14 16
M  V30 16 1 15 17
M  V30 17 1 16 18
M  V30 18 2 18 19
M  V30 19 1 18 20
M  V30 20 2 20 21
M  V30 21 1 20 22
M  V30 22 1 21 23
M  V30 23 2 22 24
M  V30 24 2 23 25
M  V30 25 1 7 9
M  V30 26 1 16 17
M  V30 27 1 24 25
M  V30 END BOND
M  V30 BEGIN COLLECTION
M  V30 MDLV30/STERAC1 ATOMS=(1 11)
M  V30 END COLLECTION
M  V30 END CTAB
M  END
>  <Molecule Name>
Compound 1008

>  <Molecule Name 2>
Compound 1008

>  <Compound ID>
292

>  <Name>


>  <Uniprot>
P10275

>  <Target>
AR

>  <Smiles>
N#CC1=CC=C(OC2CCCN(C(=O)C3=CC=CC=C3)CC2)C=C1Cl

>  <Kd (nM)>


>  <Assay (Kd)>


>  <Ki (nM)>


>  <Assay (Ki)>


>  <IC50 (nM)>


>  <Assay (IC50)>


>  <EC50 (nM)>


>  <Assay (EC50)>


>  <Article DOI>
10.1021/acs.jmedchem.1c00900

>  <Molecular Weight>
354.837

>  <Exact Mass>
354.1135055

>  <XLogP3>
4.31

>  <Heavy Atom Count>
25

>  <Ring Count>
3

>  <Hydrogen Bond Acceptor Count>
3

>  <Hydrogen Bond Donor Count>
0

>  <Rotatable Bond Count>
3

>  <Topological Polar Surface Area>
53.33

>  <Molecular Formula>
C20H19ClN2O2

>  <InChI>
InChI=1S/C20H19ClN2O2/c21-19-13-18(9-8-16(19)14-22)25-17-7-4-11-23(12-10-17)20(24)15-5-2-1-3-6-15/h1-3,5-6,8-9,13,17H,4,7,10-12H2

>  <InChI Key>
WSJZBWUHTJLDKU-UHFFFAOYSA-N

>  <BindingDB>


>  <PubChem>


>  <ChEMBL>


$$$$
293
Actelion Java MolfileCreator 2.0

  0  0  0  0  0  0              0 V3000
M  V30 BEGIN CTAB
M  V30 COUNTS 25 27 0 0 0
M  V30 BEGIN ATOM
M  V30 1 Cl 6.9282 -1.4999 0.0 0
M  V30 2 C 6.9282 -0.4999 0.0 0
M  V30 3 C 7.7942 0.0 0.0 0
M  V30 4 C 6.0621 0.0 0.0 0
M  V30 5 C 8.6602 -0.4999 0.0 0
M  V30 6 C 7.7942 1.0 0.0 0
M  V30 7 C 6.0621 1.0 0.0 0
M  V30 8 N 9.5262 -0.9999 0.0 0
M  V30 9 C 6.9282 1.5 0.0 0
M  V30 10 N 5.1961 1.5 0.0 0
M  V30 11 C 4.3301 1.0 0.0 0 CFG=1
M  V30 12 C 3.4641 1.5 0.0 0
M  V30 13 C 4.3301 0.0 0.0 0
M  V30 14 C 2.598 0.9999 0.0 0
M  V30 15 C 3.4641 -0.4999 0.0 0
M  V30 16 C 2.598 0.0 0.0 0 CFG=1
M  V30 17 N 1.732 -0.5 0.0 0
M  V30 18 C 0.866 0.0 0.0 0
M  V30 19 O 0.866 1.0 0.0 0
M  V30 20 C 0.0 -0.5 0.0 0
M  V30 21 C -0.866 0.0 0.0 0
M  V30 22 C 0.0 -1.4999 0.0 0
M  V30 23 C -1.732 -0.4999 0.0 0
M  V30 24 C -0.866 -1.9999 0.0 0
M  V30 25 C -1.732 -1.4999 0.0 0
M  V30 END ATOM
M  V30 BEGIN BOND
M  V30 1 1 1 2
M  V30 2 2 2 3
M  V30 3 1 2 4
M  V30 4 1 3 5
M  V30 5 1 3 6
M  V30 6 2 4 7
M  V30 7 3 5 8
M  V30 8 2 6 9
M  V30 9 1 7 10
M  V30 10 1 11 10 CFG=3
M  V30 11 1 11 12
M  V30 12 1 11 13
M  V30 13 1 12 14
M  V30 14 1 13 15
M  V30 15 1 16 14
M  V30 16 1 16 17 CFG=1
M  V30 17 1 17 18
M  V30 18 2 18 19
M  V30 19 1 18 20
M  V30 20 2 20 21
M  V30 21 1 20 22
M  V30 22 1 21 23
M  V30 23 2 22 24
M  V30 24 2 23 25
M  V30 25 1 7 9
M  V30 26 1 15 16
M  V30 27 1 24 25
M  V30 END BOND
M  V30 BEGIN COLLECTION
M  V30 MDLV30/STEABS ATOMS=(2 11 16)
M  V30 END COLLECTION
M  V30 END CTAB
M  END
>  <Molecule Name>
Compound 1009

>  <Molecule Name 2>
Compound 1009

>  <Compound ID>
293

>  <Name>


>  <Uniprot>
P10275

>  <Target>
AR

>  <Smiles>
N#CC1=CC=C(N[C@H]2CC[C@H](NC(=O)C3=CC=CC=C3)CC2)C=C1Cl

>  <Kd (nM)>


>  <Assay (Kd)>


>  <Ki (nM)>


>  <Assay (Ki)>


>  <IC50 (nM)>


>  <Assay (IC50)>


>  <EC50 (nM)>


>  <Assay (EC50)>


>  <Article DOI>
10.1021/acs.jmedchem.1c00900

>  <Molecular Weight>
353.853

>  <Exact Mass>
353.1294899

>  <XLogP3>
4.56

>  <Heavy Atom Count>
25

>  <Ring Count>
3

>  <Hydrogen Bond Acceptor Count>
3

>  <Hydrogen Bond Donor Count>
2

>  <Rotatable Bond Count>
4

>  <Topological Polar Surface Area>
64.92

>  <Molecular Formula>
C20H20ClN3O

>  <InChI>
InChI=1S/C20H20ClN3O/c21-19-12-18(7-6-15(19)13-22)23-16-8-10-17(11-9-16)24-20(25)14-4-2-1-3-5-14/h1-7,12,16-17,23H,8-11H2,(H,24,25)/t16-,17-

>  <InChI Key>
OOOICALKEYTKBS-QAQDUYKDSA-N

>  <BindingDB>


>  <PubChem>


>  <ChEMBL>


$$$$
294
Actelion Java MolfileCreator 2.0

  0  0  0  0  0  0              0 V3000
M  V30 BEGIN CTAB
M  V30 COUNTS 26 28 0 0 0
M  V30 BEGIN ATOM
M  V30 1 Cl 10.3923 6.75 0.0 0
M  V30 2 C 9.0932 6.0 0.0 0
M  V30 3 C 7.7942 6.75 0.0 0
M  V30 4 C 9.0932 4.5 0.0 0
M  V30 5 C 7.7942 8.25 0.0 0
M  V30 6 C 6.4951 6.0 0.0 0
M  V30 7 C 7.7942 3.75 0.0 0
M  V30 8 N 7.7942 9.75 0.0 0
M  V30 9 C 6.4951 4.5 0.0 0
M  V30 10 N 7.7942 2.25 0.0 0
M  V30 11 C 6.4951 1.5 0.0 0 CFG=1
M  V30 12 C 9.0932 1.5 0.0 0
M  V30 13 C 5.1961 2.25 0.0 0
M  V30 14 C 6.4951 0.0 0.0 0
M  V30 15 C 3.8971 1.5 0.0 0
M  V30 16 C 5.1961 -0.7499 0.0 0
M  V30 17 C 3.8971 0.0 0.0 0 CFG=1
M  V30 18 N 2.598 -0.75 0.0 0
M  V30 19 C 1.299 0.0 0.0 0
M  V30 20 O 1.299 1.5 0.0 0
M  V30 21 C 0.0 -0.75 0.0 0
M  V30 22 C -1.299 0.0 0.0 0
M  V30 23 C 0.0 -2.2499 0.0 0
M  V30 24 C -2.598 -0.7499 0.0 0
M  V30 25 C -1.299 -2.9999 0.0 0
M  V30 26 C -2.598 -2.2499 0.0 0
M  V30 END ATOM
M  V30 BEGIN BOND
M  V30 1 1 1 2
M  V30 2 2 2 3
M  V30 3 1 2 4
M  V30 4 1 3 5
M  V30 5 1 3 6
M  V30 6 2 4 7
M  V30 7 3 5 8
M  V30 8 2 6 9
M  V30 9 1 7 10
M  V30 10 1 11 10 CFG=3
M  V30 11 1 10 12
M  V30 12 1 11 13
M  V30 13 1 11 14
M  V30 14 1 13 15
M  V30 15 1 14 16
M  V30 16 1 17 15
M  V30 17 1 17 18 CFG=1
M  V30 18 1 18 19
M  V30 19 2 19 20
M  V30 20 1 19 21
M  V30 21 2 21 22
M  V30 22 1 21 23
M  V30 23 1 22 24
M  V30 24 2 23 25
M  V30 25 2 24 26
M  V30 26 1 7 9
M  V30 27 1 16 17
M  V30 28 1 25 26
M  V30 END BOND
M  V30 BEGIN COLLECTION
M  V30 MDLV30/STEABS ATOMS=(2 11 17)
M  V30 END COLLECTION
M  V30 END CTAB
M  END
>  <Molecule Name>
Compound 1010

>  <Molecule Name 2>
Compound 1010

>  <Compound ID>
294

>  <Name>


>  <Uniprot>
P10275

>  <Target>
AR

>  <Smiles>
CN(C1=CC=C(C#N)C(Cl)=C1)[C@H]1CC[C@H](NC(=O)C2=CC=CC=C2)CC1

>  <Kd (nM)>


>  <Assay (Kd)>


>  <Ki (nM)>


>  <Assay (Ki)>


>  <IC50 (nM)>


>  <Assay (IC50)>


>  <EC50 (nM)>


>  <Assay (EC50)>


>  <Article DOI>
10.1021/acs.jmedchem.1c00900

>  <Molecular Weight>
367.88

>  <Exact Mass>
367.14514

>  <XLogP3>
4.7

>  <Heavy Atom Count>
26

>  <Ring Count>
3

>  <Hydrogen Bond Acceptor Count>
3

>  <Hydrogen Bond Donor Count>
1

>  <Rotatable Bond Count>
4

>  <Topological Polar Surface Area>
56.13

>  <Molecular Formula>
C21H22ClN3O

>  <InChI>
InChI=1S/C21H22ClN3O/c1-25(19-10-7-16(14-23)20(22)13-19)18-11-8-17(9-12-18)24-21(26)15-5-3-2-4-6-15/h2-7,10,13,17-18H,8-9,11-12H2,1H3,(H,24,26)/t17-,18-

>  <InChI Key>
HQZJNJQEXHRPDV-IYARVYRRSA-N

>  <BindingDB>


>  <PubChem>


>  <ChEMBL>


$$$$
295
Actelion Java MolfileCreator 2.0

  0  0  0  0  0  0              0 V3000
M  V30 BEGIN CTAB
M  V30 COUNTS 27 29 0 0 0
M  V30 BEGIN ATOM
M  V30 1 Cl 5.1961 -0.5 0.0 0
M  V30 2 C 4.3301 0.0 0.0 0
M  V30 3 C 4.3301 1.0 0.0 0
M  V30 4 C 3.4641 -0.4999 0.0 0
M  V30 5 C 5.1961 1.5 0.0 0
M  V30 6 C 3.4641 1.5 0.0 0
M  V30 7 C 2.598 0.0 0.0 0
M  V30 8 N 6.0621 2.0 0.0 0
M  V30 9 C 2.598 1.0 0.0 0
M  V30 10 N 1.732 -0.5 0.0 0
M  V30 11 C 1.732 -1.5 0.0 0 CFG=1
M  V30 12 C 0.866 0.0 0.0 0
M  V30 13 C 0.866 -2.0 0.0 0
M  V30 14 C 2.598 -1.9999 0.0 0
M  V30 15 C 0.0 -0.5 0.0 0
M  V30 16 C 0.866 -3.0 0.0 0
M  V30 17 C 2.598 -2.9999 0.0 0
M  V30 18 C 1.732 -3.5 0.0 0 CFG=1
M  V30 19 N 1.732 -4.5 0.0 0
M  V30 20 C 0.866 -5.0 0.0 0
M  V30 21 O 0.0 -4.5 0.0 0
M  V30 22 C 0.866 -6.0 0.0 0
M  V30 23 C 0.0 -6.4999 0.0 0
M  V30 24 C 1.732 -6.5 0.0 0
M  V30 25 C 0.0 -7.5 0.0 0
M  V30 26 C 1.732 -7.5 0.0 0
M  V30 27 C 0.866 -8.0 0.0 0
M  V30 END ATOM
M  V30 BEGIN BOND
M  V30 1 1 1 2
M  V30 2 2 2 3
M  V30 3 1 2 4
M  V30 4 1 3 5
M  V30 5 1 3 6
M  V30 6 2 4 7
M  V30 7 3 5 8
M  V30 8 2 6 9
M  V30 9 1 7 10
M  V30 10 1 11 10 CFG=3
M  V30 11 1 10 12
M  V30 12 1 11 13
M  V30 13 1 11 14
M  V30 14 1 12 15
M  V30 15 1 13 16
M  V30 16 1 14 17
M  V30 17 1 18 16
M  V30 18 1 18 19 CFG=1
M  V30 19 1 19 20
M  V30 20 2 20 21
M  V30 21 1 20 22
M  V30 22 2 22 23
M  V30 23 1 22 24
M  V30 24 1 23 25
M  V30 25 2 24 26
M  V30 26 2 25 27
M  V30 27 1 7 9
M  V30 28 1 17 18
M  V30 29 1 26 27
M  V30 END BOND
M  V30 BEGIN COLLECTION
M  V30 MDLV30/STEABS ATOMS=(2 11 18)
M  V30 END COLLECTION
M  V30 END CTAB
M  END
>  <Molecule Name>
Compound 1011

>  <Molecule Name 2>
Compound 1011

>  <Compound ID>
295

>  <Name>


>  <Uniprot>
P10275

>  <Target>
AR

>  <Smiles>
CCN(C1=CC=C(C#N)C(Cl)=C1)[C@H]1CC[C@H](NC(=O)C2=CC=CC=C2)CC1

>  <Kd (nM)>


>  <Assay (Kd)>


>  <Ki (nM)>


>  <Assay (Ki)>


>  <IC50 (nM)>


>  <Assay (IC50)>


>  <EC50 (nM)>


>  <Assay (EC50)>


>  <Article DOI>
10.1021/acs.jmedchem.1c00900

>  <Molecular Weight>
381.907

>  <Exact Mass>
381.1607901

>  <XLogP3>
5.07

>  <Heavy Atom Count>
27

>  <Ring Count>
3

>  <Hydrogen Bond Acceptor Count>
3

>  <Hydrogen Bond Donor Count>
1

>  <Rotatable Bond Count>
5

>  <Topological Polar Surface Area>
56.13

>  <Molecular Formula>
C22H24ClN3O

>  <InChI>
InChI=1S/C22H24ClN3O/c1-2-26(20-11-8-17(15-24)21(23)14-20)19-12-9-18(10-13-19)25-22(27)16-6-4-3-5-7-16/h3-8,11,14,18-19H,2,9-10,12-13H2,1H3,(H,25,27)/t18-,19-

>  <InChI Key>
MJGAWTCPZRAZES-WGSAOQKQSA-N

>  <BindingDB>


>  <PubChem>


>  <ChEMBL>


$$$$
296
Actelion Java MolfileCreator 2.0

  0  0  0  0  0  0              0 V3000
M  V30 BEGIN CTAB
M  V30 COUNTS 28 30 0 0 0
M  V30 BEGIN ATOM
M  V30 1 Cl 4.3301 -2.9999 0.0 0
M  V30 2 C 4.3301 -1.9999 0.0 0
M  V30 3 C 5.1961 -1.5 0.0 0
M  V30 4 C 3.4641 -1.5 0.0 0
M  V30 5 C 6.0621 -2.0 0.0 0
M  V30 6 C 5.1961 -0.5 0.0 0
M  V30 7 C 3.4641 -0.5 0.0 0
M  V30 8 N 6.9282 -2.5 0.0 0
M  V30 9 C 4.3301 0.0 0.0 0
M  V30 10 N 2.598 0.0 0.0 0
M  V30 11 C 2.598 1.0 0.0 0 CFG=1
M  V30 12 C 1.732 -0.5 0.0 0
M  V30 13 C 3.4641 1.5 0.0 0
M  V30 14 C 1.732 1.4999 0.0 0
M  V30 15 C 0.866 0.0 0.0 0
M  V30 16 C 3.4641 2.5 0.0 0
M  V30 17 C 1.732 2.4999 0.0 0
M  V30 18 C 0.0 -0.5 0.0 0
M  V30 19 C 2.598 3.0 0.0 0 CFG=1
M  V30 20 N 2.598 4.0 0.0 0
M  V30 21 C 3.4641 4.5 0.0 0
M  V30 22 O 4.3301 4.0 0.0 0
M  V30 23 C 3.4641 5.5 0.0 0
M  V30 24 C 4.3301 5.9999 0.0 0
M  V30 25 C 2.598 6.0 0.0 0
M  V30 26 C 4.3301 7.0 0.0 0
M  V30 27 C 2.598 7.0 0.0 0
M  V30 28 C 3.4641 7.5 0.0 0
M  V30 END ATOM
M  V30 BEGIN BOND
M  V30 1 1 1 2
M  V30 2 2 2 3
M  V30 3 1 2 4
M  V30 4 1 3 5
M  V30 5 1 3 6
M  V30 6 2 4 7
M  V30 7 3 5 8
M  V30 8 2 6 9
M  V30 9 1 7 10
M  V30 10 1 11 10 CFG=3
M  V30 11 1 10 12
M  V30 12 1 11 13
M  V30 13 1 11 14
M  V30 14 1 12 15
M  V30 15 1 13 16
M  V30 16 1 14 17
M  V30 17 1 15 18
M  V30 18 1 19 16
M  V30 19 1 19 20 CFG=1
M  V30 20 1 20 21
M  V30 21 2 21 22
M  V30 22 1 21 23
M  V30 23 2 23 24
M  V30 24 1 23 25
M  V30 25 1 24 26
M  V30 26 2 25 27
M  V30 27 2 26 28
M  V30 28 1 7 9
M  V30 29 1 17 19
M  V30 30 1 27 28
M  V30 END BOND
M  V30 BEGIN COLLECTION
M  V30 MDLV30/STEABS ATOMS=(2 11 19)
M  V30 END COLLECTION
M  V30 END CTAB
M  END
>  <Molecule Name>
Compound 1012

>  <Molecule Name 2>
Compound 1012

>  <Compound ID>
296

>  <Name>


>  <Uniprot>
P10275

>  <Target>
AR

>  <Smiles>
CCCN(C1=CC=C(C#N)C(Cl)=C1)[C@H]1CC[C@H](NC(=O)C2=CC=CC=C2)CC1

>  <Kd (nM)>


>  <Assay (Kd)>


>  <Ki (nM)>


>  <Assay (Ki)>


>  <IC50 (nM)>


>  <Assay (IC50)>


>  <EC50 (nM)>


>  <Assay (EC50)>


>  <Article DOI>
10.1021/acs.jmedchem.1c00900

>  <Molecular Weight>
395.934

>  <Exact Mass>
395.1764401

>  <XLogP3>
5.59

>  <Heavy Atom Count>
28

>  <Ring Count>
3

>  <Hydrogen Bond Acceptor Count>
3

>  <Hydrogen Bond Donor Count>
1

>  <Rotatable Bond Count>
6

>  <Topological Polar Surface Area>
56.13

>  <Molecular Formula>
C23H26ClN3O

>  <InChI>
InChI=1S/C23H26ClN3O/c1-2-14-27(21-11-8-18(16-25)22(24)15-21)20-12-9-19(10-13-20)26-23(28)17-6-4-3-5-7-17/h3-8,11,15,19-20H,2,9-10,12-14H2,1H3,(H,26,28)/t19-,20-

>  <InChI Key>
IAOCNRVILUCSSJ-MXVIHJGJSA-N

>  <BindingDB>


>  <PubChem>


>  <ChEMBL>


$$$$
297
Actelion Java MolfileCreator 2.0

  0  0  0  0  0  0              0 V3000
M  V30 BEGIN CTAB
M  V30 COUNTS 31 34 0 0 0
M  V30 BEGIN ATOM
M  V30 1 O 8.2544 -6.047 0.0 0
M  V30 2 N 9.5534 -5.297 0.0 0
M  V30 3 N 7.1396 -5.0433 0.0 0
M  V30 4 C 9.2415 -3.8298 0.0 0
M  V30 5 C 7.7498 -3.673 0.0 0
M  V30 6 N 10.2452 -2.7151 0.0 0
M  V30 7 C 6.9998 -2.374 0.0 0
M  V30 8 N 7.6099 -1.0036 0.0 0
M  V30 9 N 5.508 -2.2172 0.0 0
M  V30 10 C 6.4951 0.0 0.0 0
M  V30 11 C 5.1961 -0.7499 0.0 0
M  V30 12 C 4.5043 -3.3319 0.0 0
M  V30 13 C 6.4951 1.5 0.0 0
M  V30 14 C 3.8971 0.0 0.0 0
M  V30 15 C 4.9678 -4.7585 0.0 0
M  V30 16 N 5.1961 2.25 0.0 0
M  V30 17 C 7.7942 2.25 0.0 0
M  V30 18 O 2.598 -0.75 0.0 0
M  V30 19 C 3.8971 1.5 0.0 0
M  V30 20 C 9.0932 3.0 0.0 0
M  V30 21 C 1.299 0.0 0.0 0
M  V30 22 C 10.3923 3.75 0.0 0
M  V30 23 C 0.0 -0.75 0.0 0 CFG=2
M  V30 24 O 9.6423 5.049 0.0 0
M  V30 25 C 11.6913 4.5 0.0 0
M  V30 26 C 11.1423 2.4509 0.0 0
M  V30 27 C -1.299 0.0 0.0 0
M  V30 28 C 0.0 -2.25 0.0 0
M  V30 29 N -2.598 -0.7499 0.0 0
M  V30 30 C -1.299 -2.9999 0.0 0
M  V30 31 C -2.598 -2.2499 0.0 0
M  V30 END ATOM
M  V30 BEGIN BOND
M  V30 1 1 1 2
M  V30 2 1 1 3
M  V30 3 2 2 4
M  V30 4 2 3 5
M  V30 5 1 4 6
M  V30 6 1 5 7
M  V30 7 2 7 8
M  V30 8 1 7 9
M  V30 9 1 8 10
M  V30 10 1 9 11
M  V30 11 1 9 12
M  V30 12 1 10 13
M  V30 13 1 11 14
M  V30 14 1 12 15
M  V30 15 2 13 16
M  V30 16 1 13 17
M  V30 17 1 14 18
M  V30 18 2 14 19
M  V30 19 3 17 20
M  V30 20 1 18 21
M  V30 21 1 20 22
M  V30 22 1 23 21 CFG=1
M  V30 23 1 22 24
M  V30 24 1 22 25
M  V30 25 1 22 26
M  V30 26 1 23 27
M  V30 27 1 23 28
M  V30 28 1 27 29
M  V30 29 1 28 30
M  V30 30 1 29 31
M  V30 31 1 4 5
M  V30 32 2 10 11
M  V30 33 1 16 19
M  V30 34 1 30 31
M  V30 END BOND
M  V30 BEGIN COLLECTION
M  V30 MDLV30/STEABS ATOMS=(1 23)
M  V30 END COLLECTION
M  V30 END CTAB
M  END
>  <Molecule Name>
Compound 1013

>  <Molecule Name 2>
Compound 1013

>  <Compound ID>
297

>  <Name>
GSK690693

>  <Uniprot>
P31749

>  <Target>
AKT1

>  <Smiles>
CCN1C(C2=NON=C2N)=NC2=C(C#CC(C)(C)O)N=CC(OC[C@H]3CCCNC3)=C21

>  <Kd (nM)>


>  <Assay (Kd)>


>  <Ki (nM)>


>  <Assay (Ki)>


>  <IC50 (nM)>
2

>  <Assay (IC50)>
Inhibition of AKT1

>  <EC50 (nM)>


>  <Assay (EC50)>


>  <Article DOI>
10.1016/j.bmcl.2009.01.002

>  <Molecular Weight>
425.493

>  <Exact Mass>
425.2175377

>  <XLogP3>
0.27

>  <Heavy Atom Count>
31

>  <Ring Count>
4

>  <Hydrogen Bond Acceptor Count>
10

>  <Hydrogen Bond Donor Count>
3

>  <Rotatable Bond Count>
5

>  <Topological Polar Surface Area>
137.14

>  <Molecular Formula>
C21H27N7O3

>  <InChI>
InChI=1S/C21H27N7O3/c1-4-28-18-15(30-12-13-6-5-9-23-10-13)11-24-14(7-8-21(2,3)29)16(18)25-20(28)17-19(22)27-31-26-17/h11,13,23,29H,4-6,9-10,12H2,1-3H3,(H2,22,27)/t13-/m0/s1

>  <InChI Key>
KGPGFQWBCSZGEL-ZDUSSCGKSA-N

>  <BindingDB>
25013

>  <PubChem>
16725726

>  <ChEMBL>
CHEMBL494089

$$$$
297
Actelion Java MolfileCreator 2.0

  0  0  0  0  0  0              0 V3000
M  V30 BEGIN CTAB
M  V30 COUNTS 31 34 0 0 0
M  V30 BEGIN ATOM
M  V30 1 O 8.2544 -6.047 0.0 0
M  V30 2 N 9.5534 -5.297 0.0 0
M  V30 3 N 7.1396 -5.0433 0.0 0
M  V30 4 C 9.2415 -3.8298 0.0 0
M  V30 5 C 7.7498 -3.673 0.0 0
M  V30 6 N 10.2452 -2.7151 0.0 0
M  V30 7 C 6.9998 -2.374 0.0 0
M  V30 8 N 7.6099 -1.0036 0.0 0
M  V30 9 N 5.508 -2.2172 0.0 0
M  V30 10 C 6.4951 0.0 0.0 0
M  V30 11 C 5.1961 -0.7499 0.0 0
M  V30 12 C 4.5043 -3.3319 0.0 0
M  V30 13 C 6.4951 1.5 0.0 0
M  V30 14 C 3.8971 0.0 0.0 0
M  V30 15 C 4.9678 -4.7585 0.0 0
M  V30 16 N 5.1961 2.25 0.0 0
M  V30 17 C 7.7942 2.25 0.0 0
M  V30 18 O 2.598 -0.75 0.0 0
M  V30 19 C 3.8971 1.5 0.0 0
M  V30 20 C 9.0932 3.0 0.0 0
M  V30 21 C 1.299 0.0 0.0 0
M  V30 22 C 10.3923 3.75 0.0 0
M  V30 23 C 0.0 -0.75 0.0 0 CFG=2
M  V30 24 O 9.6423 5.049 0.0 0
M  V30 25 C 11.6913 4.5 0.0 0
M  V30 26 C 11.1423 2.4509 0.0 0
M  V30 27 C -1.299 0.0 0.0 0
M  V30 28 C 0.0 -2.25 0.0 0
M  V30 29 N -2.598 -0.7499 0.0 0
M  V30 30 C -1.299 -2.9999 0.0 0
M  V30 31 C -2.598 -2.2499 0.0 0
M  V30 END ATOM
M  V30 BEGIN BOND
M  V30 1 1 1 2
M  V30 2 1 1 3
M  V30 3 2 2 4
M  V30 4 2 3 5
M  V30 5 1 4 6
M  V30 6 1 5 7
M  V30 7 2 7 8
M  V30 8 1 7 9
M  V30 9 1 8 10
M  V30 10 1 9 11
M  V30 11 1 9 12
M  V30 12 1 10 13
M  V30 13 1 11 14
M  V30 14 1 12 15
M  V30 15 2 13 16
M  V30 16 1 13 17
M  V30 17 1 14 18
M  V30 18 2 14 19
M  V30 19 3 17 20
M  V30 20 1 18 21
M  V30 21 1 20 22
M  V30 22 1 23 21 CFG=1
M  V30 23 1 22 24
M  V30 24 1 22 25
M  V30 25 1 22 26
M  V30 26 1 23 27
M  V30 27 1 23 28
M  V30 28 1 27 29
M  V30 29 1 28 30
M  V30 30 1 29 31
M  V30 31 1 4 5
M  V30 32 2 10 11
M  V30 33 1 16 19
M  V30 34 1 30 31
M  V30 END BOND
M  V30 BEGIN COLLECTION
M  V30 MDLV30/STEABS ATOMS=(1 23)
M  V30 END COLLECTION
M  V30 END CTAB
M  END
>  <Molecule Name>
Compound 1014

>  <Molecule Name 2>
Compound 1014

>  <Compound ID>
297

>  <Name>
GSK690693

>  <Uniprot>
P31751

>  <Target>
AKT2

>  <Smiles>
CCN1C(C2=NON=C2N)=NC2=C(C#CC(C)(C)O)N=CC(OC[C@H]3CCCNC3)=C21

>  <Kd (nM)>


>  <Assay (Kd)>


>  <Ki (nM)>


>  <Assay (Ki)>


>  <IC50 (nM)>
13

>  <Assay (IC50)>
Inhibition of AKT2

>  <EC50 (nM)>


>  <Assay (EC50)>


>  <Article DOI>
10.1016/j.bmcl.2009.01.002

>  <Molecular Weight>
425.493

>  <Exact Mass>
425.2175377

>  <XLogP3>
0.27

>  <Heavy Atom Count>
31

>  <Ring Count>
4

>  <Hydrogen Bond Acceptor Count>
10

>  <Hydrogen Bond Donor Count>
3

>  <Rotatable Bond Count>
5

>  <Topological Polar Surface Area>
137.14

>  <Molecular Formula>
C21H27N7O3

>  <InChI>
InChI=1S/C21H27N7O3/c1-4-28-18-15(30-12-13-6-5-9-23-10-13)11-24-14(7-8-21(2,3)29)16(18)25-20(28)17-19(22)27-31-26-17/h11,13,23,29H,4-6,9-10,12H2,1-3H3,(H2,22,27)/t13-/m0/s1

>  <InChI Key>
KGPGFQWBCSZGEL-ZDUSSCGKSA-N

>  <BindingDB>
25013

>  <PubChem>
16725726

>  <ChEMBL>
CHEMBL494089

$$$$
297
Actelion Java MolfileCreator 2.0

  0  0  0  0  0  0              0 V3000
M  V30 BEGIN CTAB
M  V30 COUNTS 31 34 0 0 0
M  V30 BEGIN ATOM
M  V30 1 O 8.2544 -6.047 0.0 0
M  V30 2 N 9.5534 -5.297 0.0 0
M  V30 3 N 7.1396 -5.0433 0.0 0
M  V30 4 C 9.2415 -3.8298 0.0 0
M  V30 5 C 7.7498 -3.673 0.0 0
M  V30 6 N 10.2452 -2.7151 0.0 0
M  V30 7 C 6.9998 -2.374 0.0 0
M  V30 8 N 7.6099 -1.0036 0.0 0
M  V30 9 N 5.508 -2.2172 0.0 0
M  V30 10 C 6.4951 0.0 0.0 0
M  V30 11 C 5.1961 -0.7499 0.0 0
M  V30 12 C 4.5043 -3.3319 0.0 0
M  V30 13 C 6.4951 1.5 0.0 0
M  V30 14 C 3.8971 0.0 0.0 0
M  V30 15 C 4.9678 -4.7585 0.0 0
M  V30 16 N 5.1961 2.25 0.0 0
M  V30 17 C 7.7942 2.25 0.0 0
M  V30 18 O 2.598 -0.75 0.0 0
M  V30 19 C 3.8971 1.5 0.0 0
M  V30 20 C 9.0932 3.0 0.0 0
M  V30 21 C 1.299 0.0 0.0 0
M  V30 22 C 10.3923 3.75 0.0 0
M  V30 23 C 0.0 -0.75 0.0 0 CFG=2
M  V30 24 O 9.6423 5.049 0.0 0
M  V30 25 C 11.6913 4.5 0.0 0
M  V30 26 C 11.1423 2.4509 0.0 0
M  V30 27 C -1.299 0.0 0.0 0
M  V30 28 C 0.0 -2.25 0.0 0
M  V30 29 N -2.598 -0.7499 0.0 0
M  V30 30 C -1.299 -2.9999 0.0 0
M  V30 31 C -2.598 -2.2499 0.0 0
M  V30 END ATOM
M  V30 BEGIN BOND
M  V30 1 1 1 2
M  V30 2 1 1 3
M  V30 3 2 2 4
M  V30 4 2 3 5
M  V30 5 1 4 6
M  V30 6 1 5 7
M  V30 7 2 7 8
M  V30 8 1 7 9
M  V30 9 1 8 10
M  V30 10 1 9 11
M  V30 11 1 9 12
M  V30 12 1 10 13
M  V30 13 1 11 14
M  V30 14 1 12 15
M  V30 15 2 13 16
M  V30 16 1 13 17
M  V30 17 1 14 18
M  V30 18 2 14 19
M  V30 19 3 17 20
M  V30 20 1 18 21
M  V30 21 1 20 22
M  V30 22 1 23 21 CFG=1
M  V30 23 1 22 24
M  V30 24 1 22 25
M  V30 25 1 22 26
M  V30 26 1 23 27
M  V30 27 1 23 28
M  V30 28 1 27 29
M  V30 29 1 28 30
M  V30 30 1 29 31
M  V30 31 1 4 5
M  V30 32 2 10 11
M  V30 33 1 16 19
M  V30 34 1 30 31
M  V30 END BOND
M  V30 BEGIN COLLECTION
M  V30 MDLV30/STEABS ATOMS=(1 23)
M  V30 END COLLECTION
M  V30 END CTAB
M  END
>  <Molecule Name>
Compound 1015

>  <Molecule Name 2>
Compound 1015

>  <Compound ID>
297

>  <Name>
GSK690693

>  <Uniprot>
Q9Y243

>  <Target>
AKT3

>  <Smiles>
CCN1C(C2=NON=C2N)=NC2=C(C#CC(C)(C)O)N=CC(OC[C@H]3CCCNC3)=C21

>  <Kd (nM)>


>  <Assay (Kd)>


>  <Ki (nM)>


>  <Assay (Ki)>


>  <IC50 (nM)>
9

>  <Assay (IC50)>
Inhibition of AKT3

>  <EC50 (nM)>


>  <Assay (EC50)>


>  <Article DOI>
10.1016/j.bmcl.2009.01.002

>  <Molecular Weight>
425.493

>  <Exact Mass>
425.2175377

>  <XLogP3>
0.27

>  <Heavy Atom Count>
31

>  <Ring Count>
4

>  <Hydrogen Bond Acceptor Count>
10

>  <Hydrogen Bond Donor Count>
3

>  <Rotatable Bond Count>
5

>  <Topological Polar Surface Area>
137.14

>  <Molecular Formula>
C21H27N7O3

>  <InChI>
InChI=1S/C21H27N7O3/c1-4-28-18-15(30-12-13-6-5-9-23-10-13)11-24-14(7-8-21(2,3)29)16(18)25-20(28)17-19(22)27-31-26-17/h11,13,23,29H,4-6,9-10,12H2,1-3H3,(H2,22,27)/t13-/m0/s1

>  <InChI Key>
KGPGFQWBCSZGEL-ZDUSSCGKSA-N

>  <BindingDB>
25013

>  <PubChem>
16725726

>  <ChEMBL>
CHEMBL494089

$$$$
298
Actelion Java MolfileCreator 2.0

  0  0  0  0  0  0              0 V3000
M  V30 BEGIN CTAB
M  V30 COUNTS 39 44 0 0 0
M  V30 BEGIN ATOM
M  V30 1 O 3.8971 0.0 0.0 0
M  V30 2 C 2.598 -0.75 0.0 0
M  V30 3 N 2.598 -2.25 0.0 0
M  V30 4 C 1.299 0.0 0.0 0
M  V30 5 C 1.3845 -3.1316 0.0 0
M  V30 6 C 3.8116 -3.1316 0.0 0
M  V30 7 C 0.0 -0.75 0.0 0
M  V30 8 C 1.848 -4.5582 0.0 0 CFG=2
M  V30 9 C 3.348 -4.5582 0.0 0
M  V30 10 N 0.9663 -5.7717 0.0 0
M  V30 11 C -0.5336 -5.7717 0.0 0
M  V30 12 C 1.4299 -7.1983 0.0 0
M  V30 13 N -0.9971 -7.1983 0.0 0
M  V30 14 N -1.4152 -4.5582 0.0 0
M  V30 15 N 2.8002 -7.8084 0.0 0
M  V30 16 C 0.2163 -8.08 0.0 0
M  V30 17 C -2.907 -4.715 0.0 0
M  V30 18 C 2.957 -9.3002 0.0 0
M  V30 19 C 0.3731 -9.5718 0.0 0
M  V30 20 C -3.7887 -3.5015 0.0 0
M  V30 21 C -3.5171 -6.0853 0.0 0
M  V30 22 N 1.7435 -10.1819 0.0 0
M  V30 23 N 4.3273 -9.9103 0.0 0
M  V30 24 C -5.2805 -3.6583 0.0 0
M  V30 25 C -5.0089 -6.2421 0.0 0
M  V30 26 C 5.5408 -9.0286 0.0 0
M  V30 27 C -5.8906 -5.0286 0.0 0
M  V30 28 C 6.9111 -9.6387 0.0 0
M  V30 29 C 5.384 -7.5369 0.0 0
M  V30 30 C 8.1247 -8.7571 0.0 0
M  V30 31 C 6.5976 -6.6552 0.0 0
M  V30 32 C 7.9679 -7.2653 0.0 0
M  V30 33 N 9.1814 -6.3836 0.0 0
M  V30 34 C 10.5517 -6.9937 0.0 0
M  V30 35 C 9.0246 -4.8918 0.0 0
M  V30 36 C 11.7652 -6.112 0.0 0
M  V30 37 C 10.2381 -4.0101 0.0 0
M  V30 38 N 11.6085 -4.6202 0.0 0
M  V30 39 C 12.822 -3.7386 0.0 0
M  V30 END ATOM
M  V30 BEGIN BOND
M  V30 1 2 1 2
M  V30 2 1 2 3
M  V30 3 1 2 4
M  V30 4 1 3 5
M  V30 5 1 3 6
M  V30 6 2 4 7
M  V30 7 1 8 5
M  V30 8 1 6 9
M  V30 9 1 8 10 CFG=3
M  V30 10 1 10 11
M  V30 11 1 10 12
M  V30 12 2 11 13
M  V30 13 1 11 14
M  V30 14 2 12 15
M  V30 15 1 12 16
M  V30 16 1 14 17
M  V30 17 1 15 18
M  V30 18 2 16 19
M  V30 19 2 17 20
M  V30 20 1 17 21
M  V30 21 2 18 22
M  V30 22 1 18 23
M  V30 23 1 20 24
M  V30 24 2 21 25
M  V30 25 1 23 26
M  V30 26 2 24 27
M  V30 27 2 26 28
M  V30 28 1 26 29
M  V30 29 1 28 30
M  V30 30 2 29 31
M  V30 31 2 30 32
M  V30 32 1 32 33
M  V30 33 1 33 34
M  V30 34 1 33 35
M  V30 35 1 34 36
M  V30 36 1 35 37
M  V30 37 1 36 38
M  V30 38 1 38 39
M  V30 39 1 8 9
M  V30 40 1 13 16
M  V30 41 1 19 22
M  V30 42 1 25 27
M  V30 43 1 31 32
M  V30 44 1 37 38
M  V30 END BOND
M  V30 BEGIN COLLECTION
M  V30 MDLV30/STEABS ATOMS=(1 8)
M  V30 END COLLECTION
M  V30 END CTAB
M  END
>  <Molecule Name>
Compound 1016

>  <Molecule Name 2>
Compound 1016

>  <Compound ID>
298

>  <Name>


>  <Uniprot>
P00533

>  <Target>
EGFR e19d

>  <Smiles>
C=CC(=O)N1CC[C@H](N2C(NC3=CC=CC=C3)=NC3=CN=C(NC4=CC=C(N5CCN(C)CC5)C=C4)N=C32)C1

>  <Kd (nM)>


>  <Assay (Kd)>


>  <Ki (nM)>


>  <Assay (Ki)>


>  <IC50 (nM)>
0.47

>  <Assay (IC50)>
Inhibit proliferation of HCC827 (EGFR del19) cells

>  <EC50 (nM)>


>  <Assay (EC50)>


>  <Article DOI>
10.1021/acs.jmedchem.1c01827

>  <Molecular Weight>
523.645

>  <Exact Mass>
523.2808067

>  <XLogP3>
3.93

>  <Heavy Atom Count>
39

>  <Ring Count>
6

>  <Hydrogen Bond Acceptor Count>
9

>  <Hydrogen Bond Donor Count>
2

>  <Rotatable Bond Count>
7

>  <Topological Polar Surface Area>
94.45

>  <Molecular Formula>
C29H33N9O

>  <InChI>
InChI=1S/C29H33N9O/c1-3-26(39)37-14-13-24(20-37)38-27-25(33-29(38)32-21-7-5-4-6-8-21)19-30-28(34-27)31-22-9-11-23(12-10-22)36-17-15-35(2)16-18-36/h3-12,19,24H,1,13-18,20H2,2H3,(H,32,33)(H,30,31,34)/t24-/m0/s1

>  <InChI Key>
RGGHJDGRJJWIJE-DEOSSOPVSA-N

>  <BindingDB>


>  <PubChem>
162356161

>  <ChEMBL>


$$$$
298
Actelion Java MolfileCreator 2.0

  0  0  0  0  0  0              0 V3000
M  V30 BEGIN CTAB
M  V30 COUNTS 39 44 0 0 0
M  V30 BEGIN ATOM
M  V30 1 O 3.8971 0.0 0.0 0
M  V30 2 C 2.598 -0.75 0.0 0
M  V30 3 N 2.598 -2.25 0.0 0
M  V30 4 C 1.299 0.0 0.0 0
M  V30 5 C 1.3845 -3.1316 0.0 0
M  V30 6 C 3.8116 -3.1316 0.0 0
M  V30 7 C 0.0 -0.75 0.0 0
M  V30 8 C 1.848 -4.5582 0.0 0 CFG=2
M  V30 9 C 3.348 -4.5582 0.0 0
M  V30 10 N 0.9663 -5.7717 0.0 0
M  V30 11 C -0.5336 -5.7717 0.0 0
M  V30 12 C 1.4299 -7.1983 0.0 0
M  V30 13 N -0.9971 -7.1983 0.0 0
M  V30 14 N -1.4152 -4.5582 0.0 0
M  V30 15 N 2.8002 -7.8084 0.0 0
M  V30 16 C 0.2163 -8.08 0.0 0
M  V30 17 C -2.907 -4.715 0.0 0
M  V30 18 C 2.957 -9.3002 0.0 0
M  V30 19 C 0.3731 -9.5718 0.0 0
M  V30 20 C -3.7887 -3.5015 0.0 0
M  V30 21 C -3.5171 -6.0853 0.0 0
M  V30 22 N 1.7435 -10.1819 0.0 0
M  V30 23 N 4.3273 -9.9103 0.0 0
M  V30 24 C -5.2805 -3.6583 0.0 0
M  V30 25 C -5.0089 -6.2421 0.0 0
M  V30 26 C 5.5408 -9.0286 0.0 0
M  V30 27 C -5.8906 -5.0286 0.0 0
M  V30 28 C 6.9111 -9.6387 0.0 0
M  V30 29 C 5.384 -7.5369 0.0 0
M  V30 30 C 8.1247 -8.7571 0.0 0
M  V30 31 C 6.5976 -6.6552 0.0 0
M  V30 32 C 7.9679 -7.2653 0.0 0
M  V30 33 N 9.1814 -6.3836 0.0 0
M  V30 34 C 10.5517 -6.9937 0.0 0
M  V30 35 C 9.0246 -4.8918 0.0 0
M  V30 36 C 11.7652 -6.112 0.0 0
M  V30 37 C 10.2381 -4.0101 0.0 0
M  V30 38 N 11.6085 -4.6202 0.0 0
M  V30 39 C 12.822 -3.7386 0.0 0
M  V30 END ATOM
M  V30 BEGIN BOND
M  V30 1 2 1 2
M  V30 2 1 2 3
M  V30 3 1 2 4
M  V30 4 1 3 5
M  V30 5 1 3 6
M  V30 6 2 4 7
M  V30 7 1 8 5
M  V30 8 1 6 9
M  V30 9 1 8 10 CFG=3
M  V30 10 1 10 11
M  V30 11 1 10 12
M  V30 12 2 11 13
M  V30 13 1 11 14
M  V30 14 2 12 15
M  V30 15 1 12 16
M  V30 16 1 14 17
M  V30 17 1 15 18
M  V30 18 2 16 19
M  V30 19 2 17 20
M  V30 20 1 17 21
M  V30 21 2 18 22
M  V30 22 1 18 23
M  V30 23 1 20 24
M  V30 24 2 21 25
M  V30 25 1 23 26
M  V30 26 2 24 27
M  V30 27 2 26 28
M  V30 28 1 26 29
M  V30 29 1 28 30
M  V30 30 2 29 31
M  V30 31 2 30 32
M  V30 32 1 32 33
M  V30 33 1 33 34
M  V30 34 1 33 35
M  V30 35 1 34 36
M  V30 36 1 35 37
M  V30 37 1 36 38
M  V30 38 1 38 39
M  V30 39 1 8 9
M  V30 40 1 13 16
M  V30 41 1 19 22
M  V30 42 1 25 27
M  V30 43 1 31 32
M  V30 44 1 37 38
M  V30 END BOND
M  V30 BEGIN COLLECTION
M  V30 MDLV30/STEABS ATOMS=(1 8)
M  V30 END COLLECTION
M  V30 END CTAB
M  END
>  <Molecule Name>
Compound 1017

>  <Molecule Name 2>
Compound 1017

>  <Compound ID>
298

>  <Name>


>  <Uniprot>
P00533

>  <Target>
EGFR L858R/T790M

>  <Smiles>
C=CC(=O)N1CC[C@H](N2C(NC3=CC=CC=C3)=NC3=CN=C(NC4=CC=C(N5CCN(C)CC5)C=C4)N=C32)C1

>  <Kd (nM)>


>  <Assay (Kd)>


>  <Ki (nM)>


>  <Assay (Ki)>


>  <IC50 (nM)>
23

>  <Assay (IC50)>
Inhibition of EGFR L858R/T790M

>  <EC50 (nM)>


>  <Assay (EC50)>


>  <Article DOI>
10.1021/acs.jmedchem.1c01827

>  <Molecular Weight>
523.645

>  <Exact Mass>
523.2808067

>  <XLogP3>
3.93

>  <Heavy Atom Count>
39

>  <Ring Count>
6

>  <Hydrogen Bond Acceptor Count>
9

>  <Hydrogen Bond Donor Count>
2

>  <Rotatable Bond Count>
7

>  <Topological Polar Surface Area>
94.45

>  <Molecular Formula>
C29H33N9O

>  <InChI>
InChI=1S/C29H33N9O/c1-3-26(39)37-14-13-24(20-37)38-27-25(33-29(38)32-21-7-5-4-6-8-21)19-30-28(34-27)31-22-9-11-23(12-10-22)36-17-15-35(2)16-18-36/h3-12,19,24H,1,13-18,20H2,2H3,(H,32,33)(H,30,31,34)/t24-/m0/s1

>  <InChI Key>
RGGHJDGRJJWIJE-DEOSSOPVSA-N

>  <BindingDB>


>  <PubChem>
162356161

>  <ChEMBL>


$$$$
298
Actelion Java MolfileCreator 2.0

  0  0  0  0  0  0              0 V3000
M  V30 BEGIN CTAB
M  V30 COUNTS 39 44 0 0 0
M  V30 BEGIN ATOM
M  V30 1 O 3.8971 0.0 0.0 0
M  V30 2 C 2.598 -0.75 0.0 0
M  V30 3 N 2.598 -2.25 0.0 0
M  V30 4 C 1.299 0.0 0.0 0
M  V30 5 C 1.3845 -3.1316 0.0 0
M  V30 6 C 3.8116 -3.1316 0.0 0
M  V30 7 C 0.0 -0.75 0.0 0
M  V30 8 C 1.848 -4.5582 0.0 0 CFG=2
M  V30 9 C 3.348 -4.5582 0.0 0
M  V30 10 N 0.9663 -5.7717 0.0 0
M  V30 11 C -0.5336 -5.7717 0.0 0
M  V30 12 C 1.4299 -7.1983 0.0 0
M  V30 13 N -0.9971 -7.1983 0.0 0
M  V30 14 N -1.4152 -4.5582 0.0 0
M  V30 15 N 2.8002 -7.8084 0.0 0
M  V30 16 C 0.2163 -8.08 0.0 0
M  V30 17 C -2.907 -4.715 0.0 0
M  V30 18 C 2.957 -9.3002 0.0 0
M  V30 19 C 0.3731 -9.5718 0.0 0
M  V30 20 C -3.7887 -3.5015 0.0 0
M  V30 21 C -3.5171 -6.0853 0.0 0
M  V30 22 N 1.7435 -10.1819 0.0 0
M  V30 23 N 4.3273 -9.9103 0.0 0
M  V30 24 C -5.2805 -3.6583 0.0 0
M  V30 25 C -5.0089 -6.2421 0.0 0
M  V30 26 C 5.5408 -9.0286 0.0 0
M  V30 27 C -5.8906 -5.0286 0.0 0
M  V30 28 C 6.9111 -9.6387 0.0 0
M  V30 29 C 5.384 -7.5369 0.0 0
M  V30 30 C 8.1247 -8.7571 0.0 0
M  V30 31 C 6.5976 -6.6552 0.0 0
M  V30 32 C 7.9679 -7.2653 0.0 0
M  V30 33 N 9.1814 -6.3836 0.0 0
M  V30 34 C 10.5517 -6.9937 0.0 0
M  V30 35 C 9.0246 -4.8918 0.0 0
M  V30 36 C 11.7652 -6.112 0.0 0
M  V30 37 C 10.2381 -4.0101 0.0 0
M  V30 38 N 11.6085 -4.6202 0.0 0
M  V30 39 C 12.822 -3.7386 0.0 0
M  V30 END ATOM
M  V30 BEGIN BOND
M  V30 1 2 1 2
M  V30 2 1 2 3
M  V30 3 1 2 4
M  V30 4 1 3 5
M  V30 5 1 3 6
M  V30 6 2 4 7
M  V30 7 1 8 5
M  V30 8 1 6 9
M  V30 9 1 8 10 CFG=3
M  V30 10 1 10 11
M  V30 11 1 10 12
M  V30 12 2 11 13
M  V30 13 1 11 14
M  V30 14 2 12 15
M  V30 15 1 12 16
M  V30 16 1 14 17
M  V30 17 1 15 18
M  V30 18 2 16 19
M  V30 19 2 17 20
M  V30 20 1 17 21
M  V30 21 2 18 22
M  V30 22 1 18 23
M  V30 23 1 20 24
M  V30 24 2 21 25
M  V30 25 1 23 26
M  V30 26 2 24 27
M  V30 27 2 26 28
M  V30 28 1 26 29
M  V30 29 1 28 30
M  V30 30 2 29 31
M  V30 31 2 30 32
M  V30 32 1 32 33
M  V30 33 1 33 34
M  V30 34 1 33 35
M  V30 35 1 34 36
M  V30 36 1 35 37
M  V30 37 1 36 38
M  V30 38 1 38 39
M  V30 39 1 8 9
M  V30 40 1 13 16
M  V30 41 1 19 22
M  V30 42 1 25 27
M  V30 43 1 31 32
M  V30 44 1 37 38
M  V30 END BOND
M  V30 BEGIN COLLECTION
M  V30 MDLV30/STEABS ATOMS=(1 8)
M  V30 END COLLECTION
M  V30 END CTAB
M  END
>  <Molecule Name>
Compound 1018

>  <Molecule Name 2>
Compound 1018

>  <Compound ID>
298

>  <Name>


>  <Uniprot>
P00533

>  <Target>
EGFR

>  <Smiles>
C=CC(=O)N1CC[C@H](N2C(NC3=CC=CC=C3)=NC3=CN=C(NC4=CC=C(N5CCN(C)CC5)C=C4)N=C32)C1

>  <Kd (nM)>


>  <Assay (Kd)>


>  <Ki (nM)>


>  <Assay (Ki)>


>  <IC50 (nM)>
2905

>  <Assay (IC50)>
Inhibit proliferation of A431 cells

>  <EC50 (nM)>


>  <Assay (EC50)>


>  <Article DOI>
10.1021/acs.jmedchem.1c01827

>  <Molecular Weight>
523.645

>  <Exact Mass>
523.2808067

>  <XLogP3>
3.93

>  <Heavy Atom Count>
39

>  <Ring Count>
6

>  <Hydrogen Bond Acceptor Count>
9

>  <Hydrogen Bond Donor Count>
2

>  <Rotatable Bond Count>
7

>  <Topological Polar Surface Area>
94.45

>  <Molecular Formula>
C29H33N9O

>  <InChI>
InChI=1S/C29H33N9O/c1-3-26(39)37-14-13-24(20-37)38-27-25(33-29(38)32-21-7-5-4-6-8-21)19-30-28(34-27)31-22-9-11-23(12-10-22)36-17-15-35(2)16-18-36/h3-12,19,24H,1,13-18,20H2,2H3,(H,32,33)(H,30,31,34)/t24-/m0/s1

>  <InChI Key>
RGGHJDGRJJWIJE-DEOSSOPVSA-N

>  <BindingDB>


>  <PubChem>
162356161

>  <ChEMBL>


$$$$
299
Actelion Java MolfileCreator 2.0

  0  0  0  0  0  0              0 V3000
M  V30 BEGIN CTAB
M  V30 COUNTS 40 45 0 0 0
M  V30 BEGIN ATOM
M  V30 1 O 3.8971 0.0 0.0 0
M  V30 2 C 2.598 -0.75 0.0 0
M  V30 3 N 2.598 -2.25 0.0 0
M  V30 4 C 1.299 0.0 0.0 0
M  V30 5 C 1.299 -3.0 0.0 0
M  V30 6 C 3.8971 -2.9999 0.0 0
M  V30 7 C 0.0 -0.75 0.0 0
M  V30 8 C 1.299 -4.5 0.0 0 CFG=1
M  V30 9 C 3.8971 -4.4999 0.0 0
M  V30 10 N 0.0 -5.25 0.0 0
M  V30 11 C 2.598 -5.25 0.0 0
M  V30 12 C -1.3703 -4.6398 0.0 0
M  V30 13 C -0.1567 -6.7417 0.0 0
M  V30 14 N -2.374 -5.7546 0.0 0
M  V30 15 N -1.6821 -3.1726 0.0 0
M  V30 16 N 0.8469 -7.8565 0.0 0
M  V30 17 C -1.624 -7.0536 0.0 0
M  V30 18 C -3.1087 -2.7091 0.0 0
M  V30 19 C 0.3833 -9.283 0.0 0
M  V30 20 C -2.0875 -8.4802 0.0 0
M  V30 21 C -3.4206 -1.2419 0.0 0
M  V30 22 C -4.2234 -3.7128 0.0 0
M  V30 23 N -1.0838 -9.5949 0.0 0
M  V30 24 N 1.387 -10.3978 0.0 0
M  V30 25 C -4.8472 -0.7784 0.0 0
M  V30 26 C -5.65 -3.2493 0.0 0
M  V30 27 C 2.8542 -10.0859 0.0 0
M  V30 28 C -5.9619 -1.782 0.0 0
M  V30 29 C 3.8579 -11.2006 0.0 0
M  V30 30 C 3.3178 -8.6593 0.0 0
M  V30 31 C 5.3252 -10.8887 0.0 0
M  V30 32 C 4.785 -8.3474 0.0 0
M  V30 33 C 5.7887 -9.4621 0.0 0
M  V30 34 N 7.2559 -9.1503 0.0 0
M  V30 35 C 8.2596 -10.265 0.0 0
M  V30 36 C 7.7194 -7.7237 0.0 0
M  V30 37 C 9.7268 -9.9531 0.0 0
M  V30 38 C 9.1867 -7.4118 0.0 0
M  V30 39 N 10.1904 -8.5265 0.0 0
M  V30 40 C 11.6576 -8.2147 0.0 0
M  V30 END ATOM
M  V30 BEGIN BOND
M  V30 1 2 1 2
M  V30 2 1 2 3
M  V30 3 1 2 4
M  V30 4 1 3 5
M  V30 5 1 3 6
M  V30 6 2 4 7
M  V30 7 1 8 5
M  V30 8 1 6 9
M  V30 9 1 8 10 CFG=3
M  V30 10 1 8 11
M  V30 11 1 10 12
M  V30 12 1 10 13
M  V30 13 2 12 14
M  V30 14 1 12 15
M  V30 15 2 13 16
M  V30 16 1 13 17
M  V30 17 1 15 18
M  V30 18 1 16 19
M  V30 19 2 17 20
M  V30 20 2 18 21
M  V30 21 1 18 22
M  V30 22 2 19 23
M  V30 23 1 19 24
M  V30 24 1 21 25
M  V30 25 2 22 26
M  V30 26 1 24 27
M  V30 27 2 25 28
M  V30 28 2 27 29
M  V30 29 1 27 30
M  V30 30 1 29 31
M  V30 31 2 30 32
M  V30 32 2 31 33
M  V30 33 1 33 34
M  V30 34 1 34 35
M  V30 35 1 34 36
M  V30 36 1 35 37
M  V30 37 1 36 38
M  V30 38 1 37 39
M  V30 39 1 39 40
M  V30 40 1 9 11
M  V30 41 1 14 17
M  V30 42 1 20 23
M  V30 43 1 26 28
M  V30 44 1 32 33
M  V30 45 1 38 39
M  V30 END BOND
M  V30 BEGIN COLLECTION
M  V30 MDLV30/STEABS ATOMS=(1 8)
M  V30 END COLLECTION
M  V30 END CTAB
M  END
>  <Molecule Name>
Compound 1019

>  <Molecule Name 2>
Compound 1019

>  <Compound ID>
299

>  <Name>


>  <Uniprot>
P00533

>  <Target>
EGFR e19d

>  <Smiles>
C=CC(=O)N1CCC[C@H](N2C(NC3=CC=CC=C3)=NC3=CN=C(NC4=CC=C(N5CCN(C)CC5)C=C4)N=C32)C1

>  <Kd (nM)>


>  <Assay (Kd)>


>  <Ki (nM)>


>  <Assay (Ki)>


>  <IC50 (nM)>
0.33

>  <Assay (IC50)>
Inhibit proliferation of HCC827 (EGFR del19) cells

>  <EC50 (nM)>


>  <Assay (EC50)>


>  <Article DOI>
10.1021/acs.jmedchem.1c01827

>  <Molecular Weight>
537.672

>  <Exact Mass>
537.2964567

>  <XLogP3>
4.28

>  <Heavy Atom Count>
40

>  <Ring Count>
6

>  <Hydrogen Bond Acceptor Count>
9

>  <Hydrogen Bond Donor Count>
2

>  <Rotatable Bond Count>
7

>  <Topological Polar Surface Area>
94.45

>  <Molecular Formula>
C30H35N9O

>  <InChI>
InChI=1S/C30H35N9O/c1-3-27(40)38-15-7-10-25(21-38)39-28-26(34-30(39)33-22-8-5-4-6-9-22)20-31-29(35-28)32-23-11-13-24(14-12-23)37-18-16-36(2)17-19-37/h3-6,8-9,11-14,20,25H,1,7,10,15-19,21H2,2H3,(H,33,34)(H,31,32,35)/t25-/m0/s1

>  <InChI Key>
WPMXUVGZCGGVSI-VWLOTQADSA-N

>  <BindingDB>


>  <PubChem>
162356156

>  <ChEMBL>


$$$$
299
Actelion Java MolfileCreator 2.0

  0  0  0  0  0  0              0 V3000
M  V30 BEGIN CTAB
M  V30 COUNTS 40 45 0 0 0
M  V30 BEGIN ATOM
M  V30 1 O 3.8971 0.0 0.0 0
M  V30 2 C 2.598 -0.75 0.0 0
M  V30 3 N 2.598 -2.25 0.0 0
M  V30 4 C 1.299 0.0 0.0 0
M  V30 5 C 1.299 -3.0 0.0 0
M  V30 6 C 3.8971 -2.9999 0.0 0
M  V30 7 C 0.0 -0.75 0.0 0
M  V30 8 C 1.299 -4.5 0.0 0 CFG=1
M  V30 9 C 3.8971 -4.4999 0.0 0
M  V30 10 N 0.0 -5.25 0.0 0
M  V30 11 C 2.598 -5.25 0.0 0
M  V30 12 C -1.3703 -4.6398 0.0 0
M  V30 13 C -0.1567 -6.7417 0.0 0
M  V30 14 N -2.374 -5.7546 0.0 0
M  V30 15 N -1.6821 -3.1726 0.0 0
M  V30 16 N 0.8469 -7.8565 0.0 0
M  V30 17 C -1.624 -7.0536 0.0 0
M  V30 18 C -3.1087 -2.7091 0.0 0
M  V30 19 C 0.3833 -9.283 0.0 0
M  V30 20 C -2.0875 -8.4802 0.0 0
M  V30 21 C -3.4206 -1.2419 0.0 0
M  V30 22 C -4.2234 -3.7128 0.0 0
M  V30 23 N -1.0838 -9.5949 0.0 0
M  V30 24 N 1.387 -10.3978 0.0 0
M  V30 25 C -4.8472 -0.7784 0.0 0
M  V30 26 C -5.65 -3.2493 0.0 0
M  V30 27 C 2.8542 -10.0859 0.0 0
M  V30 28 C -5.9619 -1.782 0.0 0
M  V30 29 C 3.8579 -11.2006 0.0 0
M  V30 30 C 3.3178 -8.6593 0.0 0
M  V30 31 C 5.3252 -10.8887 0.0 0
M  V30 32 C 4.785 -8.3474 0.0 0
M  V30 33 C 5.7887 -9.4621 0.0 0
M  V30 34 N 7.2559 -9.1503 0.0 0
M  V30 35 C 8.2596 -10.265 0.0 0
M  V30 36 C 7.7194 -7.7237 0.0 0
M  V30 37 C 9.7268 -9.9531 0.0 0
M  V30 38 C 9.1867 -7.4118 0.0 0
M  V30 39 N 10.1904 -8.5265 0.0 0
M  V30 40 C 11.6576 -8.2147 0.0 0
M  V30 END ATOM
M  V30 BEGIN BOND
M  V30 1 2 1 2
M  V30 2 1 2 3
M  V30 3 1 2 4
M  V30 4 1 3 5
M  V30 5 1 3 6
M  V30 6 2 4 7
M  V30 7 1 8 5
M  V30 8 1 6 9
M  V30 9 1 8 10 CFG=3
M  V30 10 1 8 11
M  V30 11 1 10 12
M  V30 12 1 10 13
M  V30 13 2 12 14
M  V30 14 1 12 15
M  V30 15 2 13 16
M  V30 16 1 13 17
M  V30 17 1 15 18
M  V30 18 1 16 19
M  V30 19 2 17 20
M  V30 20 2 18 21
M  V30 21 1 18 22
M  V30 22 2 19 23
M  V30 23 1 19 24
M  V30 24 1 21 25
M  V30 25 2 22 26
M  V30 26 1 24 27
M  V30 27 2 25 28
M  V30 28 2 27 29
M  V30 29 1 27 30
M  V30 30 1 29 31
M  V30 31 2 30 32
M  V30 32 2 31 33
M  V30 33 1 33 34
M  V30 34 1 34 35
M  V30 35 1 34 36
M  V30 36 1 35 37
M  V30 37 1 36 38
M  V30 38 1 37 39
M  V30 39 1 39 40
M  V30 40 1 9 11
M  V30 41 1 14 17
M  V30 42 1 20 23
M  V30 43 1 26 28
M  V30 44 1 32 33
M  V30 45 1 38 39
M  V30 END BOND
M  V30 BEGIN COLLECTION
M  V30 MDLV30/STEABS ATOMS=(1 8)
M  V30 END COLLECTION
M  V30 END CTAB
M  END
>  <Molecule Name>
Compound 1020

>  <Molecule Name 2>
Compound 1020

>  <Compound ID>
299

>  <Name>


>  <Uniprot>
P00533

>  <Target>
EGFR L858R/T790M

>  <Smiles>
C=CC(=O)N1CCC[C@H](N2C(NC3=CC=CC=C3)=NC3=CN=C(NC4=CC=C(N5CCN(C)CC5)C=C4)N=C32)C1

>  <Kd (nM)>


>  <Assay (Kd)>


>  <Ki (nM)>


>  <Assay (Ki)>


>  <IC50 (nM)>
38

>  <Assay (IC50)>
Inhibition of EGFR L858R/T790M

>  <EC50 (nM)>


>  <Assay (EC50)>


>  <Article DOI>
10.1021/acs.jmedchem.1c01827

>  <Molecular Weight>
537.672

>  <Exact Mass>
537.2964567

>  <XLogP3>
4.28

>  <Heavy Atom Count>
40

>  <Ring Count>
6

>  <Hydrogen Bond Acceptor Count>
9

>  <Hydrogen Bond Donor Count>
2

>  <Rotatable Bond Count>
7

>  <Topological Polar Surface Area>
94.45

>  <Molecular Formula>
C30H35N9O

>  <InChI>
InChI=1S/C30H35N9O/c1-3-27(40)38-15-7-10-25(21-38)39-28-26(34-30(39)33-22-8-5-4-6-9-22)20-31-29(35-28)32-23-11-13-24(14-12-23)37-18-16-36(2)17-19-37/h3-6,8-9,11-14,20,25H,1,7,10,15-19,21H2,2H3,(H,33,34)(H,31,32,35)/t25-/m0/s1

>  <InChI Key>
WPMXUVGZCGGVSI-VWLOTQADSA-N

>  <BindingDB>


>  <PubChem>
162356156

>  <ChEMBL>


$$$$
299
Actelion Java MolfileCreator 2.0

  0  0  0  0  0  0              0 V3000
M  V30 BEGIN CTAB
M  V30 COUNTS 40 45 0 0 0
M  V30 BEGIN ATOM
M  V30 1 O 3.8971 0.0 0.0 0
M  V30 2 C 2.598 -0.75 0.0 0
M  V30 3 N 2.598 -2.25 0.0 0
M  V30 4 C 1.299 0.0 0.0 0
M  V30 5 C 1.299 -3.0 0.0 0
M  V30 6 C 3.8971 -2.9999 0.0 0
M  V30 7 C 0.0 -0.75 0.0 0
M  V30 8 C 1.299 -4.5 0.0 0 CFG=1
M  V30 9 C 3.8971 -4.4999 0.0 0
M  V30 10 N 0.0 -5.25 0.0 0
M  V30 11 C 2.598 -5.25 0.0 0
M  V30 12 C -1.3703 -4.6398 0.0 0
M  V30 13 C -0.1567 -6.7417 0.0 0
M  V30 14 N -2.374 -5.7546 0.0 0
M  V30 15 N -1.6821 -3.1726 0.0 0
M  V30 16 N 0.8469 -7.8565 0.0 0
M  V30 17 C -1.624 -7.0536 0.0 0
M  V30 18 C -3.1087 -2.7091 0.0 0
M  V30 19 C 0.3833 -9.283 0.0 0
M  V30 20 C -2.0875 -8.4802 0.0 0
M  V30 21 C -3.4206 -1.2419 0.0 0
M  V30 22 C -4.2234 -3.7128 0.0 0
M  V30 23 N -1.0838 -9.5949 0.0 0
M  V30 24 N 1.387 -10.3978 0.0 0
M  V30 25 C -4.8472 -0.7784 0.0 0
M  V30 26 C -5.65 -3.2493 0.0 0
M  V30 27 C 2.8542 -10.0859 0.0 0
M  V30 28 C -5.9619 -1.782 0.0 0
M  V30 29 C 3.8579 -11.2006 0.0 0
M  V30 30 C 3.3178 -8.6593 0.0 0
M  V30 31 C 5.3252 -10.8887 0.0 0
M  V30 32 C 4.785 -8.3474 0.0 0
M  V30 33 C 5.7887 -9.4621 0.0 0
M  V30 34 N 7.2559 -9.1503 0.0 0
M  V30 35 C 8.2596 -10.265 0.0 0
M  V30 36 C 7.7194 -7.7237 0.0 0
M  V30 37 C 9.7268 -9.9531 0.0 0
M  V30 38 C 9.1867 -7.4118 0.0 0
M  V30 39 N 10.1904 -8.5265 0.0 0
M  V30 40 C 11.6576 -8.2147 0.0 0
M  V30 END ATOM
M  V30 BEGIN BOND
M  V30 1 2 1 2
M  V30 2 1 2 3
M  V30 3 1 2 4
M  V30 4 1 3 5
M  V30 5 1 3 6
M  V30 6 2 4 7
M  V30 7 1 8 5
M  V30 8 1 6 9
M  V30 9 1 8 10 CFG=3
M  V30 10 1 8 11
M  V30 11 1 10 12
M  V30 12 1 10 13
M  V30 13 2 12 14
M  V30 14 1 12 15
M  V30 15 2 13 16
M  V30 16 1 13 17
M  V30 17 1 15 18
M  V30 18 1 16 19
M  V30 19 2 17 20
M  V30 20 2 18 21
M  V30 21 1 18 22
M  V30 22 2 19 23
M  V30 23 1 19 24
M  V30 24 1 21 25
M  V30 25 2 22 26
M  V30 26 1 24 27
M  V30 27 2 25 28
M  V30 28 2 27 29
M  V30 29 1 27 30
M  V30 30 1 29 31
M  V30 31 2 30 32
M  V30 32 2 31 33
M  V30 33 1 33 34
M  V30 34 1 34 35
M  V30 35 1 34 36
M  V30 36 1 35 37
M  V30 37 1 36 38
M  V30 38 1 37 39
M  V30 39 1 39 40
M  V30 40 1 9 11
M  V30 41 1 14 17
M  V30 42 1 20 23
M  V30 43 1 26 28
M  V30 44 1 32 33
M  V30 45 1 38 39
M  V30 END BOND
M  V30 BEGIN COLLECTION
M  V30 MDLV30/STEABS ATOMS=(1 8)
M  V30 END COLLECTION
M  V30 END CTAB
M  END
>  <Molecule Name>
Compound 1021

>  <Molecule Name 2>
Compound 1021

>  <Compound ID>
299

>  <Name>


>  <Uniprot>
P00533

>  <Target>
EGFR

>  <Smiles>
C=CC(=O)N1CCC[C@H](N2C(NC3=CC=CC=C3)=NC3=CN=C(NC4=CC=C(N5CCN(C)CC5)C=C4)N=C32)C1

>  <Kd (nM)>


>  <Assay (Kd)>


>  <Ki (nM)>


>  <Assay (Ki)>


>  <IC50 (nM)>
7090

>  <Assay (IC50)>
Inhibit proliferation of A431 cells

>  <EC50 (nM)>


>  <Assay (EC50)>


>  <Article DOI>
10.1021/acs.jmedchem.1c01827

>  <Molecular Weight>
537.672

>  <Exact Mass>
537.2964567

>  <XLogP3>
4.28

>  <Heavy Atom Count>
40

>  <Ring Count>
6

>  <Hydrogen Bond Acceptor Count>
9

>  <Hydrogen Bond Donor Count>
2

>  <Rotatable Bond Count>
7

>  <Topological Polar Surface Area>
94.45

>  <Molecular Formula>
C30H35N9O

>  <InChI>
InChI=1S/C30H35N9O/c1-3-27(40)38-15-7-10-25(21-38)39-28-26(34-30(39)33-22-8-5-4-6-9-22)20-31-29(35-28)32-23-11-13-24(14-12-23)37-18-16-36(2)17-19-37/h3-6,8-9,11-14,20,25H,1,7,10,15-19,21H2,2H3,(H,33,34)(H,31,32,35)/t25-/m0/s1

>  <InChI Key>
WPMXUVGZCGGVSI-VWLOTQADSA-N

>  <BindingDB>


>  <PubChem>
162356156

>  <ChEMBL>


$$$$
300
Actelion Java MolfileCreator 2.0

  0  0  0  0  0  0              0 V3000
M  V30 BEGIN CTAB
M  V30 COUNTS 40 45 0 0 0
M  V30 BEGIN ATOM
M  V30 1 O 3.8971 0.0 0.0 0
M  V30 2 C 2.598 -0.75 0.0 0
M  V30 3 N 2.598 -2.25 0.0 0
M  V30 4 C 1.299 0.0 0.0 0
M  V30 5 C 1.299 -3.0 0.0 0
M  V30 6 C 3.8971 -2.9999 0.0 0
M  V30 7 C 0.0 -0.75 0.0 0
M  V30 8 C 1.299 -4.5 0.0 0 CFG=1
M  V30 9 C 3.8971 -4.4999 0.0 0
M  V30 10 N 0.0 -5.25 0.0 0
M  V30 11 C 2.598 -5.25 0.0 0
M  V30 12 C -1.3703 -4.6398 0.0 0
M  V30 13 C -0.1567 -6.7417 0.0 0
M  V30 14 N -2.374 -5.7546 0.0 0
M  V30 15 N -1.6821 -3.1726 0.0 0
M  V30 16 N 0.8469 -7.8565 0.0 0
M  V30 17 C -1.624 -7.0536 0.0 0
M  V30 18 C -3.1087 -2.7091 0.0 0
M  V30 19 C 0.3833 -9.283 0.0 0
M  V30 20 C -2.0875 -8.4802 0.0 0
M  V30 21 C -3.4206 -1.2419 0.0 0
M  V30 22 C -4.2234 -3.7128 0.0 0
M  V30 23 N -1.0838 -9.5949 0.0 0
M  V30 24 N 1.387 -10.3978 0.0 0
M  V30 25 C -4.8472 -0.7784 0.0 0
M  V30 26 C -5.65 -3.2493 0.0 0
M  V30 27 C 2.8542 -10.0859 0.0 0
M  V30 28 C -5.9619 -1.782 0.0 0
M  V30 29 C 3.8579 -11.2006 0.0 0
M  V30 30 C 3.3178 -8.6593 0.0 0
M  V30 31 C 5.3252 -10.8887 0.0 0
M  V30 32 C 4.785 -8.3474 0.0 0
M  V30 33 C 5.7887 -9.4621 0.0 0
M  V30 34 N 7.2559 -9.1503 0.0 0
M  V30 35 C 8.2596 -10.265 0.0 0
M  V30 36 C 7.7194 -7.7237 0.0 0
M  V30 37 C 9.7268 -9.9531 0.0 0
M  V30 38 C 9.1867 -7.4118 0.0 0
M  V30 39 N 10.1904 -8.5265 0.0 0
M  V30 40 C 11.6576 -8.2147 0.0 0
M  V30 END ATOM
M  V30 BEGIN BOND
M  V30 1 2 1 2
M  V30 2 1 2 3
M  V30 3 1 2 4
M  V30 4 1 3 5
M  V30 5 1 3 6
M  V30 6 1 4 7
M  V30 7 1 8 5
M  V30 8 1 6 9
M  V30 9 1 8 10 CFG=3
M  V30 10 1 8 11
M  V30 11 1 10 12
M  V30 12 1 10 13
M  V30 13 2 12 14
M  V30 14 1 12 15
M  V30 15 2 13 16
M  V30 16 1 13 17
M  V30 17 1 15 18
M  V30 18 1 16 19
M  V30 19 2 17 20
M  V30 20 2 18 21
M  V30 21 1 18 22
M  V30 22 2 19 23
M  V30 23 1 19 24
M  V30 24 1 21 25
M  V30 25 2 22 26
M  V30 26 1 24 27
M  V30 27 2 25 28
M  V30 28 2 27 29
M  V30 29 1 27 30
M  V30 30 1 29 31
M  V30 31 2 30 32
M  V30 32 2 31 33
M  V30 33 1 33 34
M  V30 34 1 34 35
M  V30 35 1 34 36
M  V30 36 1 35 37
M  V30 37 1 36 38
M  V30 38 1 37 39
M  V30 39 1 39 40
M  V30 40 1 9 11
M  V30 41 1 14 17
M  V30 42 1 20 23
M  V30 43 1 26 28
M  V30 44 1 32 33
M  V30 45 1 38 39
M  V30 END BOND
M  V30 BEGIN COLLECTION
M  V30 MDLV30/STEABS ATOMS=(1 8)
M  V30 END COLLECTION
M  V30 END CTAB
M  END
>  <Molecule Name>
Compound 1022

>  <Molecule Name 2>
Compound 1022

>  <Compound ID>
300

>  <Name>


>  <Uniprot>
P00533

>  <Target>
EGFR e19d

>  <Smiles>
CCC(=O)N1CCC[C@H](N2C(NC3=CC=CC=C3)=NC3=CN=C(NC4=CC=C(N5CCN(C)CC5)C=C4)N=C32)C1

>  <Kd (nM)>


>  <Assay (Kd)>


>  <Ki (nM)>


>  <Assay (Ki)>


>  <IC50 (nM)>
2.48

>  <Assay (IC50)>
Inhibit proliferation of HCC827 (EGFR del19) cells

>  <EC50 (nM)>


>  <Assay (EC50)>


>  <Article DOI>
10.1021/acs.jmedchem.1c01827

>  <Molecular Weight>
539.688

>  <Exact Mass>
539.3121068

>  <XLogP3>
4.16

>  <Heavy Atom Count>
40

>  <Ring Count>
6

>  <Hydrogen Bond Acceptor Count>
9

>  <Hydrogen Bond Donor Count>
2

>  <Rotatable Bond Count>
7

>  <Topological Polar Surface Area>
94.45

>  <Molecular Formula>
C30H37N9O

>  <InChI>
InChI=1S/C30H37N9O/c1-3-27(40)38-15-7-10-25(21-38)39-28-26(34-30(39)33-22-8-5-4-6-9-22)20-31-29(35-28)32-23-11-13-24(14-12-23)37-18-16-36(2)17-19-37/h4-6,8-9,11-14,20,25H,3,7,10,15-19,21H2,1-2H3,(H,33,34)(H,31,32,35)/t25-/m0/s1

>  <InChI Key>
SBITVCUIVUXQCX-VWLOTQADSA-N

>  <BindingDB>


>  <PubChem>


>  <ChEMBL>


$$$$
300
Actelion Java MolfileCreator 2.0

  0  0  0  0  0  0              0 V3000
M  V30 BEGIN CTAB
M  V30 COUNTS 40 45 0 0 0
M  V30 BEGIN ATOM
M  V30 1 O 3.8971 0.0 0.0 0
M  V30 2 C 2.598 -0.75 0.0 0
M  V30 3 N 2.598 -2.25 0.0 0
M  V30 4 C 1.299 0.0 0.0 0
M  V30 5 C 1.299 -3.0 0.0 0
M  V30 6 C 3.8971 -2.9999 0.0 0
M  V30 7 C 0.0 -0.75 0.0 0
M  V30 8 C 1.299 -4.5 0.0 0 CFG=1
M  V30 9 C 3.8971 -4.4999 0.0 0
M  V30 10 N 0.0 -5.25 0.0 0
M  V30 11 C 2.598 -5.25 0.0 0
M  V30 12 C -1.3703 -4.6398 0.0 0
M  V30 13 C -0.1567 -6.7417 0.0 0
M  V30 14 N -2.374 -5.7546 0.0 0
M  V30 15 N -1.6821 -3.1726 0.0 0
M  V30 16 N 0.8469 -7.8565 0.0 0
M  V30 17 C -1.624 -7.0536 0.0 0
M  V30 18 C -3.1087 -2.7091 0.0 0
M  V30 19 C 0.3833 -9.283 0.0 0
M  V30 20 C -2.0875 -8.4802 0.0 0
M  V30 21 C -3.4206 -1.2419 0.0 0
M  V30 22 C -4.2234 -3.7128 0.0 0
M  V30 23 N -1.0838 -9.5949 0.0 0
M  V30 24 N 1.387 -10.3978 0.0 0
M  V30 25 C -4.8472 -0.7784 0.0 0
M  V30 26 C -5.65 -3.2493 0.0 0
M  V30 27 C 2.8542 -10.0859 0.0 0
M  V30 28 C -5.9619 -1.782 0.0 0
M  V30 29 C 3.8579 -11.2006 0.0 0
M  V30 30 C 3.3178 -8.6593 0.0 0
M  V30 31 C 5.3252 -10.8887 0.0 0
M  V30 32 C 4.785 -8.3474 0.0 0
M  V30 33 C 5.7887 -9.4621 0.0 0
M  V30 34 N 7.2559 -9.1503 0.0 0
M  V30 35 C 8.2596 -10.265 0.0 0
M  V30 36 C 7.7194 -7.7237 0.0 0
M  V30 37 C 9.7268 -9.9531 0.0 0
M  V30 38 C 9.1867 -7.4118 0.0 0
M  V30 39 N 10.1904 -8.5265 0.0 0
M  V30 40 C 11.6576 -8.2147 0.0 0
M  V30 END ATOM
M  V30 BEGIN BOND
M  V30 1 2 1 2
M  V30 2 1 2 3
M  V30 3 1 2 4
M  V30 4 1 3 5
M  V30 5 1 3 6
M  V30 6 1 4 7
M  V30 7 1 8 5
M  V30 8 1 6 9
M  V30 9 1 8 10 CFG=3
M  V30 10 1 8 11
M  V30 11 1 10 12
M  V30 12 1 10 13
M  V30 13 2 12 14
M  V30 14 1 12 15
M  V30 15 2 13 16
M  V30 16 1 13 17
M  V30 17 1 15 18
M  V30 18 1 16 19
M  V30 19 2 17 20
M  V30 20 2 18 21
M  V30 21 1 18 22
M  V30 22 2 19 23
M  V30 23 1 19 24
M  V30 24 1 21 25
M  V30 25 2 22 26
M  V30 26 1 24 27
M  V30 27 2 25 28
M  V30 28 2 27 29
M  V30 29 1 27 30
M  V30 30 1 29 31
M  V30 31 2 30 32
M  V30 32 2 31 33
M  V30 33 1 33 34
M  V30 34 1 34 35
M  V30 35 1 34 36
M  V30 36 1 35 37
M  V30 37 1 36 38
M  V30 38 1 37 39
M  V30 39 1 39 40
M  V30 40 1 9 11
M  V30 41 1 14 17
M  V30 42 1 20 23
M  V30 43 1 26 28
M  V30 44 1 32 33
M  V30 45 1 38 39
M  V30 END BOND
M  V30 BEGIN COLLECTION
M  V30 MDLV30/STEABS ATOMS=(1 8)
M  V30 END COLLECTION
M  V30 END CTAB
M  END
>  <Molecule Name>
Compound 1023

>  <Molecule Name 2>
Compound 1023

>  <Compound ID>
300

>  <Name>


>  <Uniprot>
P00533

>  <Target>
EGFR L858R/T790M

>  <Smiles>
CCC(=O)N1CCC[C@H](N2C(NC3=CC=CC=C3)=NC3=CN=C(NC4=CC=C(N5CCN(C)CC5)C=C4)N=C32)C1

>  <Kd (nM)>


>  <Assay (Kd)>


>  <Ki (nM)>


>  <Assay (Ki)>


>  <IC50 (nM)>
1173

>  <Assay (IC50)>
Inhibit proliferation of H1975 (EGFR L858R/T790M) cells

>  <EC50 (nM)>


>  <Assay (EC50)>


>  <Article DOI>
10.1021/acs.jmedchem.1c01827

>  <Molecular Weight>
539.688

>  <Exact Mass>
539.3121068

>  <XLogP3>
4.16

>  <Heavy Atom Count>
40

>  <Ring Count>
6

>  <Hydrogen Bond Acceptor Count>
9

>  <Hydrogen Bond Donor Count>
2

>  <Rotatable Bond Count>
7

>  <Topological Polar Surface Area>
94.45

>  <Molecular Formula>
C30H37N9O

>  <InChI>
InChI=1S/C30H37N9O/c1-3-27(40)38-15-7-10-25(21-38)39-28-26(34-30(39)33-22-8-5-4-6-9-22)20-31-29(35-28)32-23-11-13-24(14-12-23)37-18-16-36(2)17-19-37/h4-6,8-9,11-14,20,25H,3,7,10,15-19,21H2,1-2H3,(H,33,34)(H,31,32,35)/t25-/m0/s1

>  <InChI Key>
SBITVCUIVUXQCX-VWLOTQADSA-N

>  <BindingDB>


>  <PubChem>


>  <ChEMBL>


$$$$
300
Actelion Java MolfileCreator 2.0

  0  0  0  0  0  0              0 V3000
M  V30 BEGIN CTAB
M  V30 COUNTS 40 45 0 0 0
M  V30 BEGIN ATOM
M  V30 1 O 3.8971 0.0 0.0 0
M  V30 2 C 2.598 -0.75 0.0 0
M  V30 3 N 2.598 -2.25 0.0 0
M  V30 4 C 1.299 0.0 0.0 0
M  V30 5 C 1.299 -3.0 0.0 0
M  V30 6 C 3.8971 -2.9999 0.0 0
M  V30 7 C 0.0 -0.75 0.0 0
M  V30 8 C 1.299 -4.5 0.0 0 CFG=1
M  V30 9 C 3.8971 -4.4999 0.0 0
M  V30 10 N 0.0 -5.25 0.0 0
M  V30 11 C 2.598 -5.25 0.0 0
M  V30 12 C -1.3703 -4.6398 0.0 0
M  V30 13 C -0.1567 -6.7417 0.0 0
M  V30 14 N -2.374 -5.7546 0.0 0
M  V30 15 N -1.6821 -3.1726 0.0 0
M  V30 16 N 0.8469 -7.8565 0.0 0
M  V30 17 C -1.624 -7.0536 0.0 0
M  V30 18 C -3.1087 -2.7091 0.0 0
M  V30 19 C 0.3833 -9.283 0.0 0
M  V30 20 C -2.0875 -8.4802 0.0 0
M  V30 21 C -3.4206 -1.2419 0.0 0
M  V30 22 C -4.2234 -3.7128 0.0 0
M  V30 23 N -1.0838 -9.5949 0.0 0
M  V30 24 N 1.387 -10.3978 0.0 0
M  V30 25 C -4.8472 -0.7784 0.0 0
M  V30 26 C -5.65 -3.2493 0.0 0
M  V30 27 C 2.8542 -10.0859 0.0 0
M  V30 28 C -5.9619 -1.782 0.0 0
M  V30 29 C 3.8579 -11.2006 0.0 0
M  V30 30 C 3.3178 -8.6593 0.0 0
M  V30 31 C 5.3252 -10.8887 0.0 0
M  V30 32 C 4.785 -8.3474 0.0 0
M  V30 33 C 5.7887 -9.4621 0.0 0
M  V30 34 N 7.2559 -9.1503 0.0 0
M  V30 35 C 8.2596 -10.265 0.0 0
M  V30 36 C 7.7194 -7.7237 0.0 0
M  V30 37 C 9.7268 -9.9531 0.0 0
M  V30 38 C 9.1867 -7.4118 0.0 0
M  V30 39 N 10.1904 -8.5265 0.0 0
M  V30 40 C 11.6576 -8.2147 0.0 0
M  V30 END ATOM
M  V30 BEGIN BOND
M  V30 1 2 1 2
M  V30 2 1 2 3
M  V30 3 1 2 4
M  V30 4 1 3 5
M  V30 5 1 3 6
M  V30 6 1 4 7
M  V30 7 1 8 5
M  V30 8 1 6 9
M  V30 9 1 8 10 CFG=3
M  V30 10 1 8 11
M  V30 11 1 10 12
M  V30 12 1 10 13
M  V30 13 2 12 14
M  V30 14 1 12 15
M  V30 15 2 13 16
M  V30 16 1 13 17
M  V30 17 1 15 18
M  V30 18 1 16 19
M  V30 19 2 17 20
M  V30 20 2 18 21
M  V30 21 1 18 22
M  V30 22 2 19 23
M  V30 23 1 19 24
M  V30 24 1 21 25
M  V30 25 2 22 26
M  V30 26 1 24 27
M  V30 27 2 25 28
M  V30 28 2 27 29
M  V30 29 1 27 30
M  V30 30 1 29 31
M  V30 31 2 30 32
M  V30 32 2 31 33
M  V30 33 1 33 34
M  V30 34 1 34 35
M  V30 35 1 34 36
M  V30 36 1 35 37
M  V30 37 1 36 38
M  V30 38 1 37 39
M  V30 39 1 39 40
M  V30 40 1 9 11
M  V30 41 1 14 17
M  V30 42 1 20 23
M  V30 43 1 26 28
M  V30 44 1 32 33
M  V30 45 1 38 39
M  V30 END BOND
M  V30 BEGIN COLLECTION
M  V30 MDLV30/STEABS ATOMS=(1 8)
M  V30 END COLLECTION
M  V30 END CTAB
M  END
>  <Molecule Name>
Compound 1024

>  <Molecule Name 2>
Compound 1024

>  <Compound ID>
300

>  <Name>


>  <Uniprot>
P00533

>  <Target>
EGFR

>  <Smiles>
CCC(=O)N1CCC[C@H](N2C(NC3=CC=CC=C3)=NC3=CN=C(NC4=CC=C(N5CCN(C)CC5)C=C4)N=C32)C1

>  <Kd (nM)>


>  <Assay (Kd)>


>  <Ki (nM)>


>  <Assay (Ki)>


>  <IC50 (nM)>


>  <Assay (IC50)>


>  <EC50 (nM)>


>  <Assay (EC50)>


>  <Article DOI>
10.1021/acs.jmedchem.1c01827

>  <Molecular Weight>
539.688

>  <Exact Mass>
539.3121068

>  <XLogP3>
4.16

>  <Heavy Atom Count>
40

>  <Ring Count>
6

>  <Hydrogen Bond Acceptor Count>
9

>  <Hydrogen Bond Donor Count>
2

>  <Rotatable Bond Count>
7

>  <Topological Polar Surface Area>
94.45

>  <Molecular Formula>
C30H37N9O

>  <InChI>
InChI=1S/C30H37N9O/c1-3-27(40)38-15-7-10-25(21-38)39-28-26(34-30(39)33-22-8-5-4-6-9-22)20-31-29(35-28)32-23-11-13-24(14-12-23)37-18-16-36(2)17-19-37/h4-6,8-9,11-14,20,25H,3,7,10,15-19,21H2,1-2H3,(H,33,34)(H,31,32,35)/t25-/m0/s1

>  <InChI Key>
SBITVCUIVUXQCX-VWLOTQADSA-N

>  <BindingDB>


>  <PubChem>


>  <ChEMBL>


$$$$
301
Actelion Java MolfileCreator 2.0

  0  0  0  0  0  0              0 V3000
M  V30 BEGIN CTAB
M  V30 COUNTS 34 39 0 0 0
M  V30 BEGIN ATOM
M  V30 1 Cl 0.8073 -3.9318 0.0 0
M  V30 2 C 1.4764 -3.1887 0.0 0
M  V30 3 C 2.4546 -3.3966 0.0 0
M  V30 4 C 1.1674 -2.2376 0.0 0
M  V30 5 C 3.1237 -2.6534 0.0 0
M  V30 6 C 1.8365 -1.4945 0.0 0
M  V30 7 N 4.1018 -2.8614 0.0 0
M  V30 8 C 2.8147 -1.7024 0.0 0
M  V30 9 N 1.732 -0.5 0.0 0
M  V30 10 C 4.4109 -3.8124 0.0 0
M  V30 11 C 4.771 -2.1182 0.0 0
M  V30 12 N 3.3147 -0.8364 0.0 0
M  V30 13 C 2.6455 -0.0932 0.0 0
M  V30 14 C 0.866 0.0 0.0 0
M  V30 15 C 5.389 -4.0203 0.0 0
M  V30 16 C 5.7491 -2.3261 0.0 0
M  V30 17 N 2.8535 0.8848 0.0 0
M  V30 18 C 0.0 -0.5 0.0 0
M  V30 19 N 6.0581 -3.2772 0.0 0
M  V30 20 C 3.6921 1.4295 0.0 0
M  V30 21 C 2.3088 1.7235 0.0 0
M  V30 22 C -0.866 0.0 0.0 0
M  V30 23 C 0.0 -1.4999 0.0 0
M  V30 24 C 7.0363 -3.4851 0.0 0
M  V30 25 C 3.1475 2.2681 0.0 0
M  V30 26 C -1.732 -0.4999 0.0 0
M  V30 27 C -0.866 -1.9999 0.0 0
M  V30 28 C 3.9862 2.8128 0.0 0
M  V30 29 C 2.6029 3.1068 0.0 0
M  V30 30 C -1.732 -1.4999 0.0 0
M  V30 31 C -2.598 0.0 0.0 0
M  V30 32 C -0.866 -2.9999 0.0 0
M  V30 33 N 3.4415 3.6515 0.0 0
M  V30 34 F -2.598 -1.9999 0.0 0
M  V30 END ATOM
M  V30 BEGIN BOND
M  V30 1 1 1 2
M  V30 2 2 2 3
M  V30 3 1 2 4
M  V30 4 1 3 5
M  V30 5 2 4 6
M  V30 6 1 5 7
M  V30 7 2 5 8
M  V30 8 1 6 9
M  V30 9 1 7 10
M  V30 10 1 7 11
M  V30 11 1 8 12
M  V30 12 1 9 13
M  V30 13 1 9 14
M  V30 14 1 10 15
M  V30 15 1 11 16
M  V30 16 1 13 17
M  V30 17 1 14 18
M  V30 18 1 15 19
M  V30 19 1 17 20
M  V30 20 1 17 21
M  V30 21 2 18 22
M  V30 22 1 18 23
M  V30 23 1 19 24
M  V30 24 1 20 25
M  V30 25 1 22 26
M  V30 26 2 23 27
M  V30 27 1 25 28
M  V30 28 1 25 29
M  V30 29 2 26 30
M  V30 30 1 26 31
M  V30 31 1 27 32
M  V30 32 1 28 33
M  V30 33 1 30 34
M  V30 34 1 6 8
M  V30 35 2 12 13
M  V30 36 1 16 19
M  V30 37 1 21 25
M  V30 38 1 27 30
M  V30 39 1 29 33
M  V30 END BOND
M  V30 END CTAB
M  END
>  <Molecule Name>
Compound 1025

>  <Molecule Name 2>
Compound 1025

>  <Compound ID>
301

>  <Name>


>  <Uniprot>
Q07889

>  <Target>
SOS1

>  <Smiles>
CC1=CC(CN2C(N3CC4(CNC4)C3)=NC3=C(N4CCN(C)CC4)C=C(Cl)C=C32)=CC(C)=C1F

>  <Kd (nM)>
44

>  <Assay (Kd)>
Kd was assessed by a fluorescence polarization anisotropy assay

>  <Ki (nM)>


>  <Assay (Ki)>


>  <IC50 (nM)>


>  <Assay (IC50)>


>  <EC50 (nM)>


>  <Assay (EC50)>


>  <Article DOI>
10.1021/acs.jmedchem.8b01108

>  <Molecular Weight>
483.035

>  <Exact Mass>
482.2361009

>  <XLogP3>
4.12

>  <Heavy Atom Count>
34

>  <Ring Count>
6

>  <Hydrogen Bond Acceptor Count>
6

>  <Hydrogen Bond Donor Count>
1

>  <Rotatable Bond Count>
4

>  <Topological Polar Surface Area>
39.57

>  <Molecular Formula>
C26H32ClFN6

>  <InChI>
InChI=1S/C26H32ClFN6/c1-17-8-19(9-18(2)23(17)28)12-34-22-11-20(27)10-21(32-6-4-31(3)5-7-32)24(22)30-25(34)33-15-26(16-33)13-29-14-26/h8-11,29H,4-7,12-16H2,1-3H3

>  <InChI Key>
JWZAQUXBYYOGFA-UHFFFAOYSA-N

>  <BindingDB>
50459449

>  <PubChem>
134814234

>  <ChEMBL>
CHEMBL4213025

$$$$
302
Actelion Java MolfileCreator 2.0

  0  0  0  0  0  0              0 V3000
M  V30 BEGIN CTAB
M  V30 COUNTS 36 39 0 0 0
M  V30 BEGIN ATOM
M  V30 1 F 12.0701 -11.6469 0.0 0
M  V30 2 C 11.3201 -10.3478 0.0 0
M  V30 3 C 12.0701 -9.0488 0.0 0
M  V30 4 C 9.8201 -10.3478 0.0 0
M  V30 5 C 11.3201 -7.7498 0.0 0
M  V30 6 C 9.0701 -9.0488 0.0 0
M  V30 7 C 9.8201 -7.7498 0.0 0
M  V30 8 C 12.0701 -6.4507 0.0 0
M  V30 9 C 7.5701 -9.0488 0.0 0
M  V30 10 O 9.0701 -6.4507 0.0 0
M  V30 11 C 7.5701 -6.4507 0.0 0
M  V30 12 C 6.8201 -5.1517 0.0 0
M  V30 13 C 6.8201 -7.7498 0.0 0
M  V30 14 C 7.5701 -3.8526 0.0 0
M  V30 15 C 5.3201 -5.1517 0.0 0
M  V30 16 C 5.3201 -7.7498 0.0 0
M  V30 17 C 6.8201 -2.5536 0.0 0
M  V30 18 C 9.0701 -3.8526 0.0 0
M  V30 19 C 4.5701 -6.4507 0.0 0
M  V30 20 C 7.5701 -1.2546 0.0 0
M  V30 21 C 5.3529 -2.2417 0.0 0
M  V30 22 N 9.8201 -2.5536 0.0 0
M  V30 23 C 3.0701 -6.4507 0.0 0
M  V30 24 N 6.5664 -0.1398 0.0 0
M  V30 25 C 9.0701 -1.2546 0.0 0
M  V30 26 C 5.1961 -0.75 0.0 0
M  V30 27 C 11.3201 -2.5536 0.0 0
M  V30 28 O 3.0701 -7.9507 0.0 0
M  V30 29 C 1.5701 -6.4507 0.0 0
M  V30 30 C 3.0701 -4.9507 0.0 0
M  V30 31 O 9.8201 0.0444 0.0 0
M  V30 32 C 3.8971 0.0 0.0 0
M  V30 33 O 3.8971 1.5 0.0 0
M  V30 34 N 2.598 -0.75 0.0 0
M  V30 35 C 1.299 0.0 0.0 0
M  V30 36 C 0.0 -0.75 0.0 0
M  V30 END ATOM
M  V30 BEGIN BOND
M  V30 1 1 1 2
M  V30 2 2 2 3
M  V30 3 1 2 4
M  V30 4 1 3 5
M  V30 5 2 4 6
M  V30 6 2 5 7
M  V30 7 1 5 8
M  V30 8 1 6 9
M  V30 9 1 7 10
M  V30 10 1 10 11
M  V30 11 2 11 12
M  V30 12 1 11 13
M  V30 13 1 12 14
M  V30 14 1 12 15
M  V30 15 2 13 16
M  V30 16 1 14 17
M  V30 17 2 14 18
M  V30 18 2 15 19
M  V30 19 2 17 20
M  V30 20 1 17 21
M  V30 21 1 18 22
M  V30 22 1 19 23
M  V30 23 1 20 24
M  V30 24 1 20 25
M  V30 25 2 21 26
M  V30 26 1 22 27
M  V30 27 1 23 28
M  V30 28 1 23 29
M  V30 29 1 23 30
M  V30 30 2 25 31
M  V30 31 1 26 32
M  V30 32 2 32 33
M  V30 33 1 32 34
M  V30 34 1 34 35
M  V30 35 1 35 36
M  V30 36 1 6 7
M  V30 37 1 16 19
M  V30 38 1 22 25
M  V30 39 1 24 26
M  V30 END BOND
M  V30 END CTAB
M  END
>  <Molecule Name>
Compound 1026

>  <Molecule Name 2>
Compound 1026

>  <Compound ID>
302

>  <Name>
ABBV-744

>  <Uniprot>
P25440

>  <Target>
BRD2

>  <Smiles>
CCNC(=O)C1=CC2=C([NH]1)C(=O)N(C)C=C2C1=CC(C(C)(C)O)=CC=C1OC1=C(C)C=C(F)C=C1C

>  <Kd (nM)>


>  <Assay (Kd)>


>  <Ki (nM)>
1162/4.6

>  <Assay (Ki)>
Ki of BRD2 BD1/2 was assessed by TR-FRET

>  <IC50 (nM)>


>  <Assay (IC50)>


>  <EC50 (nM)>


>  <Assay (EC50)>


>  <Article DOI>
10.1021/acs.jmedchem.0c00628

>  <Molecular Weight>
491.563

>  <Exact Mass>
491.2220347

>  <XLogP3>
3.86

>  <Heavy Atom Count>
36

>  <Ring Count>
4

>  <Hydrogen Bond Acceptor Count>
5

>  <Hydrogen Bond Donor Count>
3

>  <Rotatable Bond Count>
6

>  <Topological Polar Surface Area>
96.35

>  <Molecular Formula>
C28H30FN3O4

>  <InChI>
InChI=1S/C28H30FN3O4/c1-7-30-26(33)22-13-20-21(14-32(6)27(34)24(20)31-22)19-12-17(28(4,5)35)8-9-23(19)36-25-15(2)10-18(29)11-16(25)3/h8-14,31,35H,7H2,1-6H3,(H,30,33)

>  <InChI Key>
OEDSFMUSNZDJFD-UHFFFAOYSA-N

>  <BindingDB>
439497

>  <PubChem>
132010322

>  <ChEMBL>
CHEMBL4297454

$$$$
302
Actelion Java MolfileCreator 2.0

  0  0  0  0  0  0              0 V3000
M  V30 BEGIN CTAB
M  V30 COUNTS 36 39 0 0 0
M  V30 BEGIN ATOM
M  V30 1 F 12.0701 -11.6469 0.0 0
M  V30 2 C 11.3201 -10.3478 0.0 0
M  V30 3 C 12.0701 -9.0488 0.0 0
M  V30 4 C 9.8201 -10.3478 0.0 0
M  V30 5 C 11.3201 -7.7498 0.0 0
M  V30 6 C 9.0701 -9.0488 0.0 0
M  V30 7 C 9.8201 -7.7498 0.0 0
M  V30 8 C 12.0701 -6.4507 0.0 0
M  V30 9 C 7.5701 -9.0488 0.0 0
M  V30 10 O 9.0701 -6.4507 0.0 0
M  V30 11 C 7.5701 -6.4507 0.0 0
M  V30 12 C 6.8201 -5.1517 0.0 0
M  V30 13 C 6.8201 -7.7498 0.0 0
M  V30 14 C 7.5701 -3.8526 0.0 0
M  V30 15 C 5.3201 -5.1517 0.0 0
M  V30 16 C 5.3201 -7.7498 0.0 0
M  V30 17 C 6.8201 -2.5536 0.0 0
M  V30 18 C 9.0701 -3.8526 0.0 0
M  V30 19 C 4.5701 -6.4507 0.0 0
M  V30 20 C 7.5701 -1.2546 0.0 0
M  V30 21 C 5.3529 -2.2417 0.0 0
M  V30 22 N 9.8201 -2.5536 0.0 0
M  V30 23 C 3.0701 -6.4507 0.0 0
M  V30 24 N 6.5664 -0.1398 0.0 0
M  V30 25 C 9.0701 -1.2546 0.0 0
M  V30 26 C 5.1961 -0.75 0.0 0
M  V30 27 C 11.3201 -2.5536 0.0 0
M  V30 28 O 3.0701 -7.9507 0.0 0
M  V30 29 C 1.5701 -6.4507 0.0 0
M  V30 30 C 3.0701 -4.9507 0.0 0
M  V30 31 O 9.8201 0.0444 0.0 0
M  V30 32 C 3.8971 0.0 0.0 0
M  V30 33 O 3.8971 1.5 0.0 0
M  V30 34 N 2.598 -0.75 0.0 0
M  V30 35 C 1.299 0.0 0.0 0
M  V30 36 C 0.0 -0.75 0.0 0
M  V30 END ATOM
M  V30 BEGIN BOND
M  V30 1 1 1 2
M  V30 2 2 2 3
M  V30 3 1 2 4
M  V30 4 1 3 5
M  V30 5 2 4 6
M  V30 6 2 5 7
M  V30 7 1 5 8
M  V30 8 1 6 9
M  V30 9 1 7 10
M  V30 10 1 10 11
M  V30 11 2 11 12
M  V30 12 1 11 13
M  V30 13 1 12 14
M  V30 14 1 12 15
M  V30 15 2 13 16
M  V30 16 1 14 17
M  V30 17 2 14 18
M  V30 18 2 15 19
M  V30 19 2 17 20
M  V30 20 1 17 21
M  V30 21 1 18 22
M  V30 22 1 19 23
M  V30 23 1 20 24
M  V30 24 1 20 25
M  V30 25 2 21 26
M  V30 26 1 22 27
M  V30 27 1 23 28
M  V30 28 1 23 29
M  V30 29 1 23 30
M  V30 30 2 25 31
M  V30 31 1 26 32
M  V30 32 2 32 33
M  V30 33 1 32 34
M  V30 34 1 34 35
M  V30 35 1 35 36
M  V30 36 1 6 7
M  V30 37 1 16 19
M  V30 38 1 22 25
M  V30 39 1 24 26
M  V30 END BOND
M  V30 END CTAB
M  END
>  <Molecule Name>
Compound 1027

>  <Molecule Name 2>
Compound 1027

>  <Compound ID>
302

>  <Name>
ABBV-744

>  <Uniprot>
Q15059

>  <Target>
BRD3

>  <Smiles>
CCNC(=O)C1=CC2=C([NH]1)C(=O)N(C)C=C2C1=CC(C(C)(C)O)=CC=C1OC1=C(C)C=C(F)C=C1C

>  <Kd (nM)>


>  <Assay (Kd)>


>  <Ki (nM)>
3140/8.31

>  <Assay (Ki)>
Ki of BRD3 BD1/2 was assessed by TR-FRET

>  <IC50 (nM)>


>  <Assay (IC50)>


>  <EC50 (nM)>


>  <Assay (EC50)>


>  <Article DOI>
10.1021/acs.jmedchem.0c00628

>  <Molecular Weight>
491.563

>  <Exact Mass>
491.2220347

>  <XLogP3>
3.86

>  <Heavy Atom Count>
36

>  <Ring Count>
4

>  <Hydrogen Bond Acceptor Count>
5

>  <Hydrogen Bond Donor Count>
3

>  <Rotatable Bond Count>
6

>  <Topological Polar Surface Area>
96.35

>  <Molecular Formula>
C28H30FN3O4

>  <InChI>
InChI=1S/C28H30FN3O4/c1-7-30-26(33)22-13-20-21(14-32(6)27(34)24(20)31-22)19-12-17(28(4,5)35)8-9-23(19)36-25-15(2)10-18(29)11-16(25)3/h8-14,31,35H,7H2,1-6H3,(H,30,33)

>  <InChI Key>
OEDSFMUSNZDJFD-UHFFFAOYSA-N

>  <BindingDB>
439497

>  <PubChem>
132010322

>  <ChEMBL>
CHEMBL4297454

$$$$
302
Actelion Java MolfileCreator 2.0

  0  0  0  0  0  0              0 V3000
M  V30 BEGIN CTAB
M  V30 COUNTS 36 39 0 0 0
M  V30 BEGIN ATOM
M  V30 1 F 12.0701 -11.6469 0.0 0
M  V30 2 C 11.3201 -10.3478 0.0 0
M  V30 3 C 12.0701 -9.0488 0.0 0
M  V30 4 C 9.8201 -10.3478 0.0 0
M  V30 5 C 11.3201 -7.7498 0.0 0
M  V30 6 C 9.0701 -9.0488 0.0 0
M  V30 7 C 9.8201 -7.7498 0.0 0
M  V30 8 C 12.0701 -6.4507 0.0 0
M  V30 9 C 7.5701 -9.0488 0.0 0
M  V30 10 O 9.0701 -6.4507 0.0 0
M  V30 11 C 7.5701 -6.4507 0.0 0
M  V30 12 C 6.8201 -5.1517 0.0 0
M  V30 13 C 6.8201 -7.7498 0.0 0
M  V30 14 C 7.5701 -3.8526 0.0 0
M  V30 15 C 5.3201 -5.1517 0.0 0
M  V30 16 C 5.3201 -7.7498 0.0 0
M  V30 17 C 6.8201 -2.5536 0.0 0
M  V30 18 C 9.0701 -3.8526 0.0 0
M  V30 19 C 4.5701 -6.4507 0.0 0
M  V30 20 C 7.5701 -1.2546 0.0 0
M  V30 21 C 5.3529 -2.2417 0.0 0
M  V30 22 N 9.8201 -2.5536 0.0 0
M  V30 23 C 3.0701 -6.4507 0.0 0
M  V30 24 N 6.5664 -0.1398 0.0 0
M  V30 25 C 9.0701 -1.2546 0.0 0
M  V30 26 C 5.1961 -0.75 0.0 0
M  V30 27 C 11.3201 -2.5536 0.0 0
M  V30 28 O 3.0701 -7.9507 0.0 0
M  V30 29 C 1.5701 -6.4507 0.0 0
M  V30 30 C 3.0701 -4.9507 0.0 0
M  V30 31 O 9.8201 0.0444 0.0 0
M  V30 32 C 3.8971 0.0 0.0 0
M  V30 33 O 3.8971 1.5 0.0 0
M  V30 34 N 2.598 -0.75 0.0 0
M  V30 35 C 1.299 0.0 0.0 0
M  V30 36 C 0.0 -0.75 0.0 0
M  V30 END ATOM
M  V30 BEGIN BOND
M  V30 1 1 1 2
M  V30 2 2 2 3
M  V30 3 1 2 4
M  V30 4 1 3 5
M  V30 5 2 4 6
M  V30 6 2 5 7
M  V30 7 1 5 8
M  V30 8 1 6 9
M  V30 9 1 7 10
M  V30 10 1 10 11
M  V30 11 2 11 12
M  V30 12 1 11 13
M  V30 13 1 12 14
M  V30 14 1 12 15
M  V30 15 2 13 16
M  V30 16 1 14 17
M  V30 17 2 14 18
M  V30 18 2 15 19
M  V30 19 2 17 20
M  V30 20 1 17 21
M  V30 21 1 18 22
M  V30 22 1 19 23
M  V30 23 1 20 24
M  V30 24 1 20 25
M  V30 25 2 21 26
M  V30 26 1 22 27
M  V30 27 1 23 28
M  V30 28 1 23 29
M  V30 29 1 23 30
M  V30 30 2 25 31
M  V30 31 1 26 32
M  V30 32 2 32 33
M  V30 33 1 32 34
M  V30 34 1 34 35
M  V30 35 1 35 36
M  V30 36 1 6 7
M  V30 37 1 16 19
M  V30 38 1 22 25
M  V30 39 1 24 26
M  V30 END BOND
M  V30 END CTAB
M  END
>  <Molecule Name>
Compound 1028

>  <Molecule Name 2>
Compound 1028

>  <Compound ID>
302

>  <Name>
ABBV-744

>  <Uniprot>
O60885

>  <Target>
BRD4

>  <Smiles>
CCNC(=O)C1=CC2=C([NH]1)C(=O)N(C)C=C2C1=CC(C(C)(C)O)=CC=C1OC1=C(C)C=C(F)C=C1C

>  <Kd (nM)>


>  <Assay (Kd)>


>  <Ki (nM)>


>  <Assay (Ki)>


>  <IC50 (nM)>
311.5/1.78

>  <Assay (IC50)>
IC50 of BRD4 BD1/2 was assessed by HTRF

>  <EC50 (nM)>


>  <Assay (EC50)>


>  <Article DOI>
10.1016/j.ejmech.2022.114259

>  <Molecular Weight>
491.563

>  <Exact Mass>
491.2220347

>  <XLogP3>
3.86

>  <Heavy Atom Count>
36

>  <Ring Count>
4

>  <Hydrogen Bond Acceptor Count>
5

>  <Hydrogen Bond Donor Count>
3

>  <Rotatable Bond Count>
6

>  <Topological Polar Surface Area>
96.35

>  <Molecular Formula>
C28H30FN3O4

>  <InChI>
InChI=1S/C28H30FN3O4/c1-7-30-26(33)22-13-20-21(14-32(6)27(34)24(20)31-22)19-12-17(28(4,5)35)8-9-23(19)36-25-15(2)10-18(29)11-16(25)3/h8-14,31,35H,7H2,1-6H3,(H,30,33)

>  <InChI Key>
OEDSFMUSNZDJFD-UHFFFAOYSA-N

>  <BindingDB>
439497

>  <PubChem>
132010322

>  <ChEMBL>
CHEMBL4297454

$$$$
303
Actelion Java MolfileCreator 2.0

  0  0  0  0  0  0              0 V3000
M  V30 BEGIN CTAB
M  V30 COUNTS 29 31 0 0 0
M  V30 BEGIN ATOM
M  V30 1 Cl 8.2153 3.2385 0.0 0
M  V30 2 C 7.2207 3.134 0.0 0
M  V30 3 C 6.633 3.943 0.0 0
M  V30 4 C 6.814 2.2205 0.0 0
M  V30 5 Cl 7.0397 4.8566 0.0 0
M  V30 6 C 5.6384 3.8385 0.0 0
M  V30 7 C 5.8195 2.1159 0.0 0
M  V30 8 C 5.2317 2.9249 0.0 0
M  V30 9 C 5.4128 1.2024 0.0 0
M  V30 10 N 4.4346 0.9945 0.0 0
M  V30 11 C 5.9128 0.3364 0.0 0
M  V30 12 C 4.3301 0.0 0.0 0
M  V30 13 S 5.2436 -0.4067 0.0 0
M  V30 14 N 3.4641 -0.5 0.0 0
M  V30 15 N 2.598 0.0 0.0 0
M  V30 16 C 1.732 -0.5 0.0 0
M  V30 17 C 0.866 0.0 0.0 0
M  V30 18 C 1.732 -1.5 0.0 0
M  V30 19 O 0.0 -0.4999 0.0 0
M  V30 20 O 0.866 1.0 0.0 0
M  V30 21 C 0.866 -2.0 0.0 0
M  V30 22 C 0.866 -2.9999 0.0 0
M  V30 23 C 0.0 -1.5 0.0 0
M  V30 24 N 1.732 -3.4999 0.0 0 CHG=1
M  V30 25 C 0.0 -3.5 0.0 0
M  V30 26 C -0.866 -2.0 0.0 0
M  V30 27 O 2.598 -2.9999 0.0 0
M  V30 28 O 1.732 -4.5 0.0 0 CHG=-1
M  V30 29 C -0.866 -3.0 0.0 0
M  V30 END ATOM
M  V30 BEGIN BOND
M  V30 1 1 1 2
M  V30 2 2 2 3
M  V30 3 1 2 4
M  V30 4 1 3 5
M  V30 5 1 3 6
M  V30 6 2 4 7
M  V30 7 2 6 8
M  V30 8 1 7 9
M  V30 9 1 9 10
M  V30 10 2 9 11
M  V30 11 2 10 12
M  V30 12 1 11 13
M  V30 13 1 12 14
M  V30 14 1 14 15
M  V30 15 2 15 16
M  V30 16 1 16 17
M  V30 17 1 16 18
M  V30 18 2 17 19
M  V30 19 1 17 20
M  V30 20 1 18 21
M  V30 21 2 21 22
M  V30 22 1 21 23
M  V30 23 1 22 24
M  V30 24 1 22 25
M  V30 25 2 23 26
M  V30 26 2 24 27
M  V30 27 1 24 28
M  V30 28 2 25 29
M  V30 29 1 7 8
M  V30 30 1 12 13
M  V30 31 1 26 29
M  V30 END BOND
M  V30 END CTAB
M  END
>  <Molecule Name>
Compound 1029

>  <Molecule Name 2>
Compound 1029

>  <Compound ID>
303

>  <Name>
4EGI-1

>  <Uniprot>
P06730

>  <Target>
eIF4E

>  <Smiles>
O=C(O)/C(CC1=CC=CC=C1[N+](=O)[O-])=N/NC1=NC(C2=CC=C(Cl)C(Cl)=C2)=CS1

>  <Kd (nM)>


>  <Assay (Kd)>


>  <Ki (nM)>


>  <Assay (Ki)>


>  <IC50 (nM)>
56800

>  <Assay (IC50)>
IC50 was assessed by FP

>  <EC50 (nM)>


>  <Assay (EC50)>


>  <Article DOI>
10.1016/j.ejmech.2021.113435

>  <Molecular Weight>
451.291

>  <Exact Mass>
449.9956312

>  <XLogP3>
6.08

>  <Heavy Atom Count>
29

>  <Ring Count>
3

>  <Hydrogen Bond Acceptor Count>
7

>  <Hydrogen Bond Donor Count>
2

>  <Rotatable Bond Count>
7

>  <Topological Polar Surface Area>
117.72

>  <Molecular Formula>
C18H12Cl2N4O4S

>  <InChI>
InChI=1S/C18H12Cl2N4O4S/c19-12-6-5-10(7-13(12)20)15-9-29-18(21-15)23-22-14(17(25)26)8-11-3-1-2-4-16(11)24(27)28/h1-7,9H,8H2,(H,21,23)(H,25,26)/b22-14+

>  <InChI Key>
KFRKRECSIYXARE-HYARGMPZSA-N

>  <BindingDB>


>  <PubChem>
5717952

>  <ChEMBL>
CHEMBL3310197

$$$$
304
Actelion Java MolfileCreator 2.0

  0  0  0  0  0  0              0 V3000
M  V30 BEGIN CTAB
M  V30 COUNTS 33 36 0 0 0
M  V30 BEGIN ATOM
M  V30 1 S 4.4346 0.9945 0.0 0
M  V30 2 C 4.3301 0.0 0.0 0
M  V30 3 C 5.4128 1.2024 0.0 0
M  V30 4 N 5.2436 -0.4067 0.0 0
M  V30 5 N 3.4641 -0.5 0.0 0
M  V30 6 C 5.9128 0.3364 0.0 0
M  V30 7 N 2.598 0.0 0.0 0
M  V30 8 C 6.9073 0.2318 0.0 0
M  V30 9 C 1.732 -0.5 0.0 0
M  V30 10 C 7.314 -0.6816 0.0 0
M  V30 11 C 7.4951 1.0408 0.0 0
M  V30 12 C 1.732 -1.5 0.0 0
M  V30 13 C 0.866 0.0 0.0 0
M  V30 14 C 8.3085 -0.7861 0.0 0
M  V30 15 C 8.4896 0.9363 0.0 0
M  V30 16 O 0.866 -2.0 0.0 0
M  V30 17 O 2.598 -1.9999 0.0 0
M  V30 18 C 0.0 -0.5 0.0 0
M  V30 19 C 8.8963 0.0228 0.0 0
M  V30 20 C -0.866 0.0 0.0 0
M  V30 21 C 0.0 -1.4999 0.0 0
M  V30 22 C 9.8908 -0.0817 0.0 0
M  V30 23 N -0.866 1.0 0.0 0 CHG=1
M  V30 24 C -1.732 -0.4999 0.0 0
M  V30 25 C -0.866 -1.9999 0.0 0
M  V30 26 C 10.2976 -0.9952 0.0 0
M  V30 27 C 10.4786 0.7273 0.0 0
M  V30 28 O 0.0 1.5 0.0 0
M  V30 29 O -1.732 1.5 0.0 0 CHG=-1
M  V30 30 C -1.732 -1.4999 0.0 0
M  V30 31 C 11.2921 -1.0997 0.0 0
M  V30 32 C 11.4731 0.6227 0.0 0
M  V30 33 C 11.8799 -0.2907 0.0 0
M  V30 END ATOM
M  V30 BEGIN BOND
M  V30 1 1 1 2
M  V30 2 1 1 3
M  V30 3 2 2 4
M  V30 4 1 2 5
M  V30 5 2 3 6
M  V30 6 1 5 7
M  V30 7 1 6 8
M  V30 8 2 7 9
M  V30 9 2 8 10
M  V30 10 1 8 11
M  V30 11 1 9 12
M  V30 12 1 9 13
M  V30 13 1 10 14
M  V30 14 2 11 15
M  V30 15 2 12 16
M  V30 16 1 12 17
M  V30 17 1 13 18
M  V30 18 2 14 19
M  V30 19 2 18 20
M  V30 20 1 18 21
M  V30 21 1 19 22
M  V30 22 1 20 23
M  V30 23 1 20 24
M  V30 24 2 21 25
M  V30 25 2 22 26
M  V30 26 1 22 27
M  V30 27 2 23 28
M  V30 28 1 23 29
M  V30 29 2 24 30
M  V30 30 1 26 31
M  V30 31 2 27 32
M  V30 32 2 31 33
M  V30 33 1 4 6
M  V30 34 1 15 19
M  V30 35 1 25 30
M  V30 36 1 32 33
M  V30 END BOND
M  V30 END CTAB
M  END
>  <Molecule Name>
Compound 1030

>  <Molecule Name 2>
Compound 1030

>  <Compound ID>
304

>  <Name>
i4EG-BiP

>  <Uniprot>
P06730

>  <Target>
eIF4E

>  <Smiles>
O=C(O)/C(CC1=CC=CC=C1[N+](=O)[O-])=N\NC1=NC(C2=CC=C(C3=CC=CC=C3)C=C2)=CS1

>  <Kd (nM)>


>  <Assay (Kd)>


>  <Ki (nM)>


>  <Assay (Ki)>


>  <IC50 (nM)>
67500

>  <Assay (IC50)>
IC50 was assessed by FP

>  <EC50 (nM)>


>  <Assay (EC50)>


>  <Article DOI>
10.1016/j.ejmech.2021.113435

>  <Molecular Weight>
458.499

>  <Exact Mass>
458.1048761

>  <XLogP3>
6.45

>  <Heavy Atom Count>
33

>  <Ring Count>
4

>  <Hydrogen Bond Acceptor Count>
7

>  <Hydrogen Bond Donor Count>
2

>  <Rotatable Bond Count>
8

>  <Topological Polar Surface Area>
117.72

>  <Molecular Formula>
C24H18N4O4S

>  <InChI>
InChI=1S/C24H18N4O4S/c29-23(30)20(14-19-8-4-5-9-22(19)28(31)32)26-27-24-25-21(15-33-24)18-12-10-17(11-13-18)16-6-2-1-3-7-16/h1-13,15H,14H2,(H,25,27)(H,29,30)/b26-20-

>  <InChI Key>
JKEOZOHBIPDTTJ-QOMWVZHYSA-N

>  <BindingDB>


>  <PubChem>


>  <ChEMBL>


$$$$
305
Actelion Java MolfileCreator 2.0

  0  0  0  0  0  0              0 V3000
M  V30 BEGIN CTAB
M  V30 COUNTS 10 10 0 0 0
M  V30 BEGIN ATOM
M  V30 1 O 2.598 -3.0 0.0 0
M  V30 2 C 2.598 -1.9999 0.0 0
M  V30 3 C 3.4641 -1.5 0.0 0
M  V30 4 C 1.732 -1.5 0.0 0
M  V30 5 O 4.3301 -2.0 0.0 0
M  V30 6 C 3.4641 -0.5 0.0 0
M  V30 7 C 1.732 -0.5 0.0 0
M  V30 8 O 2.598 0.0 0.0 0
M  V30 9 C 0.866 0.0 0.0 0
M  V30 10 O 0.0 -0.5 0.0 0
M  V30 END ATOM
M  V30 BEGIN BOND
M  V30 1 2 1 2
M  V30 2 1 2 3
M  V30 3 1 2 4
M  V30 4 1 3 5
M  V30 5 2 3 6
M  V30 6 2 4 7
M  V30 7 1 6 8
M  V30 8 1 7 9
M  V30 9 1 9 10
M  V30 10 1 7 8
M  V30 END BOND
M  V30 END CTAB
M  END
>  <Molecule Name>
Compound 1031

>  <Molecule Name 2>
Compound 1031

>  <Compound ID>
305

>  <Name>
Kojic acid

>  <Uniprot>
P14679

>  <Target>
TYR

>  <Smiles>
O=C1C=C(CO)OC=C1O

>  <Kd (nM)>


>  <Assay (Kd)>


>  <Ki (nM)>
350000

>  <Assay (Ki)>
Ki was assessed using L-DOPA as substrate by UV-vis spectrophotometry

>  <IC50 (nM)>


>  <Assay (IC50)>


>  <EC50 (nM)>


>  <Assay (EC50)>


>  <Article DOI>
10.1021/acsmedchemlett.6b00369

>  <Molecular Weight>
142.11

>  <Exact Mass>
142.0266087

>  <XLogP3>
-0.64

>  <Heavy Atom Count>
10

>  <Ring Count>
1

>  <Hydrogen Bond Acceptor Count>
4

>  <Hydrogen Bond Donor Count>
2

>  <Rotatable Bond Count>
1

>  <Topological Polar Surface Area>
70.67

>  <Molecular Formula>
C6H6O4

>  <InChI>
InChI=1S/C6H6O4/c7-2-4-1-5(8)6(9)3-10-4/h1,3,7,9H,2H2

>  <InChI Key>
BEJNERDRQOWKJM-UHFFFAOYSA-N

>  <BindingDB>
50031467

>  <PubChem>
3840

>  <ChEMBL>
CHEMBL287556

$$$$
306
Actelion Java MolfileCreator 2.0

  0  0  0  0  0  0              0 V3000
M  V30 BEGIN CTAB
M  V30 COUNTS 14 14 0 0 0
M  V30 BEGIN ATOM
M  V30 1 O 5.1961 -0.75 0.0 0
M  V30 2 C 3.8971 0.0 0.0 0
M  V30 3 O 3.8971 1.5 0.0 0
M  V30 4 C 2.598 -0.75 0.0 0 CFG=1
M  V30 5 N 2.598 -2.25 0.0 0
M  V30 6 C 1.299 0.0 0.0 0
M  V30 7 C 0.0 -0.75 0.0 0
M  V30 8 C -1.299 0.0 0.0 0
M  V30 9 C 0.0 -2.2499 0.0 0
M  V30 10 C -2.598 -0.7499 0.0 0
M  V30 11 C -1.299 -2.9999 0.0 0
M  V30 12 O -3.8971 0.0 0.0 0
M  V30 13 C -2.598 -2.2499 0.0 0
M  V30 14 O -3.8971 -2.9999 0.0 0
M  V30 END ATOM
M  V30 BEGIN BOND
M  V30 1 2 1 2
M  V30 2 1 2 3
M  V30 3 1 4 2
M  V30 4 1 4 5 CFG=1
M  V30 5 1 4 6
M  V30 6 1 6 7
M  V30 7 2 7 8
M  V30 8 1 7 9
M  V30 9 1 8 10
M  V30 10 2 9 11
M  V30 11 1 10 12
M  V30 12 2 10 13
M  V30 13 1 13 14
M  V30 14 1 11 13
M  V30 END BOND
M  V30 BEGIN COLLECTION
M  V30 MDLV30/STEABS ATOMS=(1 4)
M  V30 END COLLECTION
M  V30 END CTAB
M  END
>  <Molecule Name>
Compound 1032

>  <Molecule Name 2>
Compound 1032

>  <Compound ID>
306

>  <Name>
L-Dopa

>  <Uniprot>
P14679

>  <Target>
TYR

>  <Smiles>
N[C@@H](CC1=CC=C(O)C(O)=C1)C(=O)O

>  <Kd (nM)>
19000

>  <Assay (Kd)>
Kd of TYR

>  <Ki (nM)>


>  <Assay (Ki)>


>  <IC50 (nM)>


>  <Assay (IC50)>


>  <EC50 (nM)>


>  <Assay (EC50)>


>  <Article DOI>
10.1016/j.bbapap.2010.02.015

>  <Molecular Weight>
197.19

>  <Exact Mass>
197.0688078

>  <XLogP3>
-2.74

>  <Heavy Atom Count>
14

>  <Ring Count>
1

>  <Hydrogen Bond Acceptor Count>
4

>  <Hydrogen Bond Donor Count>
4

>  <Rotatable Bond Count>
3

>  <Topological Polar Surface Area>
103.78

>  <Molecular Formula>
C9H11NO4

>  <InChI>
InChI=1S/C9H11NO4/c10-6(9(13)14)3-5-1-2-7(11)8(12)4-5/h1-2,4,6,11-12H,3,10H2,(H,13,14)/t6-/m0/s1

>  <InChI Key>
WTDRDQBEARUVNC-LURJTMIESA-N

>  <BindingDB>
50130192

>  <PubChem>
6047

>  <ChEMBL>
CHEMBL1009

$$$$
307
Actelion Java MolfileCreator 2.0

  0  0  0  0  0  0              0 V3000
M  V30 BEGIN CTAB
M  V30 COUNTS 26 28 0 0 0
M  V30 BEGIN ATOM
M  V30 1 S 4.3301 -1.9999 0.0 0
M  V30 2 O 3.8301 -2.866 0.0 0
M  V30 3 O 4.8301 -1.1339 0.0 0
M  V30 4 C 3.4641 -1.4999 0.0 0
M  V30 5 C 5.1961 -2.5 0.0 0
M  V30 6 C 3.4641 -0.5 0.0 0
M  V30 7 C 2.598 -1.9999 0.0 0
M  V30 8 C 2.598 0.0 0.0 0
M  V30 9 C 1.732 -1.5 0.0 0
M  V30 10 C 1.732 -0.5 0.0 0
M  V30 11 N 0.866 0.0 0.0 0
M  V30 12 C 0.0 -0.5 0.0 0
M  V30 13 N -0.866 0.0 0.0 0
M  V30 14 N 0.0 -1.4999 0.0 0
M  V30 15 C -1.732 -0.4999 0.0 0
M  V30 16 C -0.866 -1.9999 0.0 0
M  V30 17 C -2.598 0.0 0.0 0
M  V30 18 C -1.732 -1.4999 0.0 0
M  V30 19 N -2.7026 0.9945 0.0 0
M  V30 20 C -3.5116 -0.4067 0.0 0
M  V30 21 C -3.6807 1.2024 0.0 0
M  V30 22 C -1.9594 1.6636 0.0 0
M  V30 23 N -4.1807 0.3364 0.0 0
M  V30 24 C -4.0874 2.1159 0.0 0
M  V30 25 C -1.0084 1.3546 0.0 0
M  V30 26 C -2.1673 2.6418 0.0 0
M  V30 END ATOM
M  V30 BEGIN BOND
M  V30 1 2 1 2
M  V30 2 2 1 3
M  V30 3 1 1 4
M  V30 4 1 1 5
M  V30 5 2 4 6
M  V30 6 1 4 7
M  V30 7 1 6 8
M  V30 8 2 7 9
M  V30 9 2 8 10
M  V30 10 1 10 11
M  V30 11 1 11 12
M  V30 12 2 12 13
M  V30 13 1 12 14
M  V30 14 1 13 15
M  V30 15 2 14 16
M  V30 16 1 15 17
M  V30 17 2 15 18
M  V30 18 1 17 19
M  V30 19 2 17 20
M  V30 20 1 19 21
M  V30 21 1 19 22
M  V30 22 1 20 23
M  V30 23 1 21 24
M  V30 24 1 22 25
M  V30 25 1 22 26
M  V30 26 1 9 10
M  V30 27 1 16 18
M  V30 28 2 21 23
M  V30 END BOND
M  V30 END CTAB
M  END
>  <Molecule Name>
Compound 1033

>  <Molecule Name 2>
Compound 1033

>  <Compound ID>
307

>  <Name>
AZD5438

>  <Uniprot>
P24941

>  <Target>
CDK2

>  <Smiles>
CC1=NC=C(C2=CC=NC(NC3=CC=C(S(C)(=O)=O)C=C3)=N2)N1C(C)C

>  <Kd (nM)>


>  <Assay (Kd)>


>  <Ki (nM)>


>  <Assay (Ki)>


>  <IC50 (nM)>
6

>  <Assay (IC50)>
Inhibition of CDK2

>  <EC50 (nM)>


>  <Assay (EC50)>


>  <Article DOI>
10.1016/j.bmcl.2008.09.024

>  <Molecular Weight>
371.466

>  <Exact Mass>
371.1415959

>  <XLogP3>
2.21

>  <Heavy Atom Count>
26

>  <Ring Count>
3

>  <Hydrogen Bond Acceptor Count>
7

>  <Hydrogen Bond Donor Count>
1

>  <Rotatable Bond Count>
5

>  <Topological Polar Surface Area>
89.77

>  <Molecular Formula>
C18H21N5O2S

>  <InChI>
InChI=1S/C18H21N5O2S/c1-12(2)23-13(3)20-11-17(23)16-9-10-19-18(22-16)21-14-5-7-15(8-6-14)26(4,24)25/h5-12H,1-4H3,(H,19,21,22)

>  <InChI Key>
WJRRGYBTGDJBFX-UHFFFAOYSA-N

>  <BindingDB>
50246253

>  <PubChem>
16747683

>  <ChEMBL>
CHEMBL488436

$$$$
308
Actelion Java MolfileCreator 2.0

  0  0  0  0  0  0              0 V3000
M  V30 BEGIN CTAB
M  V30 COUNTS 26 28 0 0 0
M  V30 BEGIN ATOM
M  V30 1 F 1.732 1.4999 0.0 0
M  V30 2 C 2.598 1.0 0.0 0
M  V30 3 C 2.598 0.0 0.0 0
M  V30 4 C 3.4641 1.4999 0.0 0
M  V30 5 C 3.4641 -0.5 0.0 0
M  V30 6 C 1.732 -0.5 0.0 0
M  V30 7 C 4.3301 1.0 0.0 0
M  V30 8 F 3.4641 -1.5 0.0 0
M  V30 9 C 4.3301 0.0 0.0 0
M  V30 10 O 1.732 -1.5 0.0 0
M  V30 11 N 0.866 0.0 0.0 0
M  V30 12 C 0.0 -0.5 0.0 0
M  V30 13 C -0.9135 -0.0932 0.0 0
M  V30 14 C -0.1045 -1.4945 0.0 0
M  V30 15 N -1.5826 -0.8364 0.0 0
M  V30 16 C -1.1214 0.8848 0.0 0
M  V30 17 N -1.0826 -1.7024 0.0 0
M  V30 18 O -2.0725 1.1939 0.0 0
M  V30 19 N -0.3783 1.554 0.0 0
M  V30 20 C -0.5862 2.5321 0.0 0 CFG=1
M  V30 21 C 0.1569 3.2012 0.0 0
M  V30 22 C -1.5372 2.8411 0.0 0
M  V30 23 C -0.0509 4.1794 0.0 0
M  V30 24 C -1.7451 3.8193 0.0 0
M  V30 25 C -1.002 4.4884 0.0 0 CFG=1
M  V30 26 O -1.2099 5.4666 0.0 0
M  V30 END ATOM
M  V30 BEGIN BOND
M  V30 1 1 1 2
M  V30 2 2 2 3
M  V30 3 1 2 4
M  V30 4 1 3 5
M  V30 5 1 3 6
M  V30 6 2 4 7
M  V30 7 1 5 8
M  V30 8 2 5 9
M  V30 9 2 6 10
M  V30 10 1 6 11
M  V30 11 1 11 12
M  V30 12 1 12 13
M  V30 13 2 12 14
M  V30 14 2 13 15
M  V30 15 1 13 16
M  V30 16 1 14 17
M  V30 17 2 16 18
M  V30 18 1 16 19
M  V30 19 1 20 19 CFG=3
M  V30 20 1 20 21
M  V30 21 1 20 22
M  V30 22 1 21 23
M  V30 23 1 22 24
M  V30 24 1 25 23
M  V30 25 1 25 26 CFG=1
M  V30 26 1 7 9
M  V30 27 1 15 17
M  V30 28 1 24 25
M  V30 END BOND
M  V30 BEGIN COLLECTION
M  V30 MDLV30/STEABS ATOMS=(2 20 25)
M  V30 END COLLECTION
M  V30 END CTAB
M  END
>  <Molecule Name>
Compound 1034

>  <Molecule Name 2>
Compound 1034

>  <Compound ID>
308

>  <Name>
AT7519-7

>  <Uniprot>
P24941

>  <Target>
CDK2

>  <Smiles>
O=C(N[C@H]1CC[C@H](O)CC1)C1=N[NH]C=C1NC(=O)C1=C(F)C=CC=C1F

>  <Kd (nM)>


>  <Assay (Kd)>


>  <Ki (nM)>


>  <Assay (Ki)>


>  <IC50 (nM)>
19

>  <Assay (IC50)>
IC50 of CDK2/cyclin A was tested by a radiometric assay

>  <EC50 (nM)>


>  <Assay (EC50)>


>  <Article DOI>
10.1021/jm800382h

>  <Molecular Weight>
364.352

>  <Exact Mass>
364.1346969

>  <XLogP3>
2.06

>  <Heavy Atom Count>
26

>  <Ring Count>
3

>  <Hydrogen Bond Acceptor Count>
4

>  <Hydrogen Bond Donor Count>
4

>  <Rotatable Bond Count>
4

>  <Topological Polar Surface Area>
107.11

>  <Molecular Formula>
C17H18F2N4O3

>  <InChI>
InChI=1S/C17H18F2N4O3/c18-11-2-1-3-12(19)14(11)16(25)22-13-8-20-23-15(13)17(26)21-9-4-6-10(24)7-5-9/h1-3,8-10,24H,4-7H2,(H,20,23)(H,21,26)(H,22,25)/t9-,10-

>  <InChI Key>
IZIPWCFRXVNDNX-MGCOHNPYSA-N

>  <BindingDB>
24647

>  <PubChem>
24971320

>  <ChEMBL>
CHEMBL457177

$$$$
309
Actelion Java MolfileCreator 2.0

  0  0  0  0  0  0              0 V3000
M  V30 BEGIN CTAB
M  V30 COUNTS 42 47 0 0 0
M  V30 BEGIN ATOM
M  V30 1 O 2.598 0.0 0.0 0
M  V30 2 C 1.732 -0.5 0.0 0
M  V30 3 N 0.866 0.0 0.0 0
M  V30 4 C 1.732 -1.5 0.0 0
M  V30 5 C 0.0 -0.5 0.0 0
M  V30 6 C 0.866 -2.0 0.0 0
M  V30 7 C 2.598 -1.9999 0.0 0
M  V30 8 C -0.866 0.0 0.0 0
M  V30 9 C 0.0 -1.4999 0.0 0
M  V30 10 C 0.866 -3.0 0.0 0
M  V30 11 C 2.598 -3.0 0.0 0
M  V30 12 C -1.732 -0.4999 0.0 0
M  V30 13 C -0.866 -1.9999 0.0 0
M  V30 14 O 0.0 -3.5 0.0 0
M  V30 15 C 1.732 -3.5 0.0 0
M  V30 16 N -1.732 -1.4999 0.0 0
M  V30 17 C 0.0 -4.5 0.0 0
M  V30 18 N 1.732 -4.5 0.0 0
M  V30 19 C -2.598 -1.9999 0.0 0
M  V30 20 C 2.598 -5.0 0.0 0
M  V30 21 N 2.598 -6.0 0.0 0
M  V30 22 N 3.4641 -4.5 0.0 0
M  V30 23 C 3.4641 -6.5 0.0 0
M  V30 24 C 4.3301 -5.0 0.0 0
M  V30 25 N 3.4641 -7.5 0.0 0
M  V30 26 C 4.3301 -6.0 0.0 0
M  V30 27 C 4.3301 -8.0 0.0 0 CFG=1
M  V30 28 C 2.598 -8.0 0.0 0
M  V30 29 N 5.1961 -6.5 0.0 0
M  V30 30 C 5.1961 -7.5 0.0 0
M  V30 31 C 4.3301 -9.0 0.0 0
M  V30 32 C 2.598 -9.0 0.0 0
M  V30 33 C 6.1472 -6.1909 0.0 0
M  V30 34 N 6.1472 -7.809 0.0 0
M  V30 35 C 5.1961 -9.5 0.0 0
M  V30 36 C 1.732 -9.5 0.0 0
M  V30 37 C 3.4641 -9.5 0.0 0
M  V30 38 N 6.7349 -7.0 0.0 0
M  V30 39 C 6.4562 -5.2399 0.0 0
M  V30 40 C 1.732 -10.5 0.0 0
M  V30 41 C 3.4641 -10.5 0.0 0
M  V30 42 C 2.598 -11.0 0.0 0
M  V30 END ATOM
M  V30 BEGIN BOND
M  V30 1 2 1 2
M  V30 2 1 2 3
M  V30 3 1 2 4
M  V30 4 1 3 5
M  V30 5 2 4 6
M  V30 6 1 4 7
M  V30 7 1 5 8
M  V30 8 1 5 9
M  V30 9 1 6 10
M  V30 10 2 7 11
M  V30 11 1 8 12
M  V30 12 1 9 13
M  V30 13 1 10 14
M  V30 14 2 10 15
M  V30 15 1 12 16
M  V30 16 1 14 17
M  V30 17 1 15 18
M  V30 18 1 16 19
M  V30 19 1 18 20
M  V30 20 2 20 21
M  V30 21 1 20 22
M  V30 22 1 21 23
M  V30 23 2 22 24
M  V30 24 1 23 25
M  V30 25 2 23 26
M  V30 26 1 27 25
M  V30 27 1 25 28
M  V30 28 1 26 29
M  V30 29 1 27 30
M  V30 30 1 27 31 CFG=1
M  V30 31 1 28 32
M  V30 32 1 29 33
M  V30 33 2 30 34
M  V30 34 1 31 35
M  V30 35 1 32 36
M  V30 36 1 32 37
M  V30 37 2 33 38
M  V30 38 1 33 39
M  V30 39 1 36 40
M  V30 40 1 37 41
M  V30 41 1 40 42
M  V30 42 1 11 15
M  V30 43 1 13 16
M  V30 44 1 24 26
M  V30 45 1 29 30
M  V30 46 1 34 38
M  V30 47 1 41 42
M  V30 END BOND
M  V30 BEGIN COLLECTION
M  V30 MDLV30/STEABS ATOMS=(1 27)
M  V30 END COLLECTION
M  V30 END CTAB
M  END
>  <Molecule Name>
Compound 1035

>  <Molecule Name 2>
Compound 1035

>  <Compound ID>
309

>  <Name>
WNY0824

>  <Uniprot>
O60885

>  <Target>
BRD4

>  <Smiles>
CC[C@@H]1C2=NN=C(C)N2C2=CN=C(NC3=CC=C(C(=O)NC4CCN(C)CC4)C=C3OC)N=C2N1CC1CCCCC1

>  <Kd (nM)>


>  <Assay (Kd)>


>  <Ki (nM)>


>  <Assay (Ki)>


>  <IC50 (nM)>
22

>  <Assay (IC50)>
IC50 was assessed by alpha-screen assay

>  <EC50 (nM)>


>  <Assay (EC50)>


>  <Article DOI>
10.1016/j.ejmech.2020.112152

>  <Molecular Weight>
573.746

>  <Exact Mass>
573.3539716

>  <XLogP3>
4.84

>  <Heavy Atom Count>
42

>  <Ring Count>
6

>  <Hydrogen Bond Acceptor Count>
10

>  <Hydrogen Bond Donor Count>
2

>  <Rotatable Bond Count>
8

>  <Topological Polar Surface Area>
113.33

>  <Molecular Formula>
C31H43N9O2

>  <InChI>
InChI=1S/C31H43N9O2/c1-5-25-29-37-36-20(2)40(29)26-18-32-31(35-28(26)39(25)19-21-9-7-6-8-10-21)34-24-12-11-22(17-27(24)42-4)30(41)33-23-13-15-38(3)16-14-23/h11-12,17-18,21,23,25H,5-10,13-16,19H2,1-4H3,(H,33,41)(H,32,34,35)/t25-/m1/s1

>  <InChI Key>
QUMCIHKVKQYNPA-RUZDIDTESA-N

>  <BindingDB>
50551271

>  <PubChem>
156775102

>  <ChEMBL>
CHEMBL4747491

$$$$
310
Actelion Java MolfileCreator 2.0

  0  0  0  0  0  0              0 V3000
M  V30 BEGIN CTAB
M  V30 COUNTS 22 24 0 0 0
M  V30 BEGIN ATOM
M  V30 1 Cl 4.962 -1.3716 0.0 0
M  V30 2 C 4.2928 -0.6284 0.0 0
M  V30 3 N 4.6018 0.3225 0.0 0
M  V30 4 C 3.3147 -0.8364 0.0 0
M  V30 5 C 3.9327 1.0657 0.0 0
M  V30 6 N 2.8147 -1.7024 0.0 0
M  V30 7 C 2.6455 -0.0932 0.0 0
M  V30 8 N 2.9546 0.8577 0.0 0
M  V30 9 N 4.2417 2.0167 0.0 0
M  V30 10 C 1.8365 -1.4945 0.0 0
M  V30 11 N 1.732 -0.5 0.0 0
M  V30 12 C 0.866 0.0 0.0 0
M  V30 13 C 0.0 -0.5 0.0 0
M  V30 14 N -0.866 0.0 0.0 0
M  V30 15 C 0.0 -1.4999 0.0 0
M  V30 16 C -1.732 -0.4999 0.0 0
M  V30 17 C -0.866 -1.9999 0.0 0
M  V30 18 C 0.866 -2.0 0.0 0
M  V30 19 C -1.732 -1.4999 0.0 0
M  V30 20 O -0.866 -2.9999 0.0 0
M  V30 21 C -2.598 -1.9999 0.0 0
M  V30 22 C 0.0 -3.4999 0.0 0
M  V30 END ATOM
M  V30 BEGIN BOND
M  V30 1 1 1 2
M  V30 2 2 2 3
M  V30 3 1 2 4
M  V30 4 1 3 5
M  V30 5 1 4 6
M  V30 6 2 4 7
M  V30 7 2 5 8
M  V30 8 1 5 9
M  V30 9 2 6 10
M  V30 10 1 7 11
M  V30 11 1 11 12
M  V30 12 1 12 13
M  V30 13 2 13 14
M  V30 14 1 13 15
M  V30 15 1 14 16
M  V30 16 2 15 17
M  V30 17 1 15 18
M  V30 18 2 16 19
M  V30 19 1 17 20
M  V30 20 1 19 21
M  V30 21 1 20 22
M  V30 22 1 7 8
M  V30 23 1 10 11
M  V30 24 1 17 19
M  V30 END BOND
M  V30 END CTAB
M  END
>  <Molecule Name>
Compound 1036

>  <Molecule Name 2>
Compound 1036

>  <Compound ID>
310

>  <Name>
BIIB021

>  <Uniprot>


>  <Target>
HSP90

>  <Smiles>
COC1=C(C)C=NC(CN2C=NC3=C(Cl)N=C(N)N=C32)=C1C

>  <Kd (nM)>


>  <Assay (Kd)>


>  <Ki (nM)>
1.7

>  <Assay (Ki)>
FP

>  <IC50 (nM)>


>  <Assay (IC50)>


>  <EC50 (nM)>


>  <Assay (EC50)>


>  <Article DOI>
10.1021/acs.jmedchem.9b02038

>  <Molecular Weight>
318.768

>  <Exact Mass>
318.0995868

>  <XLogP3>
1.93

>  <Heavy Atom Count>
22

>  <Ring Count>
3

>  <Hydrogen Bond Acceptor Count>
7

>  <Hydrogen Bond Donor Count>
1

>  <Rotatable Bond Count>
3

>  <Topological Polar Surface Area>
91.74

>  <Molecular Formula>
C14H15ClN6O

>  <InChI>
InChI=1S/C14H15ClN6O/c1-7-4-17-9(8(2)11(7)22-3)5-21-6-18-10-12(15)19-14(16)20-13(10)21/h4,6H,5H2,1-3H3,(H2,16,19,20)

>  <InChI Key>
QULDDKSCVCJTPV-UHFFFAOYSA-N

>  <BindingDB>
20800

>  <PubChem>
16736529

>  <ChEMBL>
CHEMBL467399

$$$$
311
Actelion Java MolfileCreator 2.0

  0  0  0  0  0  0              0 V3000
M  V30 BEGIN CTAB
M  V30 COUNTS 38 42 0 0 0
M  V30 BEGIN ATOM
M  V30 1 F 7.7942 0.9999 0.0 0
M  V30 2 C 7.7942 0.0 0.0 0
M  V30 3 C 6.9282 -0.5 0.0 0
M  V30 4 C 8.6602 -0.4999 0.0 0
M  V30 5 O 6.0621 0.0 0.0 0
M  V30 6 C 6.9282 -1.5 0.0 0
M  V30 7 C 8.6602 -1.4999 0.0 0
M  V30 8 C 5.1961 -0.5 0.0 0
M  V30 9 C 7.7942 -1.9999 0.0 0
M  V30 10 N 9.4033 -2.1691 0.0 0
M  V30 11 C 4.3301 0.0 0.0 0
M  V30 12 N 8.0021 -2.9781 0.0 0
M  V30 13 C 8.9966 -3.0826 0.0 0
M  V30 14 O 3.4641 -0.5 0.0 0
M  V30 15 C 9.4966 -3.9487 0.0 0
M  V30 16 C 2.598 0.0 0.0 0
M  V30 17 N 8.9966 -4.8147 0.0 0
M  V30 18 C 1.732 -0.5 0.0 0
M  V30 19 C 9.4966 -5.6807 0.0 0
M  V30 20 O 0.866 0.0 0.0 0
M  V30 21 N 10.4966 -5.6807 0.0 0
M  V30 22 C 8.9966 -6.5467 0.0 0
M  V30 23 C 0.0 -0.5 0.0 0
M  V30 24 C 10.9966 -6.5467 0.0 0
M  V30 25 N 8.0185 -6.7546 0.0 0
M  V30 26 C 9.4966 -7.4128 0.0 0
M  V30 27 N 10.4966 -7.4128 0.0 0
M  V30 28 N 11.9966 -6.5467 0.0 0
M  V30 29 C 7.9139 -7.7492 0.0 0
M  V30 30 N 8.8275 -8.1559 0.0 0
M  V30 31 C 12.4966 -7.4128 0.0 0
M  V30 32 C 12.4966 -5.6807 0.0 0
M  V30 33 C 9.0354 -9.134 0.0 0
M  V30 34 C 13.4966 -7.4128 0.0 0
M  V30 35 C 13.4966 -5.6807 0.0 0
M  V30 36 C 8.2922 -9.8032 0.0 0
M  V30 37 C 9.9864 -9.4431 0.0 0
M  V30 38 O 13.9966 -6.5467 0.0 0
M  V30 END ATOM
M  V30 BEGIN BOND
M  V30 1 1 1 2
M  V30 2 2 2 3
M  V30 3 1 2 4
M  V30 4 1 3 5
M  V30 5 1 3 6
M  V30 6 2 4 7
M  V30 7 1 5 8
M  V30 8 2 6 9
M  V30 9 1 7 10
M  V30 10 1 8 11
M  V30 11 1 9 12
M  V30 12 2 10 13
M  V30 13 1 11 14
M  V30 14 1 13 15
M  V30 15 1 14 16
M  V30 16 1 15 17
M  V30 17 1 16 18
M  V30 18 1 17 19
M  V30 19 1 18 20
M  V30 20 2 19 21
M  V30 21 1 19 22
M  V30 22 1 20 23
M  V30 23 1 21 24
M  V30 24 1 22 25
M  V30 25 2 22 26
M  V30 26 2 24 27
M  V30 27 1 24 28
M  V30 28 2 25 29
M  V30 29 1 26 30
M  V30 30 1 28 31
M  V30 31 1 28 32
M  V30 32 1 30 33
M  V30 33 1 31 34
M  V30 34 1 32 35
M  V30 35 1 33 36
M  V30 36 1 33 37
M  V30 37 1 34 38
M  V30 38 1 7 9
M  V30 39 1 12 13
M  V30 40 1 26 27
M  V30 41 1 29 30
M  V30 42 1 35 38
M  V30 END BOND
M  V30 END CTAB
M  END
>  <Molecule Name>
Compound 1037

>  <Molecule Name 2>
Compound 1037

>  <Compound ID>
311

>  <Name>


>  <Uniprot>
Q9NYV4

>  <Target>
CDK12

>  <Smiles>
COCCOCCOC1=CC2=C(C=C1F)N=C(CNC1=NC(N3CCOCC3)=NC3=C1N=CN3C(C)C)[NH]2

>  <Kd (nM)>


>  <Assay (Kd)>


>  <Ki (nM)>


>  <Assay (Ki)>


>  <IC50 (nM)>
236.9

>  <Assay (IC50)>
Inhibition of CDK12/cyclinK

>  <EC50 (nM)>


>  <Assay (EC50)>


>  <Article DOI>
10.1016/j.ejmech.2021.114012

>  <Molecular Weight>
528.589

>  <Exact Mass>
528.2608798

>  <XLogP3>
2.03

>  <Heavy Atom Count>
38

>  <Ring Count>
5

>  <Hydrogen Bond Acceptor Count>
11

>  <Hydrogen Bond Donor Count>
2

>  <Rotatable Bond Count>
12

>  <Topological Polar Surface Area>
124.47

>  <Molecular Formula>
C25H33FN8O4

>  <InChI>
InChI=1S/C25H33FN8O4/c1-16(2)34-15-28-22-23(31-25(32-24(22)34)33-4-6-36-7-5-33)27-14-21-29-18-12-17(26)20(13-19(18)30-21)38-11-10-37-9-8-35-3/h12-13,15-16H,4-11,14H2,1-3H3,(H,29,30)(H,27,31,32)

>  <InChI Key>
KHWWVAVHHRPPQY-UHFFFAOYSA-N

>  <BindingDB>


>  <PubChem>


>  <ChEMBL>


$$$$
312
Actelion Java MolfileCreator 2.0

  0  0  0  0  0  0              0 V3000
M  V30 BEGIN CTAB
M  V30 COUNTS 25 27 0 0 0
M  V30 BEGIN ATOM
M  V30 1 Cl 1.9122 -2.2147 0.0 0
M  V30 2 C 2.8633 -2.5237 0.0 0
M  V30 3 C 3.0712 -3.5019 0.0 0
M  V30 4 C 3.6064 -1.8546 0.0 0
M  V30 5 O 2.3281 -4.171 0.0 0
M  V30 6 C 4.0223 -3.8109 0.0 0
M  V30 7 C 4.5575 -2.1636 0.0 0
M  V30 8 C 2.536 -5.1491 0.0 0
M  V30 9 C 4.7654 -3.1418 0.0 0
M  V30 10 C 5.3006 -1.4945 0.0 0
M  V30 11 O 6.2788 -1.7024 0.0 0
M  V30 12 C 5.1961 -0.5 0.0 0
M  V30 13 C 6.7788 -0.8364 0.0 0
M  V30 14 N 6.1096 -0.0932 0.0 0
M  V30 15 C 4.3301 0.0 0.0 0
M  V30 16 O 4.3301 1.0 0.0 0
M  V30 17 N 3.4641 -0.5 0.0 0
M  V30 18 C 2.598 0.0 0.0 0
M  V30 19 C 1.732 -0.5 0.0 0
M  V30 20 C 0.866 0.0 0.0 0
M  V30 21 N 0.0 -0.5 0.0 0
M  V30 22 N -0.9135 -0.0932 0.0 0
M  V30 23 C -0.1045 -1.4945 0.0 0
M  V30 24 C -1.5826 -0.8364 0.0 0
M  V30 25 N -1.0826 -1.7024 0.0 0
M  V30 END ATOM
M  V30 BEGIN BOND
M  V30 1 1 1 2
M  V30 2 2 2 3
M  V30 3 1 2 4
M  V30 4 1 3 5
M  V30 5 1 3 6
M  V30 6 2 4 7
M  V30 7 1 5 8
M  V30 8 2 6 9
M  V30 9 1 7 10
M  V30 10 1 10 11
M  V30 11 2 10 12
M  V30 12 1 11 13
M  V30 13 1 12 14
M  V30 14 1 12 15
M  V30 15 2 15 16
M  V30 16 1 15 17
M  V30 17 1 17 18
M  V30 18 1 18 19
M  V30 19 1 19 20
M  V30 20 1 20 21
M  V30 21 1 21 22
M  V30 22 1 21 23
M  V30 23 2 22 24
M  V30 24 2 23 25
M  V30 25 1 7 9
M  V30 26 2 13 14
M  V30 27 1 24 25
M  V30 END BOND
M  V30 END CTAB
M  END
>  <Molecule Name>
Compound 1038

>  <Molecule Name 2>
Compound 1038

>  <Compound ID>
312

>  <Name>
PF-367

>  <Uniprot>
P49840

>  <Target>
GSK3A

>  <Smiles>
COC1=CC=C(C2=C(C(=O)NCCCN3C=NC=N3)N=CO2)C=C1Cl

>  <Kd (nM)>


>  <Assay (Kd)>


>  <Ki (nM)>


>  <Assay (Ki)>


>  <IC50 (nM)>
10

>  <Assay (IC50)>
IC50 was assessed by mobility shift assays

>  <EC50 (nM)>


>  <Assay (EC50)>


>  <Article DOI>
10.1002/anie.201603797

>  <Molecular Weight>
361.789

>  <Exact Mass>
361.0941671

>  <XLogP3>
2.28

>  <Heavy Atom Count>
25

>  <Ring Count>
3

>  <Hydrogen Bond Acceptor Count>
7

>  <Hydrogen Bond Donor Count>
1

>  <Rotatable Bond Count>
7

>  <Topological Polar Surface Area>
95.07

>  <Molecular Formula>
C16H16ClN5O3

>  <InChI>
InChI=1S/C16H16ClN5O3/c1-24-13-4-3-11(7-12(13)17)15-14(20-10-25-15)16(23)19-5-2-6-22-9-18-8-21-22/h3-4,7-10H,2,5-6H2,1H3,(H,19,23)

>  <InChI Key>
RQFYFNAGNBUGFC-UHFFFAOYSA-N

>  <BindingDB>


>  <PubChem>
60148521

>  <ChEMBL>


$$$$
312
Actelion Java MolfileCreator 2.0

  0  0  0  0  0  0              0 V3000
M  V30 BEGIN CTAB
M  V30 COUNTS 25 27 0 0 0
M  V30 BEGIN ATOM
M  V30 1 Cl 1.9122 -2.2147 0.0 0
M  V30 2 C 2.8633 -2.5237 0.0 0
M  V30 3 C 3.0712 -3.5019 0.0 0
M  V30 4 C 3.6064 -1.8546 0.0 0
M  V30 5 O 2.3281 -4.171 0.0 0
M  V30 6 C 4.0223 -3.8109 0.0 0
M  V30 7 C 4.5575 -2.1636 0.0 0
M  V30 8 C 2.536 -5.1491 0.0 0
M  V30 9 C 4.7654 -3.1418 0.0 0
M  V30 10 C 5.3006 -1.4945 0.0 0
M  V30 11 O 6.2788 -1.7024 0.0 0
M  V30 12 C 5.1961 -0.5 0.0 0
M  V30 13 C 6.7788 -0.8364 0.0 0
M  V30 14 N 6.1096 -0.0932 0.0 0
M  V30 15 C 4.3301 0.0 0.0 0
M  V30 16 O 4.3301 1.0 0.0 0
M  V30 17 N 3.4641 -0.5 0.0 0
M  V30 18 C 2.598 0.0 0.0 0
M  V30 19 C 1.732 -0.5 0.0 0
M  V30 20 C 0.866 0.0 0.0 0
M  V30 21 N 0.0 -0.5 0.0 0
M  V30 22 N -0.9135 -0.0932 0.0 0
M  V30 23 C -0.1045 -1.4945 0.0 0
M  V30 24 C -1.5826 -0.8364 0.0 0
M  V30 25 N -1.0826 -1.7024 0.0 0
M  V30 END ATOM
M  V30 BEGIN BOND
M  V30 1 1 1 2
M  V30 2 2 2 3
M  V30 3 1 2 4
M  V30 4 1 3 5
M  V30 5 1 3 6
M  V30 6 2 4 7
M  V30 7 1 5 8
M  V30 8 2 6 9
M  V30 9 1 7 10
M  V30 10 1 10 11
M  V30 11 2 10 12
M  V30 12 1 11 13
M  V30 13 1 12 14
M  V30 14 1 12 15
M  V30 15 2 15 16
M  V30 16 1 15 17
M  V30 17 1 17 18
M  V30 18 1 18 19
M  V30 19 1 19 20
M  V30 20 1 20 21
M  V30 21 1 21 22
M  V30 22 1 21 23
M  V30 23 2 22 24
M  V30 24 2 23 25
M  V30 25 1 7 9
M  V30 26 2 13 14
M  V30 27 1 24 25
M  V30 END BOND
M  V30 END CTAB
M  END
>  <Molecule Name>
Compound 1039

>  <Molecule Name 2>
Compound 1039

>  <Compound ID>
312

>  <Name>
PF-367

>  <Uniprot>
P49841

>  <Target>
GSK-3beta

>  <Smiles>
COC1=CC=C(C2=C(C(=O)NCCCN3C=NC=N3)N=CO2)C=C1Cl

>  <Kd (nM)>


>  <Assay (Kd)>


>  <Ki (nM)>


>  <Assay (Ki)>


>  <IC50 (nM)>
9

>  <Assay (IC50)>
IC50 was assessed by mobility shift assays

>  <EC50 (nM)>


>  <Assay (EC50)>


>  <Article DOI>
10.1002/anie.201603797

>  <Molecular Weight>
361.789

>  <Exact Mass>
361.0941671

>  <XLogP3>
2.28

>  <Heavy Atom Count>
25

>  <Ring Count>
3

>  <Hydrogen Bond Acceptor Count>
7

>  <Hydrogen Bond Donor Count>
1

>  <Rotatable Bond Count>
7

>  <Topological Polar Surface Area>
95.07

>  <Molecular Formula>
C16H16ClN5O3

>  <InChI>
InChI=1S/C16H16ClN5O3/c1-24-13-4-3-11(7-12(13)17)15-14(20-10-25-15)16(23)19-5-2-6-22-9-18-8-21-22/h3-4,7-10H,2,5-6H2,1H3,(H,19,23)

>  <InChI Key>
RQFYFNAGNBUGFC-UHFFFAOYSA-N

>  <BindingDB>


>  <PubChem>
60148521

>  <ChEMBL>


$$$$
313
Actelion Java MolfileCreator 2.0

  0  0  0  0  0  0              0 V3000
M  V30 BEGIN CTAB
M  V30 COUNTS 32 35 0 0 0
M  V30 BEGIN ATOM
M  V30 1 S 5.1961 8.25 0.0 0
M  V30 2 O 4.4461 9.549 0.0 0
M  V30 3 O 3.6961 8.2499 0.0 0
M  V30 4 N 6.4951 9.0 0.0 0
M  V30 5 C 5.1961 6.75 0.0 0
M  V30 6 C 7.7942 8.25 0.0 0
M  V30 7 C 6.4951 10.5 0.0 0
M  V30 8 C 3.8971 6.0 0.0 0
M  V30 9 C 6.4951 6.0 0.0 0
M  V30 10 C 9.0932 9.0 0.0 0
M  V30 11 C 7.7942 11.25 0.0 0
M  V30 12 C 3.8971 4.5 0.0 0
M  V30 13 C 6.4951 4.5 0.0 0
M  V30 14 N 9.0932 10.5 0.0 0
M  V30 15 C 5.1961 3.75 0.0 0
M  V30 16 C 10.3923 11.25 0.0 0
M  V30 17 C 5.1961 2.25 0.0 0
M  V30 18 N 3.8971 1.5 0.0 0
M  V30 19 C 6.4951 1.5 0.0 0
M  V30 20 C 3.8971 0.0 0.0 0
M  V30 21 N 6.4951 0.0 0.0 0
M  V30 22 C 5.1961 -0.75 0.0 0
M  V30 23 C 2.598 -0.75 0.0 0
M  V30 24 N 5.1961 -2.25 0.0 0
M  V30 25 O 2.598 -2.25 0.0 0
M  V30 26 N 1.299 0.0 0.0 0
M  V30 27 C 0.0 -0.75 0.0 0
M  V30 28 C -1.299 0.0 0.0 0
M  V30 29 C 0.0 -2.25 0.0 0
M  V30 30 N -2.598 -0.75 0.0 0
M  V30 31 C -1.299 -3.0 0.0 0
M  V30 32 C -2.598 -2.25 0.0 0
M  V30 END ATOM
M  V30 BEGIN BOND
M  V30 1 2 1 2
M  V30 2 2 1 3
M  V30 3 1 1 4
M  V30 4 1 1 5
M  V30 5 1 4 6
M  V30 6 1 4 7
M  V30 7 2 5 8
M  V30 8 1 5 9
M  V30 9 1 6 10
M  V30 10 1 7 11
M  V30 11 1 8 12
M  V30 12 2 9 13
M  V30 13 1 10 14
M  V30 14 2 12 15
M  V30 15 1 14 16
M  V30 16 1 15 17
M  V30 17 2 17 18
M  V30 18 1 17 19
M  V30 19 1 18 20
M  V30 20 2 19 21
M  V30 21 2 20 22
M  V30 22 1 20 23
M  V30 23 1 22 24
M  V30 24 2 23 25
M  V30 25 1 23 26
M  V30 26 1 26 27
M  V30 27 2 27 28
M  V30 28 1 27 29
M  V30 29 1 28 30
M  V30 30 2 29 31
M  V30 31 2 30 32
M  V30 32 1 11 14
M  V30 33 1 13 15
M  V30 34 1 21 22
M  V30 35 1 31 32
M  V30 END BOND
M  V30 END CTAB
M  END
>  <Molecule Name>
Compound 1040

>  <Molecule Name 2>
Compound 1040

>  <Compound ID>
313

>  <Name>
AZD2858

>  <Uniprot>
P49840

>  <Target>
GSK3A

>  <Smiles>
CN1CCN(S(=O)(=O)C2=CC=C(C3=CN=C(N)C(C(=O)NC4=CC=CN=C4)=N3)C=C2)CC1

>  <Kd (nM)>


>  <Assay (Kd)>


>  <Ki (nM)>


>  <Assay (Ki)>


>  <IC50 (nM)>


>  <Assay (IC50)>


>  <EC50 (nM)>


>  <Assay (EC50)>


>  <Article DOI>
10.1016/j.ejmech.2021.113889

>  <Molecular Weight>
453.528

>  <Exact Mass>
453.1583086

>  <XLogP3>
0.71

>  <Heavy Atom Count>
32

>  <Ring Count>
4

>  <Hydrogen Bond Acceptor Count>
8

>  <Hydrogen Bond Donor Count>
2

>  <Rotatable Bond Count>
5

>  <Topological Polar Surface Area>
134.41

>  <Molecular Formula>
C21H23N7O3S

>  <InChI>
InChI=1S/C21H23N7O3S/c1-27-9-11-28(12-10-27)32(30,31)17-6-4-15(5-7-17)18-14-24-20(22)19(26-18)21(29)25-16-3-2-8-23-13-16/h2-8,13-14H,9-12H2,1H3,(H2,22,24)(H,25,29)

>  <InChI Key>
FHCSBLWRGCOVPT-UHFFFAOYSA-N

>  <BindingDB>
50397745

>  <PubChem>
10138980

>  <ChEMBL>
CHEMBL2177161

$$$$
313
Actelion Java MolfileCreator 2.0

  0  0  0  0  0  0              0 V3000
M  V30 BEGIN CTAB
M  V30 COUNTS 32 35 0 0 0
M  V30 BEGIN ATOM
M  V30 1 S 5.1961 8.25 0.0 0
M  V30 2 O 4.4461 9.549 0.0 0
M  V30 3 O 3.6961 8.2499 0.0 0
M  V30 4 N 6.4951 9.0 0.0 0
M  V30 5 C 5.1961 6.75 0.0 0
M  V30 6 C 7.7942 8.25 0.0 0
M  V30 7 C 6.4951 10.5 0.0 0
M  V30 8 C 3.8971 6.0 0.0 0
M  V30 9 C 6.4951 6.0 0.0 0
M  V30 10 C 9.0932 9.0 0.0 0
M  V30 11 C 7.7942 11.25 0.0 0
M  V30 12 C 3.8971 4.5 0.0 0
M  V30 13 C 6.4951 4.5 0.0 0
M  V30 14 N 9.0932 10.5 0.0 0
M  V30 15 C 5.1961 3.75 0.0 0
M  V30 16 C 10.3923 11.25 0.0 0
M  V30 17 C 5.1961 2.25 0.0 0
M  V30 18 N 3.8971 1.5 0.0 0
M  V30 19 C 6.4951 1.5 0.0 0
M  V30 20 C 3.8971 0.0 0.0 0
M  V30 21 N 6.4951 0.0 0.0 0
M  V30 22 C 5.1961 -0.75 0.0 0
M  V30 23 C 2.598 -0.75 0.0 0
M  V30 24 N 5.1961 -2.25 0.0 0
M  V30 25 O 2.598 -2.25 0.0 0
M  V30 26 N 1.299 0.0 0.0 0
M  V30 27 C 0.0 -0.75 0.0 0
M  V30 28 C -1.299 0.0 0.0 0
M  V30 29 C 0.0 -2.25 0.0 0
M  V30 30 N -2.598 -0.75 0.0 0
M  V30 31 C -1.299 -3.0 0.0 0
M  V30 32 C -2.598 -2.25 0.0 0
M  V30 END ATOM
M  V30 BEGIN BOND
M  V30 1 2 1 2
M  V30 2 2 1 3
M  V30 3 1 1 4
M  V30 4 1 1 5
M  V30 5 1 4 6
M  V30 6 1 4 7
M  V30 7 2 5 8
M  V30 8 1 5 9
M  V30 9 1 6 10
M  V30 10 1 7 11
M  V30 11 1 8 12
M  V30 12 2 9 13
M  V30 13 1 10 14
M  V30 14 2 12 15
M  V30 15 1 14 16
M  V30 16 1 15 17
M  V30 17 2 17 18
M  V30 18 1 17 19
M  V30 19 1 18 20
M  V30 20 2 19 21
M  V30 21 2 20 22
M  V30 22 1 20 23
M  V30 23 1 22 24
M  V30 24 2 23 25
M  V30 25 1 23 26
M  V30 26 1 26 27
M  V30 27 2 27 28
M  V30 28 1 27 29
M  V30 29 1 28 30
M  V30 30 2 29 31
M  V30 31 2 30 32
M  V30 32 1 11 14
M  V30 33 1 13 15
M  V30 34 1 21 22
M  V30 35 1 31 32
M  V30 END BOND
M  V30 END CTAB
M  END
>  <Molecule Name>
Compound 1041

>  <Molecule Name 2>
Compound 1041

>  <Compound ID>
313

>  <Name>
AZD2858

>  <Uniprot>
P49841

>  <Target>
GSK-3beta

>  <Smiles>
CN1CCN(S(=O)(=O)C2=CC=C(C3=CN=C(N)C(C(=O)NC4=CC=CN=C4)=N3)C=C2)CC1

>  <Kd (nM)>
6.41

>  <Assay (Kd)>
SPR

>  <Ki (nM)>


>  <Assay (Ki)>


>  <IC50 (nM)>


>  <Assay (IC50)>


>  <EC50 (nM)>


>  <Assay (EC50)>


>  <Article DOI>
10.1016/j.ejmech.2021.113889

>  <Molecular Weight>
453.528

>  <Exact Mass>
453.1583086

>  <XLogP3>
0.71

>  <Heavy Atom Count>
32

>  <Ring Count>
4

>  <Hydrogen Bond Acceptor Count>
8

>  <Hydrogen Bond Donor Count>
2

>  <Rotatable Bond Count>
5

>  <Topological Polar Surface Area>
134.41

>  <Molecular Formula>
C21H23N7O3S

>  <InChI>
InChI=1S/C21H23N7O3S/c1-27-9-11-28(12-10-27)32(30,31)17-6-4-15(5-7-17)18-14-24-20(22)19(26-18)21(29)25-16-3-2-8-23-13-16/h2-8,13-14H,9-12H2,1H3,(H2,22,24)(H,25,29)

>  <InChI Key>
FHCSBLWRGCOVPT-UHFFFAOYSA-N

>  <BindingDB>
50397745

>  <PubChem>
10138980

>  <ChEMBL>
CHEMBL2177161

$$$$
314
Actelion Java MolfileCreator 2.0

  0  0  0  0  0  0              0 V3000
M  V30 BEGIN CTAB
M  V30 COUNTS 38 44 0 0 0
M  V30 BEGIN ATOM
M  V30 1 N 5.7105 0.2861 0.0 0
M  V30 2 N 4.7159 0.1816 0.0 0
M  V30 3 C 6.2982 -0.5228 0.0 0
M  V30 4 C 4.3092 -0.7318 0.0 0
M  V30 5 C 7.2661 -0.2712 0.0 0
M  V30 6 C 5.8915 -1.4363 0.0 0
M  V30 7 N 3.3147 -0.8364 0.0 0
M  V30 8 C 4.897 -1.5408 0.0 0
M  V30 9 C 8.0662 -0.871 0.0 0
M  V30 10 C 7.3855 0.7216 0.0 0
M  V30 11 C 6.3521 -2.3239 0.0 0
M  V30 12 N 2.6455 -0.0932 0.0 0
M  V30 13 C 2.8147 -1.7024 0.0 0
M  V30 14 C 8.9857 -0.478 0.0 0
M  V30 15 C 8.0961 -1.8706 0.0 0
M  V30 16 C 8.305 1.1146 0.0 0
M  V30 17 C 7.3333 -2.5172 0.0 0
M  V30 18 C 1.732 -0.5 0.0 0
M  V30 19 N 1.8365 -1.4945 0.0 0
M  V30 20 N 3.2214 -2.6159 0.0 0
M  V30 21 C 9.1051 0.5148 0.0 0
M  V30 22 N 0.866 0.0 0.0 0
M  V30 23 C 0.0 -0.5 0.0 0
M  V30 24 C -0.866 0.0 0.0 0
M  V30 25 C 0.0 -1.4999 0.0 0
M  V30 26 C -1.732 -0.4999 0.0 0
M  V30 27 C -0.866 -1.9999 0.0 0
M  V30 28 C -1.732 -1.4999 0.0 0
M  V30 29 C -2.5138 0.1234 0.0 0
M  V30 30 C -2.5138 -2.1234 0.0 0
M  V30 31 C -3.4888 -0.099 0.0 0
M  V30 32 C -3.4888 -1.9009 0.0 0
M  V30 33 C -3.9226 -0.9999 0.0 0 CFG=2
M  V30 34 N -4.9226 -0.9999 0.0 0
M  V30 35 C -5.5104 -0.1909 0.0 0
M  V30 36 C -5.5104 -1.809 0.0 0
M  V30 37 C -6.4615 -0.4999 0.0 0
M  V30 38 C -6.4615 -1.4999 0.0 0
M  V30 END ATOM
M  V30 BEGIN BOND
M  V30 1 2 1 2
M  V30 2 1 1 3
M  V30 3 1 2 4
M  V30 4 1 3 5
M  V30 5 2 3 6
M  V30 6 1 4 7
M  V30 7 2 4 8
M  V30 8 2 5 9
M  V30 9 1 5 10
M  V30 10 1 6 11
M  V30 11 1 7 12
M  V30 12 1 7 13
M  V30 13 1 9 14
M  V30 14 1 9 15
M  V30 15 2 10 16
M  V30 16 1 11 17
M  V30 17 2 12 18
M  V30 18 2 13 19
M  V30 19 1 13 20
M  V30 20 2 14 21
M  V30 21 1 18 22
M  V30 22 1 22 23
M  V30 23 2 23 24
M  V30 24 1 23 25
M  V30 25 1 24 26
M  V30 26 2 25 27
M  V30 27 2 26 28
M  V30 28 1 26 29
M  V30 29 1 28 30
M  V30 30 1 29 31
M  V30 31 1 30 32
M  V30 32 1 33 31
M  V30 33 1 33 34 CFG=3
M  V30 34 1 34 35
M  V30 35 1 34 36
M  V30 36 1 35 37
M  V30 37 1 36 38
M  V30 38 1 6 8
M  V30 39 1 15 17
M  V30 40 1 16 21
M  V30 41 1 18 19
M  V30 42 1 27 28
M  V30 43 1 32 33
M  V30 44 1 37 38
M  V30 END BOND
M  V30 BEGIN COLLECTION
M  V30 MDLV30/STEABS ATOMS=(1 33)
M  V30 END COLLECTION
M  V30 END CTAB
M  END
>  <Molecule Name>
Compound 1042

>  <Molecule Name 2>
Compound 1042

>  <Compound ID>
314

>  <Name>
R428

>  <Uniprot>
P30530

>  <Target>
AXL

>  <Smiles>
NC1=NC(NC2=CC=C3CC[C@H](N4CCCC4)CCC3=C2)=NN1C1=CC2=C(N=N1)C1=CC=CC=C1CCC2

>  <Kd (nM)>


>  <Assay (Kd)>


>  <Ki (nM)>


>  <Assay (Ki)>


>  <IC50 (nM)>
650

>  <Assay (IC50)>
IC50 was assessed by the HTRF assay

>  <EC50 (nM)>


>  <Assay (EC50)>


>  <Article DOI>
10.1016/j.ejmech.2022.114253

>  <Molecular Weight>
506.658

>  <Exact Mass>
506.2906431

>  <XLogP3>
5.55

>  <Heavy Atom Count>
38

>  <Ring Count>
7

>  <Hydrogen Bond Acceptor Count>
8

>  <Hydrogen Bond Donor Count>
2

>  <Rotatable Bond Count>
4

>  <Topological Polar Surface Area>
97.78

>  <Molecular Formula>
C30H34N8

>  <InChI>
InChI=1S/C30H34N8/c31-29-33-30(32-24-13-10-20-11-14-25(15-12-22(20)18-24)37-16-3-4-17-37)36-38(29)27-19-23-8-5-7-21-6-1-2-9-26(21)28(23)35-34-27/h1-2,6,9-10,13,18-19,25H,3-5,7-8,11-12,14-17H2,(H3,31,32,33,36)/t25-/m0/s1

>  <InChI Key>
KXMZDGSRSGHMMK-VWLOTQADSA-N

>  <BindingDB>
50172079

>  <PubChem>
46215462

>  <ChEMBL>
CHEMBL3809489

$$$$
315
Actelion Java MolfileCreator 2.0

  0  0  0  0  0  0              0 V3000
M  V30 BEGIN CTAB
M  V30 COUNTS 36 38 0 0 0
M  V30 BEGIN ATOM
M  V30 1 Cl -0.328 5.7347 0.0 0
M  V30 2 C 0.6772 4.6183 0.0 0
M  V30 3 C 2.1467 4.9306 0.0 0
M  V30 4 C 0.213 3.1895 0.0 0
M  V30 5 C 3.152 3.8142 0.0 0
M  V30 6 C 1.2182 2.073 0.0 0
M  V30 7 N 4.6543 3.8142 0.0 0
M  V30 8 C 2.6877 2.3854 0.0 0
M  V30 9 C 5.1186 2.3854 0.0 0
M  V30 10 C 3.9032 1.5023 0.0 0
M  V30 11 C 6.5474 1.9211 0.0 0
M  V30 12 C 3.9032 0.0 0.0 0 CFG=1
M  V30 13 O 6.9144 0.5212 0.0 0
M  V30 14 O 7.6639 2.9264 0.0 0
M  V30 15 N 5.2042 -0.7511 0.0 0
M  V30 16 C 2.6021 -0.7511 0.0 0
M  V30 17 C 9.0927 2.4621 0.0 0
M  V30 18 C 6.478 -0.0348 0.0 0
M  V30 19 C 5.2042 -2.2535 0.0 0
M  V30 20 O 2.6021 -2.2535 0.0 0
M  V30 21 N 1.301 0.0 0.0 0
M  V30 22 C 10.2092 3.4674 0.0 0
M  V30 23 O 7.8064 -0.7511 0.0 0
M  V30 24 C 6.5053 -3.0046 0.0 0
M  V30 25 C 0.0 -0.7511 0.0 0
M  V30 26 C 6.5053 -4.507 0.0 0
M  V30 27 C 7.8064 -2.2535 0.0 0
M  V30 28 C 0.7511 -2.0522 0.0 0
M  V30 29 C -1.301 -1.5023 0.0 0
M  V30 30 C -0.7511 0.5498 0.0 0
M  V30 31 C 7.8064 -5.2582 0.0 0
M  V30 32 C 9.1075 -3.0046 0.0 0
M  V30 33 F 7.8064 -6.7605 0.0 0
M  V30 34 C 9.1075 -4.507 0.0 0
M  V30 35 F 10.4085 -2.2535 0.0 0
M  V30 36 F 10.4085 -5.2582 0.0 0
M  V30 END ATOM
M  V30 BEGIN BOND
M  V30 1 1 1 2
M  V30 2 2 2 3
M  V30 3 1 2 4
M  V30 4 1 3 5
M  V30 5 2 4 6
M  V30 6 1 5 7
M  V30 7 2 5 8
M  V30 8 1 7 9
M  V30 9 1 8 10
M  V30 10 1 9 11
M  V30 11 1 12 10
M  V30 12 2 11 13
M  V30 13 1 11 14
M  V30 14 1 12 15 CFG=1
M  V30 15 1 12 16
M  V30 16 1 14 17
M  V30 17 1 15 18
M  V30 18 1 15 19
M  V30 19 2 16 20
M  V30 20 1 16 21
M  V30 21 1 17 22
M  V30 22 2 18 23
M  V30 23 1 19 24
M  V30 24 1 21 25
M  V30 25 2 24 26
M  V30 26 1 24 27
M  V30 27 1 25 28
M  V30 28 1 25 29
M  V30 29 1 25 30
M  V30 30 1 26 31
M  V30 31 2 27 32
M  V30 32 1 31 33
M  V30 33 2 31 34
M  V30 34 1 32 35
M  V30 35 1 34 36
M  V30 36 1 6 8
M  V30 37 2 9 10
M  V30 38 1 32 34
M  V30 END BOND
M  V30 BEGIN COLLECTION
M  V30 MDLV30/STERAC1 ATOMS=(1 12)
M  V30 END COLLECTION
M  V30 END CTAB
M  END
>  <Molecule Name>
Compound 1043

>  <Molecule Name 2>
Compound 1043

>  <Compound ID>
315

>  <Name>


>  <Uniprot>
Q00987

>  <Target>
MDM2

>  <Smiles>
CCOC(=O)C1=C(C(C(=O)NC(C)(C)C)N(C=O)CC2=CC(F)=C(F)C(F)=C2)C2=CC=C(Cl)C=C2[NH]1

>  <Kd (nM)>


>  <Assay (Kd)>


>  <Ki (nM)>
400

>  <Assay (Ki)>
FP

>  <IC50 (nM)>


>  <Assay (IC50)>


>  <EC50 (nM)>


>  <Assay (EC50)>


>  <Article DOI>
10.1002/cmdc.201100428

>  <Molecular Weight>
523.939

>  <Exact Mass>
523.1485686

>  <XLogP3>
5.41

>  <Heavy Atom Count>
36

>  <Ring Count>
3

>  <Hydrogen Bond Acceptor Count>
4

>  <Hydrogen Bond Donor Count>
2

>  <Rotatable Bond Count>
8

>  <Topological Polar Surface Area>
91.5

>  <Molecular Formula>
C25H25ClF3N3O4

>  <InChI>
InChI=1S/C25H25ClF3N3O4/c1-5-36-24(35)21-19(15-7-6-14(26)10-18(15)30-21)22(23(34)31-25(2,3)4)32(12-33)11-13-8-16(27)20(29)17(28)9-13/h6-10,12,22,30H,5,11H2,1-4H3,(H,31,34)

>  <InChI Key>
OOWUETJGFQSHBR-UHFFFAOYSA-N

>  <BindingDB>
192204

>  <PubChem>
87111280

>  <ChEMBL>
CHEMBL3968676

$$$$
316
Actelion Java MolfileCreator 2.0

  0  0  0  0  0  0              0 V3000
M  V30 BEGIN CTAB
M  V30 COUNTS 47 53 0 0 0
M  V30 BEGIN ATOM
M  V30 1 Cl 2.598 3.0 0.0 0
M  V30 2 C 2.598 4.0 0.0 0
M  V30 3 C 3.4641 4.5 0.0 0
M  V30 4 C 1.732 4.5 0.0 0
M  V30 5 C 4.3301 3.9999 0.0 0
M  V30 6 C 3.4641 5.5 0.0 0
M  V30 7 C 1.732 5.5 0.0 0
M  V30 8 N 4.3301 3.0 0.0 0
M  V30 9 C 5.1961 4.4999 0.0 0
M  V30 10 C 2.598 6.0 0.0 0
M  V30 11 C 4.3301 6.0 0.0 0
M  V30 12 C 3.4641 2.5 0.0 0
M  V30 13 C 5.1961 2.4999 0.0 0
M  V30 14 C 5.1961 5.4999 0.0 0
M  V30 15 C 3.4641 1.5 0.0 0
M  V30 16 C 5.1961 1.4999 0.0 0
M  V30 17 N 2.598 1.0 0.0 0
M  V30 18 C 4.3301 0.9999 0.0 0
M  V30 19 C 2.598 0.0 0.0 0
M  V30 20 C 4.3301 0.0 0.0 0
M  V30 21 O 1.732 -0.5 0.0 0
M  V30 22 N 3.4641 -0.4999 0.0 0
M  V30 23 N 5.1961 -0.5 0.0 0
M  V30 24 C 0.866 0.0 0.0 0
M  V30 25 C 5.1961 -1.5 0.0 0
M  V30 26 C 6.0621 0.0 0.0 0
M  V30 27 C 0.0 -0.5 0.0 0 CFG=1
M  V30 28 C 6.0621 -2.0 0.0 0 CFG=1
M  V30 29 C 6.9282 -0.5 0.0 0
M  V30 30 N -0.9135 -0.0932 0.0 0
M  V30 31 C -0.1045 -1.4945 0.0 0
M  V30 32 N 6.9282 -1.5 0.0 0
M  V30 33 C 6.0621 -3.0 0.0 0
M  V30 34 C -1.5826 -0.8364 0.0 0
M  V30 35 C -1.1214 0.8848 0.0 0
M  V30 36 C -1.0826 -1.7024 0.0 0
M  V30 37 C 7.7942 -2.0 0.0 0
M  V30 38 C 5.1961 -3.5 0.0 0
M  V30 39 O 7.7942 -3.0 0.0 0
M  V30 40 C 8.6602 -1.5 0.0 0
M  V30 41 N 4.3301 -4.0 0.0 0
M  V30 42 C 8.6602 -0.5 0.0 0
M  V30 43 C 9.5262 -2.0 0.0 0
M  V30 44 N 8.6602 0.4999 0.0 0
M  V30 45 C 9.5262 -3.0 0.0 0
M  V30 46 C 10.0262 -3.866 0.0 0
M  V30 47 C 9.0262 -3.866 0.0 0
M  V30 END ATOM
M  V30 BEGIN BOND
M  V30 1 1 1 2
M  V30 2 1 2 3
M  V30 3 2 2 4
M  V30 4 2 3 5
M  V30 5 1 3 6
M  V30 6 1 4 7
M  V30 7 1 5 8
M  V30 8 1 5 9
M  V30 9 1 6 10
M  V30 10 2 6 11
M  V30 11 1 8 12
M  V30 12 1 8 13
M  V30 13 2 9 14
M  V30 14 1 12 15
M  V30 15 1 13 16
M  V30 16 2 15 17
M  V30 17 1 15 18
M  V30 18 1 17 19
M  V30 19 2 18 20
M  V30 20 1 19 21
M  V30 21 2 19 22
M  V30 22 1 20 23
M  V30 23 1 21 24
M  V30 24 1 23 25
M  V30 25 1 23 26
M  V30 26 1 27 24 CFG=3
M  V30 27 1 28 25
M  V30 28 1 26 29
M  V30 29 1 27 30
M  V30 30 1 27 31
M  V30 31 1 28 32
M  V30 32 1 28 33 CFG=1
M  V30 33 1 30 34
M  V30 34 1 30 35
M  V30 35 1 31 36
M  V30 36 1 32 37
M  V30 37 1 33 38
M  V30 38 2 37 39
M  V30 39 1 37 40
M  V30 40 3 38 41
M  V30 41 1 40 42
M  V30 42 2 40 43
M  V30 43 3 42 44
M  V30 44 1 43 45
M  V30 45 1 45 46
M  V30 46 1 45 47
M  V30 47 2 7 10
M  V30 48 1 11 14
M  V30 49 1 16 18
M  V30 50 1 20 22
M  V30 51 1 29 32
M  V30 52 1 34 36
M  V30 53 1 46 47
M  V30 END BOND
M  V30 BEGIN COLLECTION
M  V30 MDLV30/STEABS ATOMS=(2 27 28)
M  V30 END COLLECTION
M  V30 END CTAB
M  END
>  <Molecule Name>
Compound 1044

>  <Molecule Name 2>
Compound 1044

>  <Compound ID>
316

>  <Name>


>  <Uniprot>
P01116

>  <Target>
KRAS G12C

>  <Smiles>
CN1CCC[C@H]1COC1=NC2=C(CCN(C3=CC=CC4=CC=CC(Cl)=C34)C2)C(N2CCN(C(=O)/C(C#N)=C\C3CC3)[C@@H](CC#N)C2)=N1

>  <Kd (nM)>


>  <Assay (Kd)>


>  <Ki (nM)>


>  <Assay (Ki)>


>  <IC50 (nM)>
25.44

>  <Assay (IC50)>
IC50 was assessed by the HTRF assay

>  <EC50 (nM)>


>  <Assay (EC50)>


>  <Article DOI>
10.1016/j.ejmech.2021.114088

>  <Molecular Weight>
651.215

>  <Exact Mass>
650.2884502

>  <XLogP3>
5.44

>  <Heavy Atom Count>
47

>  <Ring Count>
7

>  <Hydrogen Bond Acceptor Count>
9

>  <Hydrogen Bond Donor Count>
0

>  <Rotatable Bond Count>
8

>  <Topological Polar Surface Area>
112.62

>  <Molecular Formula>
C36H39ClN8O2

>  <InChI>
InChI=1S/C36H39ClN8O2/c1-42-15-4-7-28(42)23-47-36-40-31-22-43(32-9-3-6-25-5-2-8-30(37)33(25)32)16-13-29(31)34(41-36)44-17-18-45(27(21-44)12-14-38)35(46)26(20-39)19-24-10-11-24/h2-3,5-6,8-9,19,24,27-28H,4,7,10-13,15-18,21-23H2,1H3/b26-19-/t27-,28-/m0/s1

>  <InChI Key>
CROGWWKTKKFIJR-ADBZDVSGSA-N

>  <BindingDB>


>  <PubChem>


>  <ChEMBL>


$$$$
317
Actelion Java MolfileCreator 2.0

  0  0  0  0  0  0              0 V3000
M  V30 BEGIN CTAB
M  V30 COUNTS 30 33 0 0 0
M  V30 BEGIN ATOM
M  V30 1 Cl 2.5306 3.2075 0.0 0
M  V30 2 C 3.5087 3.4154 0.0 0
M  V30 3 C 4.1779 2.6723 0.0 0
M  V30 4 C 3.8178 4.3665 0.0 0
M  V30 5 C 3.8689 1.7212 0.0 0
M  V30 6 C 5.156 2.8802 0.0 0
M  V30 7 C 4.7959 4.5744 0.0 0
M  V30 8 O 2.8907 1.5133 0.0 0
M  V30 9 C 4.538 0.9781 0.0 0
M  V30 10 C 5.465 3.8313 0.0 0
M  V30 11 O 5.1049 5.5255 0.0 0
M  V30 12 C 4.3301 0.0 0.0 0
M  V30 13 C 5.5325 1.0826 0.0 0
M  V30 14 C 4.4358 6.2686 0.0 0
M  V30 15 C 3.4641 -0.5 0.0 0
M  V30 16 C 5.1961 -0.4999 0.0 0
M  V30 17 N 5.9392 0.1691 0.0 0
M  V30 18 C 4.7448 7.2197 0.0 0
M  V30 19 C 3.4576 6.0607 0.0 0
M  V30 20 N 3.4641 -1.5 0.0 0
M  V30 21 N 2.598 0.0 0.0 0
M  V30 22 N 5.1961 -1.4999 0.0 0
M  V30 23 C 4.0757 7.9628 0.0 0
M  V30 24 C 2.7885 6.8038 0.0 0
M  V30 25 C 4.3301 -1.9999 0.0 0
M  V30 26 C 1.732 -0.5 0.0 0
M  V30 27 C 3.0975 7.7549 0.0 0
M  V30 28 C 0.866 0.0 0.0 0
M  V30 29 O 0.866 1.0 0.0 0
M  V30 30 O 0.0 -0.5 0.0 0
M  V30 END ATOM
M  V30 BEGIN BOND
M  V30 1 1 1 2
M  V30 2 2 2 3
M  V30 3 1 2 4
M  V30 4 1 3 5
M  V30 5 1 3 6
M  V30 6 2 4 7
M  V30 7 2 5 8
M  V30 8 1 5 9
M  V30 9 2 6 10
M  V30 10 1 7 11
M  V30 11 1 9 12
M  V30 12 2 9 13
M  V30 13 1 11 14
M  V30 14 2 12 15
M  V30 15 1 12 16
M  V30 16 1 13 17
M  V30 17 2 14 18
M  V30 18 1 14 19
M  V30 19 1 15 20
M  V30 20 1 15 21
M  V30 21 2 16 22
M  V30 22 1 18 23
M  V30 23 2 19 24
M  V30 24 2 20 25
M  V30 25 1 21 26
M  V30 26 2 23 27
M  V30 27 1 26 28
M  V30 28 2 28 29
M  V30 29 1 28 30
M  V30 30 1 7 10
M  V30 31 1 16 17
M  V30 32 1 22 25
M  V30 33 1 24 27
M  V30 END BOND
M  V30 END CTAB
M  END
>  <Molecule Name>
Compound 1045

>  <Molecule Name 2>
Compound 1045

>  <Compound ID>
317

>  <Name>


>  <Uniprot>
Q06187

>  <Target>
BTK

>  <Smiles>
O=C(O)CNC1=NC=NC2=C1C(C(=O)C1=CC=C(OC3=CC=CC=C3)C=C1Cl)=C[NH]2

>  <Kd (nM)>


>  <Assay (Kd)>


>  <Ki (nM)>


>  <Assay (Ki)>


>  <IC50 (nM)>
81.4

>  <Assay (IC50)>
Inhibition of BTK

>  <EC50 (nM)>


>  <Assay (EC50)>


>  <Article DOI>
10.1016/j.ejmech.2021.113820

>  <Molecular Weight>
422.828

>  <Exact Mass>
422.0781826

>  <XLogP3>
4.07

>  <Heavy Atom Count>
30

>  <Ring Count>
4

>  <Hydrogen Bond Acceptor Count>
6

>  <Hydrogen Bond Donor Count>
3

>  <Rotatable Bond Count>
7

>  <Topological Polar Surface Area>
117.2

>  <Molecular Formula>
C21H15ClN4O4

>  <InChI>
InChI=1S/C21H15ClN4O4/c22-16-8-13(30-12-4-2-1-3-5-12)6-7-14(16)19(29)15-9-23-20-18(15)21(26-11-25-20)24-10-17(27)28/h1-9,11H,10H2,(H,27,28)(H2,23,24,25,26)

>  <InChI Key>
GTFCZHOGJFHOEX-UHFFFAOYSA-N

>  <BindingDB>


>  <PubChem>
156770693

>  <ChEMBL>


$$$$
318
Actelion Java MolfileCreator 2.0

  0  0  0  0  0  0              0 V3000
M  V30 BEGIN CTAB
M  V30 COUNTS 33 37 0 0 0
M  V30 BEGIN ATOM
M  V30 1 Cl 2.598 1.0 0.0 0
M  V30 2 C 2.598 0.0 0.0 0
M  V30 3 C 1.732 -0.5 0.0 0
M  V30 4 C 3.4641 -0.4999 0.0 0
M  V30 5 C 0.866 0.0 0.0 0
M  V30 6 C 1.732 -1.5 0.0 0
M  V30 7 C 3.4641 -1.4999 0.0 0
M  V30 8 O 0.866 1.0 0.0 0
M  V30 9 C 0.0 -0.5 0.0 0
M  V30 10 C 2.598 -1.9999 0.0 0
M  V30 11 O 4.3301 -1.9999 0.0 0
M  V30 12 C -0.9135 -0.0932 0.0 0
M  V30 13 C -0.1045 -1.4945 0.0 0
M  V30 14 C 5.1961 -1.4999 0.0 0
M  V30 15 C -1.2225 0.8577 0.0 0
M  V30 16 C -1.5826 -0.8364 0.0 0
M  V30 17 N -1.0826 -1.7024 0.0 0
M  V30 18 C 6.0621 -1.9999 0.0 0
M  V30 19 C 5.1961 -0.4999 0.0 0
M  V30 20 N -2.2007 1.0657 0.0 0
M  V30 21 N -0.5534 1.6009 0.0 0
M  V30 22 N -2.5608 -0.6284 0.0 0
M  V30 23 C 6.9282 -1.4999 0.0 0
M  V30 24 C 6.0621 0.0 0.0 0
M  V30 25 C -2.8698 0.3225 0.0 0
M  V30 26 C -0.8624 2.5519 0.0 0 CFG=1
M  V30 27 C 6.9282 -0.4999 0.0 0
M  V30 28 C -0.1933 3.2951 0.0 0
M  V30 29 C -1.8405 2.7599 0.0 0
M  V30 30 C -0.5023 4.2461 0.0 0
M  V30 31 C -2.1496 3.7109 0.0 0
M  V30 32 C -1.4804 4.4541 0.0 0 CFG=2
M  V30 33 N -1.7894 5.4051 0.0 0
M  V30 END ATOM
M  V30 BEGIN BOND
M  V30 1 1 1 2
M  V30 2 2 2 3
M  V30 3 1 2 4
M  V30 4 1 3 5
M  V30 5 1 3 6
M  V30 6 2 4 7
M  V30 7 2 5 8
M  V30 8 1 5 9
M  V30 9 2 6 10
M  V30 10 1 7 11
M  V30 11 1 9 12
M  V30 12 2 9 13
M  V30 13 1 11 14
M  V30 14 2 12 15
M  V30 15 1 12 16
M  V30 16 1 13 17
M  V30 17 2 14 18
M  V30 18 1 14 19
M  V30 19 1 15 20
M  V30 20 1 15 21
M  V30 21 2 16 22
M  V30 22 1 18 23
M  V30 23 2 19 24
M  V30 24 2 20 25
M  V30 25 1 26 21 CFG=3
M  V30 26 2 23 27
M  V30 27 1 26 28
M  V30 28 1 26 29
M  V30 29 1 28 30
M  V30 30 1 29 31
M  V30 31 1 32 30
M  V30 32 1 32 33 CFG=3
M  V30 33 1 7 10
M  V30 34 1 16 17
M  V30 35 1 22 25
M  V30 36 1 24 27
M  V30 37 1 31 32
M  V30 END BOND
M  V30 BEGIN COLLECTION
M  V30 MDLV30/STEABS ATOMS=(2 26 32)
M  V30 END COLLECTION
M  V30 END CTAB
M  END
>  <Molecule Name>
Compound 1046

>  <Molecule Name 2>
Compound 1046

>  <Compound ID>
318

>  <Name>


>  <Uniprot>
Q06187

>  <Target>
BTK

>  <Smiles>
N[C@H]1CC[C@@H](NC2=NC=NC3=C2C(C(=O)C2=CC=C(OC4=CC=CC=C4)C=C2Cl)=C[NH]3)CC1

>  <Kd (nM)>


>  <Assay (Kd)>


>  <Ki (nM)>


>  <Assay (Ki)>


>  <IC50 (nM)>
4.3

>  <Assay (IC50)>
Inhibition of BTK

>  <EC50 (nM)>


>  <Assay (EC50)>


>  <Article DOI>
10.1016/j.ejmech.2021.113820

>  <Molecular Weight>
461.953

>  <Exact Mass>
461.1618527

>  <XLogP3>
4.87

>  <Heavy Atom Count>
33

>  <Ring Count>
5

>  <Hydrogen Bond Acceptor Count>
6

>  <Hydrogen Bond Donor Count>
3

>  <Rotatable Bond Count>
6

>  <Topological Polar Surface Area>
105.92

>  <Molecular Formula>
C25H24ClN5O2

>  <InChI>
InChI=1S/C25H24ClN5O2/c26-21-12-18(33-17-4-2-1-3-5-17)10-11-19(21)23(32)20-13-28-24-22(20)25(30-14-29-24)31-16-8-6-15(27)7-9-16/h1-5,10-16H,6-9,27H2,(H2,28,29,30,31)/t15-,16+

>  <InChI Key>
IUZZCPDVZWIZJE-IYBDPMFKSA-N

>  <BindingDB>
499829

>  <PubChem>
134283148

>  <ChEMBL>


$$$$
319
Actelion Java MolfileCreator 2.0

  0  0  0  0  0  0              0 V3000
M  V30 BEGIN CTAB
M  V30 COUNTS 28 31 0 0 0
M  V30 BEGIN ATOM
M  V30 1 O 10.8902 -5.4872 0.0 0
M  V30 2 C 9.5911 -4.7372 0.0 0
M  V30 3 N 8.2208 -5.3473 0.0 0
M  V30 4 C 9.4343 -3.2454 0.0 0
M  V30 5 C 7.2171 -4.2326 0.0 0
M  V30 6 C 10.549 -2.2417 0.0 0
M  V30 7 C 7.9671 -2.9336 0.0 0
M  V30 8 C 5.7171 -4.2326 0.0 0
M  V30 9 N 12.0163 -2.5536 0.0 0
M  V30 10 C 10.3923 -0.75 0.0 0
M  V30 11 C 7.2171 -1.6345 0.0 0
M  V30 12 C 4.9671 -2.9336 0.0 0
M  V30 13 C 12.7663 -1.2546 0.0 0
M  V30 14 N 9.0932 0.0 0.0 0
M  V30 15 C 11.7626 -0.1398 0.0 0
M  V30 16 C 5.7171 -1.6345 0.0 0
M  V30 17 C 14.2335 -0.9427 0.0 0
M  V30 18 O 9.0932 1.5 0.0 0
M  V30 19 C 12.2261 1.2866 0.0 0
M  V30 20 C 14.697 0.4838 0.0 0
M  V30 21 C 7.7942 2.25 0.0 0
M  V30 22 C 13.6933 1.5985 0.0 0
M  V30 23 C 7.7942 3.75 0.0 0
M  V30 24 C 6.4951 4.5 0.0 0
M  V30 25 C 6.4951 6.0 0.0 0
M  V30 26 O 7.7942 6.75 0.0 0
M  V30 27 N 5.1961 6.75 0.0 0
M  V30 28 O 5.1961 8.25 0.0 0
M  V30 END ATOM
M  V30 BEGIN BOND
M  V30 1 2 1 2
M  V30 2 1 2 3
M  V30 3 1 2 4
M  V30 4 1 3 5
M  V30 5 2 4 6
M  V30 6 1 4 7
M  V30 7 1 5 8
M  V30 8 1 6 9
M  V30 9 1 6 10
M  V30 10 1 7 11
M  V30 11 2 8 12
M  V30 12 1 9 13
M  V30 13 2 10 14
M  V30 14 1 10 15
M  V30 15 2 11 16
M  V30 16 1 13 17
M  V30 17 1 14 18
M  V30 18 1 15 19
M  V30 19 2 17 20
M  V30 20 1 18 21
M  V30 21 2 19 22
M  V30 22 1 21 23
M  V30 23 1 23 24
M  V30 24 1 24 25
M  V30 25 2 25 26
M  V30 26 1 25 27
M  V30 27 1 27 28
M  V30 28 2 5 7
M  V30 29 1 12 16
M  V30 30 2 13 15
M  V30 31 1 20 22
M  V30 END BOND
M  V30 END CTAB
M  END
>  <Molecule Name>
Compound 1047

>  <Molecule Name 2>
Compound 1047

>  <Compound ID>
319

>  <Name>


>  <Uniprot>
Q9UBN7

>  <Target>
HDAC6

>  <Smiles>
O=C(CCCO/N=C1C(=C2/C(=O)NC3=CC=CC=C23)/NC2=CC=CC=C/12)NO

>  <Kd (nM)>


>  <Assay (Kd)>


>  <Ki (nM)>


>  <Assay (Ki)>


>  <IC50 (nM)>
128.6

>  <Assay (IC50)>
Inhibition of HDAC6

>  <EC50 (nM)>


>  <Assay (EC50)>


>  <Article DOI>
10.1021/acschembio.1c00681

>  <Molecular Weight>
378.388

>  <Exact Mass>
378.1328051

>  <XLogP3>
2.01

>  <Heavy Atom Count>
28

>  <Ring Count>
4

>  <Hydrogen Bond Acceptor Count>
6

>  <Hydrogen Bond Donor Count>
4

>  <Rotatable Bond Count>
5

>  <Topological Polar Surface Area>
112.05

>  <Molecular Formula>
C20H18N4O4

>  <InChI>
InChI=1S/C20H18N4O4/c25-16(23-27)10-5-11-28-24-18-13-7-2-4-9-15(13)21-19(18)17-12-6-1-3-8-14(12)22-20(17)26/h1-4,6-9,21,27H,5,10-11H2,(H,22,26)(H,23,25)/b19-17-,24-18+

>  <InChI Key>
PFMKIDRZHBZULH-FTCCNZMVSA-N

>  <BindingDB>


>  <PubChem>


>  <ChEMBL>


$$$$
320
Actelion Java MolfileCreator 2.0

  0  0  0  0  0  0              0 V3000
M  V30 BEGIN CTAB
M  V30 COUNTS 26 29 0 0 0
M  V30 BEGIN ATOM
M  V30 1 S 2.598 -0.75 0.0 0
M  V30 2 O 1.848 -2.049 0.0 0
M  V30 3 O 3.348 -2.049 0.0 0
M  V30 4 N 3.8971 0.0 0.0 0
M  V30 5 C 1.299 0.0 0.0 0
M  V30 6 C 5.346 -0.3882 0.0 0
M  V30 7 C 4.2853 1.4488 0.0 0
M  V30 8 C 0.0 -0.75 0.0 0
M  V30 9 C 5.7342 1.0606 0.0 0
M  V30 10 N 7.0332 1.8106 0.0 0
M  V30 11 C 5.5384 2.5478 0.0 0
M  V30 12 N 8.4036 1.2005 0.0 0
M  V30 13 C 7.19 3.3024 0.0 0
M  V30 14 C 4.1526 3.1218 0.0 0
M  V30 15 C 9.4072 2.3152 0.0 0
M  V30 16 C 8.6572 3.6143 0.0 0
M  V30 17 N 2.7668 3.6958 0.0 0
M  V30 18 C 9.2674 4.9846 0.0 0
M  V30 19 N 10.7591 5.1414 0.0 0
M  V30 20 C 8.3857 6.1981 0.0 0
M  V30 21 C 11.3692 6.5117 0.0 0
M  V30 22 C 8.9958 7.5684 0.0 0
M  V30 23 C 6.8939 6.3549 0.0 0
M  V30 24 N 10.4876 7.7252 0.0 0
M  V30 25 N 7.8811 8.5721 0.0 0
M  V30 26 C 6.582 7.8221 0.0 0
M  V30 END ATOM
M  V30 BEGIN BOND
M  V30 1 2 1 2
M  V30 2 2 1 3
M  V30 3 1 1 4
M  V30 4 1 1 5
M  V30 5 1 4 6
M  V30 6 1 4 7
M  V30 7 1 5 8
M  V30 8 1 6 9
M  V30 9 1 9 10
M  V30 10 1 9 11
M  V30 11 1 10 12
M  V30 12 1 10 13
M  V30 13 1 11 14
M  V30 14 2 12 15
M  V30 15 2 13 16
M  V30 16 3 14 17
M  V30 17 1 16 18
M  V30 18 2 18 19
M  V30 19 1 18 20
M  V30 20 1 19 21
M  V30 21 2 20 22
M  V30 22 1 20 23
M  V30 23 2 21 24
M  V30 24 1 22 25
M  V30 25 2 23 26
M  V30 26 1 7 9
M  V30 27 1 15 16
M  V30 28 1 22 24
M  V30 29 1 25 26
M  V30 END BOND
M  V30 END CTAB
M  END
>  <Molecule Name>
Compound 1048

>  <Molecule Name 2>
Compound 1048

>  <Compound ID>
320

>  <Name>
Baricitinib

>  <Uniprot>
O60674

>  <Target>
JAK2

>  <Smiles>
CCS(=O)(=O)N1CC(CC#N)(N2C=C(C3=NC=NC4=C3C=C[NH]4)C=N2)C1

>  <Kd (nM)>


>  <Assay (Kd)>


>  <Ki (nM)>


>  <Assay (Ki)>


>  <IC50 (nM)>
290

>  <Assay (IC50)>
IC50 was assessed by radiometric assay

>  <EC50 (nM)>


>  <Assay (EC50)>


>  <Article DOI>
10.1021/acs.jmedchem.0c01952

>  <Molecular Weight>
371.426

>  <Exact Mass>
371.1164438

>  <XLogP3>
-0.46

>  <Heavy Atom Count>
26

>  <Ring Count>
4

>  <Hydrogen Bond Acceptor Count>
7

>  <Hydrogen Bond Donor Count>
1

>  <Rotatable Bond Count>
5

>  <Topological Polar Surface Area>
120.56

>  <Molecular Formula>
C16H17N7O2S

>  <InChI>
InChI=1S/C16H17N7O2S/c1-2-26(24,25)22-9-16(10-22,4-5-17)23-8-12(7-21-23)14-13-3-6-18-15(13)20-11-19-14/h3,6-8,11H,2,4,9-10H2,1H3,(H,18,19,20)

>  <InChI Key>
XUZMWHLSFXCVMG-UHFFFAOYSA-N

>  <BindingDB>
50021656

>  <PubChem>
44205240

>  <ChEMBL>
CHEMBL2105759

$$$$
320
Actelion Java MolfileCreator 2.0

  0  0  0  0  0  0              0 V3000
M  V30 BEGIN CTAB
M  V30 COUNTS 26 29 0 0 0
M  V30 BEGIN ATOM
M  V30 1 S 2.598 -0.75 0.0 0
M  V30 2 O 1.848 -2.049 0.0 0
M  V30 3 O 3.348 -2.049 0.0 0
M  V30 4 N 3.8971 0.0 0.0 0
M  V30 5 C 1.299 0.0 0.0 0
M  V30 6 C 5.346 -0.3882 0.0 0
M  V30 7 C 4.2853 1.4488 0.0 0
M  V30 8 C 0.0 -0.75 0.0 0
M  V30 9 C 5.7342 1.0606 0.0 0
M  V30 10 N 7.0332 1.8106 0.0 0
M  V30 11 C 5.5384 2.5478 0.0 0
M  V30 12 N 8.4036 1.2005 0.0 0
M  V30 13 C 7.19 3.3024 0.0 0
M  V30 14 C 4.1526 3.1218 0.0 0
M  V30 15 C 9.4072 2.3152 0.0 0
M  V30 16 C 8.6572 3.6143 0.0 0
M  V30 17 N 2.7668 3.6958 0.0 0
M  V30 18 C 9.2674 4.9846 0.0 0
M  V30 19 N 10.7591 5.1414 0.0 0
M  V30 20 C 8.3857 6.1981 0.0 0
M  V30 21 C 11.3692 6.5117 0.0 0
M  V30 22 C 8.9958 7.5684 0.0 0
M  V30 23 C 6.8939 6.3549 0.0 0
M  V30 24 N 10.4876 7.7252 0.0 0
M  V30 25 N 7.8811 8.5721 0.0 0
M  V30 26 C 6.582 7.8221 0.0 0
M  V30 END ATOM
M  V30 BEGIN BOND
M  V30 1 2 1 2
M  V30 2 2 1 3
M  V30 3 1 1 4
M  V30 4 1 1 5
M  V30 5 1 4 6
M  V30 6 1 4 7
M  V30 7 1 5 8
M  V30 8 1 6 9
M  V30 9 1 9 10
M  V30 10 1 9 11
M  V30 11 1 10 12
M  V30 12 1 10 13
M  V30 13 1 11 14
M  V30 14 2 12 15
M  V30 15 2 13 16
M  V30 16 3 14 17
M  V30 17 1 16 18
M  V30 18 2 18 19
M  V30 19 1 18 20
M  V30 20 1 19 21
M  V30 21 2 20 22
M  V30 22 1 20 23
M  V30 23 2 21 24
M  V30 24 1 22 25
M  V30 25 2 23 26
M  V30 26 1 7 9
M  V30 27 1 15 16
M  V30 28 1 22 24
M  V30 29 1 25 26
M  V30 END BOND
M  V30 END CTAB
M  END
>  <Molecule Name>
Compound 1049

>  <Molecule Name 2>
Compound 1049

>  <Compound ID>
320

>  <Name>
Baricitinib

>  <Uniprot>
P52333

>  <Target>
JAK3

>  <Smiles>
CCS(=O)(=O)N1CC(CC#N)(N2C=C(C3=NC=NC4=C3C=C[NH]4)C=N2)C1

>  <Kd (nM)>


>  <Assay (Kd)>


>  <Ki (nM)>


>  <Assay (Ki)>


>  <IC50 (nM)>
787

>  <Assay (IC50)>
Inhibition of JAK3

>  <EC50 (nM)>


>  <Assay (EC50)>


>  <Article DOI>
10.1021/jm401490p

>  <Molecular Weight>
371.426

>  <Exact Mass>
371.1164438

>  <XLogP3>
-0.46

>  <Heavy Atom Count>
26

>  <Ring Count>
4

>  <Hydrogen Bond Acceptor Count>
7

>  <Hydrogen Bond Donor Count>
1

>  <Rotatable Bond Count>
5

>  <Topological Polar Surface Area>
120.56

>  <Molecular Formula>
C16H17N7O2S

>  <InChI>
InChI=1S/C16H17N7O2S/c1-2-26(24,25)22-9-16(10-22,4-5-17)23-8-12(7-21-23)14-13-3-6-18-15(13)20-11-19-14/h3,6-8,11H,2,4,9-10H2,1H3,(H,18,19,20)

>  <InChI Key>
XUZMWHLSFXCVMG-UHFFFAOYSA-N

>  <BindingDB>
50021656

>  <PubChem>
44205240

>  <ChEMBL>
CHEMBL2105759

$$$$
321
Actelion Java MolfileCreator 2.0

  0  0  0  0  0  0              0 V3000
M  V30 BEGIN CTAB
M  V30 COUNTS 34 37 0 0 0
M  V30 BEGIN ATOM
M  V30 1 Cl 2.598 1.0 0.0 0
M  V30 2 C 2.598 0.0 0.0 0
M  V30 3 C 1.732 -0.5 0.0 0
M  V30 4 C 3.4641 -0.4999 0.0 0
M  V30 5 N 1.732 -1.5 0.0 0
M  V30 6 N 0.866 0.0 0.0 0
M  V30 7 N 3.4641 -1.4999 0.0 0
M  V30 8 C 2.598 -1.9999 0.0 0
M  V30 9 C 0.0 -0.5 0.0 0
M  V30 10 N 2.598 -2.9999 0.0 0
M  V30 11 C -0.866 0.0 0.0 0
M  V30 12 C 0.0 -1.4999 0.0 0
M  V30 13 C 3.4641 -3.4999 0.0 0
M  V30 14 N -0.866 1.0 0.0 0
M  V30 15 C -1.732 -0.4999 0.0 0
M  V30 16 C -0.866 -1.9999 0.0 0
M  V30 17 C 3.4641 -4.4999 0.0 0
M  V30 18 C 4.3301 -2.9999 0.0 0
M  V30 19 S -1.732 1.5 0.0 0
M  V30 20 C -1.732 -1.4999 0.0 0
M  V30 21 O 2.598 -4.9999 0.0 0
M  V30 22 C 4.3301 -4.9999 0.0 0
M  V30 23 C 5.1961 -3.4999 0.0 0
M  V30 24 O -1.232 2.366 0.0 0
M  V30 25 O -2.232 0.6339 0.0 0
M  V30 26 C -2.598 2.0 0.0 0
M  V30 27 C 2.598 -5.9999 0.0 0
M  V30 28 C 5.1961 -4.4999 0.0 0
M  V30 29 C 6.0621 -4.9999 0.0 0
M  V30 30 C 6.0621 -5.9999 0.0 0
M  V30 31 C 6.9282 -4.4999 0.0 0
M  V30 32 C 6.9282 -6.4999 0.0 0
M  V30 33 C 7.7942 -4.9999 0.0 0
M  V30 34 N 7.7942 -5.9999 0.0 0
M  V30 END ATOM
M  V30 BEGIN BOND
M  V30 1 1 1 2
M  V30 2 2 2 3
M  V30 3 1 2 4
M  V30 4 1 3 5
M  V30 5 1 3 6
M  V30 6 2 4 7
M  V30 7 2 5 8
M  V30 8 1 6 9
M  V30 9 1 8 10
M  V30 10 2 9 11
M  V30 11 1 9 12
M  V30 12 1 10 13
M  V30 13 1 11 14
M  V30 14 1 11 15
M  V30 15 2 12 16
M  V30 16 2 13 17
M  V30 17 1 13 18
M  V30 18 1 14 19
M  V30 19 2 15 20
M  V30 20 1 17 21
M  V30 21 1 17 22
M  V30 22 2 18 23
M  V30 23 2 19 24
M  V30 24 2 19 25
M  V30 25 1 19 26
M  V30 26 1 21 27
M  V30 27 2 22 28
M  V30 28 1 28 29
M  V30 29 1 29 30
M  V30 30 1 29 31
M  V30 31 1 30 32
M  V30 32 1 31 33
M  V30 33 1 32 34
M  V30 34 1 7 8
M  V30 35 1 16 20
M  V30 36 1 23 28
M  V30 37 1 33 34
M  V30 END BOND
M  V30 END CTAB
M  END
>  <Molecule Name>
Compound 1050

>  <Molecule Name 2>
Compound 1050

>  <Compound ID>
321

>  <Name>
TRE-069

>  <Uniprot>
P00533

>  <Target>
EGFR del19/T790M/C797S

>  <Smiles>
COC1=CC(C2CCNCC2)=CC=C1NC1=NC=C(Cl)C(NC2=CC=CC=C2NS(C)(=O)=O)=N1

>  <Kd (nM)>


>  <Assay (Kd)>


>  <Ki (nM)>


>  <Assay (Ki)>


>  <IC50 (nM)>
15

>  <Assay (IC50)>
Inhibition of EGFR del19/T790M/C797S

>  <EC50 (nM)>


>  <Assay (EC50)>


>  <Article DOI>
10.1002/bkcs.11886

>  <Molecular Weight>
503.028

>  <Exact Mass>
502.1553874

>  <XLogP3>
3.63

>  <Heavy Atom Count>
34

>  <Ring Count>
4

>  <Hydrogen Bond Acceptor Count>
8

>  <Hydrogen Bond Donor Count>
4

>  <Rotatable Bond Count>
8

>  <Topological Polar Surface Area>
117.27

>  <Molecular Formula>
C23H27ClN6O3S

>  <InChI>
InChI=1S/C23H27ClN6O3S/c1-33-21-13-16(15-9-11-25-12-10-15)7-8-20(21)28-23-26-14-17(24)22(29-23)27-18-5-3-4-6-19(18)30-34(2,31)32/h3-8,13-15,25,30H,9-12H2,1-2H3,(H2,26,27,28,29)

>  <InChI Key>
FJMLHLTVDMXQCW-UHFFFAOYSA-N

>  <BindingDB>


>  <PubChem>
142497242

>  <ChEMBL>


$$$$
321
Actelion Java MolfileCreator 2.0

  0  0  0  0  0  0              0 V3000
M  V30 BEGIN CTAB
M  V30 COUNTS 34 37 0 0 0
M  V30 BEGIN ATOM
M  V30 1 Cl 2.598 1.0 0.0 0
M  V30 2 C 2.598 0.0 0.0 0
M  V30 3 C 1.732 -0.5 0.0 0
M  V30 4 C 3.4641 -0.4999 0.0 0
M  V30 5 N 1.732 -1.5 0.0 0
M  V30 6 N 0.866 0.0 0.0 0
M  V30 7 N 3.4641 -1.4999 0.0 0
M  V30 8 C 2.598 -1.9999 0.0 0
M  V30 9 C 0.0 -0.5 0.0 0
M  V30 10 N 2.598 -2.9999 0.0 0
M  V30 11 C -0.866 0.0 0.0 0
M  V30 12 C 0.0 -1.4999 0.0 0
M  V30 13 C 3.4641 -3.4999 0.0 0
M  V30 14 N -0.866 1.0 0.0 0
M  V30 15 C -1.732 -0.4999 0.0 0
M  V30 16 C -0.866 -1.9999 0.0 0
M  V30 17 C 3.4641 -4.4999 0.0 0
M  V30 18 C 4.3301 -2.9999 0.0 0
M  V30 19 S -1.732 1.5 0.0 0
M  V30 20 C -1.732 -1.4999 0.0 0
M  V30 21 O 2.598 -4.9999 0.0 0
M  V30 22 C 4.3301 -4.9999 0.0 0
M  V30 23 C 5.1961 -3.4999 0.0 0
M  V30 24 O -1.232 2.366 0.0 0
M  V30 25 O -2.232 0.6339 0.0 0
M  V30 26 C -2.598 2.0 0.0 0
M  V30 27 C 2.598 -5.9999 0.0 0
M  V30 28 C 5.1961 -4.4999 0.0 0
M  V30 29 C 6.0621 -4.9999 0.0 0
M  V30 30 C 6.0621 -5.9999 0.0 0
M  V30 31 C 6.9282 -4.4999 0.0 0
M  V30 32 C 6.9282 -6.4999 0.0 0
M  V30 33 C 7.7942 -4.9999 0.0 0
M  V30 34 N 7.7942 -5.9999 0.0 0
M  V30 END ATOM
M  V30 BEGIN BOND
M  V30 1 1 1 2
M  V30 2 2 2 3
M  V30 3 1 2 4
M  V30 4 1 3 5
M  V30 5 1 3 6
M  V30 6 2 4 7
M  V30 7 2 5 8
M  V30 8 1 6 9
M  V30 9 1 8 10
M  V30 10 2 9 11
M  V30 11 1 9 12
M  V30 12 1 10 13
M  V30 13 1 11 14
M  V30 14 1 11 15
M  V30 15 2 12 16
M  V30 16 2 13 17
M  V30 17 1 13 18
M  V30 18 1 14 19
M  V30 19 2 15 20
M  V30 20 1 17 21
M  V30 21 1 17 22
M  V30 22 2 18 23
M  V30 23 2 19 24
M  V30 24 2 19 25
M  V30 25 1 19 26
M  V30 26 1 21 27
M  V30 27 2 22 28
M  V30 28 1 28 29
M  V30 29 1 29 30
M  V30 30 1 29 31
M  V30 31 1 30 32
M  V30 32 1 31 33
M  V30 33 1 32 34
M  V30 34 1 7 8
M  V30 35 1 16 20
M  V30 36 1 23 28
M  V30 37 1 33 34
M  V30 END BOND
M  V30 END CTAB
M  END
>  <Molecule Name>
Compound 1051

>  <Molecule Name 2>
Compound 1051

>  <Compound ID>
321

>  <Name>
TRE-069

>  <Uniprot>
P00533

>  <Target>
EGFR del19/T790M

>  <Smiles>
COC1=CC(C2CCNCC2)=CC=C1NC1=NC=C(Cl)C(NC2=CC=CC=C2NS(C)(=O)=O)=N1

>  <Kd (nM)>


>  <Assay (Kd)>


>  <Ki (nM)>


>  <Assay (Ki)>


>  <IC50 (nM)>
16

>  <Assay (IC50)>
Inhibition of EGFR del19/T790M

>  <EC50 (nM)>


>  <Assay (EC50)>


>  <Article DOI>
10.1002/bkcs.11886

>  <Molecular Weight>
503.028

>  <Exact Mass>
502.1553874

>  <XLogP3>
3.63

>  <Heavy Atom Count>
34

>  <Ring Count>
4

>  <Hydrogen Bond Acceptor Count>
8

>  <Hydrogen Bond Donor Count>
4

>  <Rotatable Bond Count>
8

>  <Topological Polar Surface Area>
117.27

>  <Molecular Formula>
C23H27ClN6O3S

>  <InChI>
InChI=1S/C23H27ClN6O3S/c1-33-21-13-16(15-9-11-25-12-10-15)7-8-20(21)28-23-26-14-17(24)22(29-23)27-18-5-3-4-6-19(18)30-34(2,31)32/h3-8,13-15,25,30H,9-12H2,1-2H3,(H2,26,27,28,29)

>  <InChI Key>
FJMLHLTVDMXQCW-UHFFFAOYSA-N

>  <BindingDB>


>  <PubChem>
142497242

>  <ChEMBL>


$$$$
321
Actelion Java MolfileCreator 2.0

  0  0  0  0  0  0              0 V3000
M  V30 BEGIN CTAB
M  V30 COUNTS 34 37 0 0 0
M  V30 BEGIN ATOM
M  V30 1 Cl 2.598 1.0 0.0 0
M  V30 2 C 2.598 0.0 0.0 0
M  V30 3 C 1.732 -0.5 0.0 0
M  V30 4 C 3.4641 -0.4999 0.0 0
M  V30 5 N 1.732 -1.5 0.0 0
M  V30 6 N 0.866 0.0 0.0 0
M  V30 7 N 3.4641 -1.4999 0.0 0
M  V30 8 C 2.598 -1.9999 0.0 0
M  V30 9 C 0.0 -0.5 0.0 0
M  V30 10 N 2.598 -2.9999 0.0 0
M  V30 11 C -0.866 0.0 0.0 0
M  V30 12 C 0.0 -1.4999 0.0 0
M  V30 13 C 3.4641 -3.4999 0.0 0
M  V30 14 N -0.866 1.0 0.0 0
M  V30 15 C -1.732 -0.4999 0.0 0
M  V30 16 C -0.866 -1.9999 0.0 0
M  V30 17 C 3.4641 -4.4999 0.0 0
M  V30 18 C 4.3301 -2.9999 0.0 0
M  V30 19 S -1.732 1.5 0.0 0
M  V30 20 C -1.732 -1.4999 0.0 0
M  V30 21 O 2.598 -4.9999 0.0 0
M  V30 22 C 4.3301 -4.9999 0.0 0
M  V30 23 C 5.1961 -3.4999 0.0 0
M  V30 24 O -1.232 2.366 0.0 0
M  V30 25 O -2.232 0.6339 0.0 0
M  V30 26 C -2.598 2.0 0.0 0
M  V30 27 C 2.598 -5.9999 0.0 0
M  V30 28 C 5.1961 -4.4999 0.0 0
M  V30 29 C 6.0621 -4.9999 0.0 0
M  V30 30 C 6.0621 -5.9999 0.0 0
M  V30 31 C 6.9282 -4.4999 0.0 0
M  V30 32 C 6.9282 -6.4999 0.0 0
M  V30 33 C 7.7942 -4.9999 0.0 0
M  V30 34 N 7.7942 -5.9999 0.0 0
M  V30 END ATOM
M  V30 BEGIN BOND
M  V30 1 1 1 2
M  V30 2 2 2 3
M  V30 3 1 2 4
M  V30 4 1 3 5
M  V30 5 1 3 6
M  V30 6 2 4 7
M  V30 7 2 5 8
M  V30 8 1 6 9
M  V30 9 1 8 10
M  V30 10 2 9 11
M  V30 11 1 9 12
M  V30 12 1 10 13
M  V30 13 1 11 14
M  V30 14 1 11 15
M  V30 15 2 12 16
M  V30 16 2 13 17
M  V30 17 1 13 18
M  V30 18 1 14 19
M  V30 19 2 15 20
M  V30 20 1 17 21
M  V30 21 1 17 22
M  V30 22 2 18 23
M  V30 23 2 19 24
M  V30 24 2 19 25
M  V30 25 1 19 26
M  V30 26 1 21 27
M  V30 27 2 22 28
M  V30 28 1 28 29
M  V30 29 1 29 30
M  V30 30 1 29 31
M  V30 31 1 30 32
M  V30 32 1 31 33
M  V30 33 1 32 34
M  V30 34 1 7 8
M  V30 35 1 16 20
M  V30 36 1 23 28
M  V30 37 1 33 34
M  V30 END BOND
M  V30 END CTAB
M  END
>  <Molecule Name>
Compound 1052

>  <Molecule Name 2>
Compound 1052

>  <Compound ID>
321

>  <Name>
TRE-069

>  <Uniprot>
P00533

>  <Target>
EGFR e19d

>  <Smiles>
COC1=CC(C2CCNCC2)=CC=C1NC1=NC=C(Cl)C(NC2=CC=CC=C2NS(C)(=O)=O)=N1

>  <Kd (nM)>


>  <Assay (Kd)>


>  <Ki (nM)>


>  <Assay (Ki)>


>  <IC50 (nM)>
20

>  <Assay (IC50)>
Inhibition of EGFR del19

>  <EC50 (nM)>


>  <Assay (EC50)>


>  <Article DOI>
10.1002/bkcs.11886

>  <Molecular Weight>
503.028

>  <Exact Mass>
502.1553874

>  <XLogP3>
3.63

>  <Heavy Atom Count>
34

>  <Ring Count>
4

>  <Hydrogen Bond Acceptor Count>
8

>  <Hydrogen Bond Donor Count>
4

>  <Rotatable Bond Count>
8

>  <Topological Polar Surface Area>
117.27

>  <Molecular Formula>
C23H27ClN6O3S

>  <InChI>
InChI=1S/C23H27ClN6O3S/c1-33-21-13-16(15-9-11-25-12-10-15)7-8-20(21)28-23-26-14-17(24)22(29-23)27-18-5-3-4-6-19(18)30-34(2,31)32/h3-8,13-15,25,30H,9-12H2,1-2H3,(H2,26,27,28,29)

>  <InChI Key>
FJMLHLTVDMXQCW-UHFFFAOYSA-N

>  <BindingDB>


>  <PubChem>
142497242

>  <ChEMBL>


$$$$
321
Actelion Java MolfileCreator 2.0

  0  0  0  0  0  0              0 V3000
M  V30 BEGIN CTAB
M  V30 COUNTS 34 37 0 0 0
M  V30 BEGIN ATOM
M  V30 1 Cl 2.598 1.0 0.0 0
M  V30 2 C 2.598 0.0 0.0 0
M  V30 3 C 1.732 -0.5 0.0 0
M  V30 4 C 3.4641 -0.4999 0.0 0
M  V30 5 N 1.732 -1.5 0.0 0
M  V30 6 N 0.866 0.0 0.0 0
M  V30 7 N 3.4641 -1.4999 0.0 0
M  V30 8 C 2.598 -1.9999 0.0 0
M  V30 9 C 0.0 -0.5 0.0 0
M  V30 10 N 2.598 -2.9999 0.0 0
M  V30 11 C -0.866 0.0 0.0 0
M  V30 12 C 0.0 -1.4999 0.0 0
M  V30 13 C 3.4641 -3.4999 0.0 0
M  V30 14 N -0.866 1.0 0.0 0
M  V30 15 C -1.732 -0.4999 0.0 0
M  V30 16 C -0.866 -1.9999 0.0 0
M  V30 17 C 3.4641 -4.4999 0.0 0
M  V30 18 C 4.3301 -2.9999 0.0 0
M  V30 19 S -1.732 1.5 0.0 0
M  V30 20 C -1.732 -1.4999 0.0 0
M  V30 21 O 2.598 -4.9999 0.0 0
M  V30 22 C 4.3301 -4.9999 0.0 0
M  V30 23 C 5.1961 -3.4999 0.0 0
M  V30 24 O -1.232 2.366 0.0 0
M  V30 25 O -2.232 0.6339 0.0 0
M  V30 26 C -2.598 2.0 0.0 0
M  V30 27 C 2.598 -5.9999 0.0 0
M  V30 28 C 5.1961 -4.4999 0.0 0
M  V30 29 C 6.0621 -4.9999 0.0 0
M  V30 30 C 6.0621 -5.9999 0.0 0
M  V30 31 C 6.9282 -4.4999 0.0 0
M  V30 32 C 6.9282 -6.4999 0.0 0
M  V30 33 C 7.7942 -4.9999 0.0 0
M  V30 34 N 7.7942 -5.9999 0.0 0
M  V30 END ATOM
M  V30 BEGIN BOND
M  V30 1 1 1 2
M  V30 2 2 2 3
M  V30 3 1 2 4
M  V30 4 1 3 5
M  V30 5 1 3 6
M  V30 6 2 4 7
M  V30 7 2 5 8
M  V30 8 1 6 9
M  V30 9 1 8 10
M  V30 10 2 9 11
M  V30 11 1 9 12
M  V30 12 1 10 13
M  V30 13 1 11 14
M  V30 14 1 11 15
M  V30 15 2 12 16
M  V30 16 2 13 17
M  V30 17 1 13 18
M  V30 18 1 14 19
M  V30 19 2 15 20
M  V30 20 1 17 21
M  V30 21 1 17 22
M  V30 22 2 18 23
M  V30 23 2 19 24
M  V30 24 2 19 25
M  V30 25 1 19 26
M  V30 26 1 21 27
M  V30 27 2 22 28
M  V30 28 1 28 29
M  V30 29 1 29 30
M  V30 30 1 29 31
M  V30 31 1 30 32
M  V30 32 1 31 33
M  V30 33 1 32 34
M  V30 34 1 7 8
M  V30 35 1 16 20
M  V30 36 1 23 28
M  V30 37 1 33 34
M  V30 END BOND
M  V30 END CTAB
M  END
>  <Molecule Name>
Compound 1053

>  <Molecule Name 2>
Compound 1053

>  <Compound ID>
321

>  <Name>
TRE-069

>  <Uniprot>
P00533

>  <Target>
EGFR

>  <Smiles>
COC1=CC(C2CCNCC2)=CC=C1NC1=NC=C(Cl)C(NC2=CC=CC=C2NS(C)(=O)=O)=N1

>  <Kd (nM)>


>  <Assay (Kd)>


>  <Ki (nM)>


>  <Assay (Ki)>


>  <IC50 (nM)>
2100

>  <Assay (IC50)>
Inhibition of EGFR

>  <EC50 (nM)>


>  <Assay (EC50)>


>  <Article DOI>
10.1002/bkcs.11886

>  <Molecular Weight>
503.028

>  <Exact Mass>
502.1553874

>  <XLogP3>
3.63

>  <Heavy Atom Count>
34

>  <Ring Count>
4

>  <Hydrogen Bond Acceptor Count>
8

>  <Hydrogen Bond Donor Count>
4

>  <Rotatable Bond Count>
8

>  <Topological Polar Surface Area>
117.27

>  <Molecular Formula>
C23H27ClN6O3S

>  <InChI>
InChI=1S/C23H27ClN6O3S/c1-33-21-13-16(15-9-11-25-12-10-15)7-8-20(21)28-23-26-14-17(24)22(29-23)27-18-5-3-4-6-19(18)30-34(2,31)32/h3-8,13-15,25,30H,9-12H2,1-2H3,(H2,26,27,28,29)

>  <InChI Key>
FJMLHLTVDMXQCW-UHFFFAOYSA-N

>  <BindingDB>


>  <PubChem>
142497242

>  <ChEMBL>


$$$$
322
Actelion Java MolfileCreator 2.0

  0  0  0  0  0  0              0 V3000
M  V30 BEGIN CTAB
M  V30 COUNTS 58 63 0 0 0
M  V30 BEGIN ATOM
M  V30 1 P 8.6972 2.3403 0.0 0
M  V30 2 O 8.0477 1.5799 0.0 0
M  V30 3 O 7.9368 2.9898 0.0 0
M  V30 4 O 9.3466 3.1008 0.0 0
M  V30 5 C 9.4576 1.6909 0.0 0
M  V30 6 O 10.4002 2.0247 0.0 0
M  V30 7 C 9.2753 0.7076 0.0 0
M  V30 8 C 8.3327 0.3738 0.0 0
M  V30 9 C 10.0357 0.0582 0.0 0
M  V30 10 C 8.1505 -0.6093 0.0 0
M  V30 11 C 9.8535 -0.925 0.0 0
M  V30 12 C 8.9109 -1.2588 0.0 0
M  V30 13 C 7.2978 -1.1318 0.0 0
M  V30 14 N 8.5282 -2.1826 0.0 0
M  V30 15 C 7.5313 -2.1042 0.0 0
M  V30 16 C 6.8818 -2.8646 0.0 0
M  V30 17 O 7.2156 -3.8072 0.0 0
M  V30 18 N 5.8986 -2.6824 0.0 0
M  V30 19 C 5.2491 -3.4428 0.0 0 CFG=2
M  V30 20 C 4.298 -3.1337 0.0 0
M  V30 21 C 5.7031 -4.3338 0.0 0
M  V30 22 O 4.2196 -2.1368 0.0 0
M  V30 23 N 3.407 -3.5877 0.0 0
M  V30 24 N 5.3941 -5.2848 0.0 0
M  V30 25 C 2.598 -3.0 0.0 0 CFG=2
M  V30 26 C 3.098 -4.5388 0.0 0 CFG=1
M  V30 27 C 6.1545 -5.9343 0.0 0
M  V30 28 C 4.5031 -5.7388 0.0 0
M  V30 29 C 2.598 -2.0 0.0 0
M  V30 30 C 1.789 -3.5877 0.0 0
M  V30 31 C 3.552 -5.4298 0.0 0
M  V30 32 C 2.098 -4.5388 0.0 0
M  V30 33 O 5.9723 -6.9175 0.0 0
M  V30 34 C 7.0971 -5.6005 0.0 0
M  V30 35 O 3.4641 -1.5 0.0 0
M  V30 36 N 1.732 -1.5 0.0 0
M  V30 37 C 1.732 -0.5 0.0 0 CFG=2
M  V30 38 C 0.866 0.0 0.0 0
M  V30 39 C 2.598 0.0 0.0 0
M  V30 40 O 0.866 1.0 0.0 0
M  V30 41 N 0.0 -0.4999 0.0 0
M  V30 42 C 3.4641 -0.5 0.0 0
M  V30 43 C -0.866 0.0 0.0 0
M  V30 44 C 4.3301 0.0 0.0 0
M  V30 45 C -1.732 -0.4999 0.0 0
M  V30 46 C -0.866 1.0 0.0 0
M  V30 47 O 4.3301 1.0 0.0 0
M  V30 48 N 5.1961 -0.4999 0.0 0
M  V30 49 C -1.732 -1.5 0.0 0
M  V30 50 C -2.598 0.0 0.0 0
M  V30 51 C -1.732 1.4999 0.0 0
M  V30 52 C 0.0 1.5 0.0 0
M  V30 53 C -2.598 -1.9999 0.0 0
M  V30 54 C -3.4641 -0.4999 0.0 0
M  V30 55 C -1.732 2.4999 0.0 0
M  V30 56 C 0.0 2.5 0.0 0
M  V30 57 C -3.4641 -1.4999 0.0 0
M  V30 58 C -0.866 3.0 0.0 0
M  V30 END ATOM
M  V30 BEGIN BOND
M  V30 1 2 1 2
M  V30 2 1 1 3
M  V30 3 1 1 4
M  V30 4 1 1 5
M  V30 5 2 5 6
M  V30 6 1 5 7
M  V30 7 2 7 8
M  V30 8 1 7 9
M  V30 9 1 8 10
M  V30 10 2 9 11
M  V30 11 2 10 12
M  V30 12 1 10 13
M  V30 13 1 12 14
M  V30 14 2 13 15
M  V30 15 1 15 16
M  V30 16 2 16 17
M  V30 17 1 16 18
M  V30 18 1 19 18 CFG=1
M  V30 19 1 19 20
M  V30 20 1 19 21
M  V30 21 2 20 22
M  V30 22 1 20 23
M  V30 23 1 21 24
M  V30 24 1 25 23
M  V30 25 1 26 23 CFG=1
M  V30 26 1 24 27
M  V30 27 1 24 28
M  V30 28 1 25 29 CFG=1
M  V30 29 1 25 30
M  V30 30 1 26 31
M  V30 31 1 26 32
M  V30 32 2 27 33
M  V30 33 1 27 34
M  V30 34 2 29 35
M  V30 35 1 29 36
M  V30 36 1 37 36 CFG=3
M  V30 37 1 37 38
M  V30 38 1 37 39
M  V30 39 2 38 40
M  V30 40 1 38 41
M  V30 41 1 39 42
M  V30 42 1 41 43
M  V30 43 1 42 44
M  V30 44 1 43 45
M  V30 45 1 43 46
M  V30 46 2 44 47
M  V30 47 1 44 48
M  V30 48 2 45 49
M  V30 49 1 45 50
M  V30 50 2 46 51
M  V30 51 1 46 52
M  V30 52 1 49 53
M  V30 53 2 50 54
M  V30 54 1 51 55
M  V30 55 2 52 56
M  V30 56 2 53 57
M  V30 57 2 55 58
M  V30 58 1 11 12
M  V30 59 1 14 15
M  V30 60 1 28 31
M  V30 61 1 30 32
M  V30 62 1 54 57
M  V30 63 1 56 58
M  V30 END BOND
M  V30 BEGIN COLLECTION
M  V30 MDLV30/STEABS ATOMS=(4 19 25 26 37)
M  V30 END COLLECTION
M  V30 END CTAB
M  END
>  <Molecule Name>
Compound 1054

>  <Molecule Name 2>
Compound 1054

>  <Compound ID>
322

>  <Name>
SI-191

>  <Uniprot>
P40763

>  <Target>
STAT3

>  <Smiles>
CC(=O)N1CC[C@H]2CC[C@@H](C(=O)N[C@@H](CCC(N)=O)C(=O)NC(C3=CC=CC=C3)C3=CC=CC=C3)N2C(=O)[C@@H](NC(=O)C2=CC3=CC(C(=O)P(=O)(O)O)=CC=C3[NH]2)C1

>  <Kd (nM)>


>  <Assay (Kd)>


>  <Ki (nM)>


>  <Assay (Ki)>


>  <IC50 (nM)>


>  <Assay (IC50)>


>  <EC50 (nM)>


>  <Assay (EC50)>


>  <Article DOI>
10.1021/acsmedchemlett.1c00155

>  <Molecular Weight>
813.805

>  <Exact Mass>
813.2887272

>  <XLogP3>
0.48

>  <Heavy Atom Count>
58

>  <Ring Count>
6

>  <Hydrogen Bond Acceptor Count>
8

>  <Hydrogen Bond Donor Count>
7

>  <Rotatable Bond Count>
13

>  <Topological Polar Surface Area>
261.4

>  <Molecular Formula>
C40H44N7O10P

>  <InChI>
InChI=1S/C40H44N7O10P/c1-23(48)46-19-18-28-13-16-33(38(52)43-30(15-17-34(41)49)36(50)45-35(24-8-4-2-5-9-24)25-10-6-3-7-11-25)47(28)39(53)32(22-46)44-37(51)31-21-27-20-26(12-14-29(27)42-31)40(54)58(55,56)57/h2-12,14,20-21,28,30,32-33,35,42H,13,15-19,22H2,1H3,(H2,41,49)(H,43,52)(H,44,51)(H,45,50)(H2,55,56,57)/t28-,30+,32+,33+/m1/s1

>  <InChI Key>
CBDWACUWZACOQO-VUCLUUCHSA-N

>  <BindingDB>


>  <PubChem>
162675356

>  <ChEMBL>
CHEMBL4796524

$$$$
323
Actelion Java MolfileCreator 2.0

  0  0  0  0  0  0              0 V3000
M  V30 BEGIN CTAB
M  V30 COUNTS 38 41 0 0 0
M  V30 BEGIN ATOM
M  V30 1 Cl 4.3301 0.9999 0.0 0
M  V30 2 C 4.3301 0.0 0.0 0
M  V30 3 C 3.4641 -0.5 0.0 0
M  V30 4 C 5.1961 -0.5 0.0 0
M  V30 5 N 2.598 0.0 0.0 0
M  V30 6 C 3.4641 -1.5 0.0 0
M  V30 7 O 6.0621 0.0 0.0 0
M  V30 8 C 5.1961 -1.5 0.0 0
M  V30 9 C 1.732 -0.5 0.0 0
M  V30 10 Cl 2.598 -1.9999 0.0 0
M  V30 11 C 4.3301 -2.0 0.0 0
M  V30 12 C 6.0621 0.9999 0.0 0
M  V30 13 O 1.732 -1.5 0.0 0
M  V30 14 N 0.866 0.0 0.0 0
M  V30 15 O 4.3301 -3.0 0.0 0
M  V30 16 C 0.866 1.0 0.0 0
M  V30 17 C 0.0 -0.5 0.0 0
M  V30 18 C 5.1961 -3.5 0.0 0
M  V30 19 N 1.732 1.5 0.0 0
M  V30 20 C 0.0 1.4999 0.0 0
M  V30 21 C 1.732 2.5 0.0 0
M  V30 22 C 0.0 2.4999 0.0 0
M  V30 23 N 0.866 3.0 0.0 0
M  V30 24 N -0.866 2.9999 0.0 0
M  V30 25 C -1.732 2.4999 0.0 0
M  V30 26 C -2.598 2.9999 0.0 0
M  V30 27 C -1.732 1.4999 0.0 0
M  V30 28 C -3.4641 2.5 0.0 0
M  V30 29 C -2.598 0.9999 0.0 0
M  V30 30 C -3.4641 1.4999 0.0 0
M  V30 31 N -4.3301 1.0 0.0 0
M  V30 32 C -5.1961 1.5 0.0 0
M  V30 33 C -4.3301 0.0 0.0 0
M  V30 34 C -6.0621 1.0 0.0 0
M  V30 35 C -5.1961 -0.4999 0.0 0
M  V30 36 N -6.0621 0.0 0.0 0
M  V30 37 C -6.9282 -0.4999 0.0 0
M  V30 38 C -6.9282 -1.4999 0.0 0
M  V30 END ATOM
M  V30 BEGIN BOND
M  V30 1 1 1 2
M  V30 2 2 2 3
M  V30 3 1 2 4
M  V30 4 1 3 5
M  V30 5 1 3 6
M  V30 6 1 4 7
M  V30 7 2 4 8
M  V30 8 1 5 9
M  V30 9 1 6 10
M  V30 10 2 6 11
M  V30 11 1 7 12
M  V30 12 2 9 13
M  V30 13 1 9 14
M  V30 14 1 11 15
M  V30 15 1 14 16
M  V30 16 1 14 17
M  V30 17 1 15 18
M  V30 18 2 16 19
M  V30 19 1 16 20
M  V30 20 1 19 21
M  V30 21 2 20 22
M  V30 22 2 21 23
M  V30 23 1 22 24
M  V30 24 1 24 25
M  V30 25 2 25 26
M  V30 26 1 25 27
M  V30 27 1 26 28
M  V30 28 2 27 29
M  V30 29 2 28 30
M  V30 30 1 30 31
M  V30 31 1 31 32
M  V30 32 1 31 33
M  V30 33 1 32 34
M  V30 34 1 33 35
M  V30 35 1 34 36
M  V30 36 1 36 37
M  V30 37 1 37 38
M  V30 38 1 8 11
M  V30 39 1 22 23
M  V30 40 1 29 30
M  V30 41 1 35 36
M  V30 END BOND
M  V30 END CTAB
M  END
>  <Molecule Name>
Compound 1055

>  <Molecule Name 2>
Compound 1055

>  <Compound ID>
323

>  <Name>
BGJ398

>  <Uniprot>
P11362

>  <Target>
FGFR1

>  <Smiles>
CCN1CCN(C2=CC=C(NC3=CC(N(C)C(=O)NC4=C(Cl)C(OC)=CC(OC)=C4Cl)=NC=N3)C=C2)CC1

>  <Kd (nM)>


>  <Assay (Kd)>


>  <Ki (nM)>


>  <Assay (Ki)>


>  <IC50 (nM)>
0.9

>  <Assay (IC50)>
Inhibition of FGFR1

>  <EC50 (nM)>


>  <Assay (EC50)>


>  <Article DOI>
10.1021/jm2006222

>  <Molecular Weight>
560.486

>  <Exact Mass>
559.1865432

>  <XLogP3>
4.66

>  <Heavy Atom Count>
38

>  <Ring Count>
4

>  <Hydrogen Bond Acceptor Count>
8

>  <Hydrogen Bond Donor Count>
2

>  <Rotatable Bond Count>
8

>  <Topological Polar Surface Area>
95.09

>  <Molecular Formula>
C26H31Cl2N7O3

>  <InChI>
InChI=1S/C26H31Cl2N7O3/c1-5-34-10-12-35(13-11-34)18-8-6-17(7-9-18)31-21-15-22(30-16-29-21)33(2)26(36)32-25-23(27)19(37-3)14-20(38-4)24(25)28/h6-9,14-16H,5,10-13H2,1-4H3,(H,32,36)(H,29,30,31)

>  <InChI Key>
QADPYRIHXKWUSV-UHFFFAOYSA-N

>  <BindingDB>
50355393

>  <PubChem>
53235510

>  <ChEMBL>
CHEMBL1834657

$$$$
323
Actelion Java MolfileCreator 2.0

  0  0  0  0  0  0              0 V3000
M  V30 BEGIN CTAB
M  V30 COUNTS 38 41 0 0 0
M  V30 BEGIN ATOM
M  V30 1 Cl 4.3301 0.9999 0.0 0
M  V30 2 C 4.3301 0.0 0.0 0
M  V30 3 C 3.4641 -0.5 0.0 0
M  V30 4 C 5.1961 -0.5 0.0 0
M  V30 5 N 2.598 0.0 0.0 0
M  V30 6 C 3.4641 -1.5 0.0 0
M  V30 7 O 6.0621 0.0 0.0 0
M  V30 8 C 5.1961 -1.5 0.0 0
M  V30 9 C 1.732 -0.5 0.0 0
M  V30 10 Cl 2.598 -1.9999 0.0 0
M  V30 11 C 4.3301 -2.0 0.0 0
M  V30 12 C 6.0621 0.9999 0.0 0
M  V30 13 O 1.732 -1.5 0.0 0
M  V30 14 N 0.866 0.0 0.0 0
M  V30 15 O 4.3301 -3.0 0.0 0
M  V30 16 C 0.866 1.0 0.0 0
M  V30 17 C 0.0 -0.5 0.0 0
M  V30 18 C 5.1961 -3.5 0.0 0
M  V30 19 N 1.732 1.5 0.0 0
M  V30 20 C 0.0 1.4999 0.0 0
M  V30 21 C 1.732 2.5 0.0 0
M  V30 22 C 0.0 2.4999 0.0 0
M  V30 23 N 0.866 3.0 0.0 0
M  V30 24 N -0.866 2.9999 0.0 0
M  V30 25 C -1.732 2.4999 0.0 0
M  V30 26 C -2.598 2.9999 0.0 0
M  V30 27 C -1.732 1.4999 0.0 0
M  V30 28 C -3.4641 2.5 0.0 0
M  V30 29 C -2.598 0.9999 0.0 0
M  V30 30 C -3.4641 1.4999 0.0 0
M  V30 31 N -4.3301 1.0 0.0 0
M  V30 32 C -5.1961 1.5 0.0 0
M  V30 33 C -4.3301 0.0 0.0 0
M  V30 34 C -6.0621 1.0 0.0 0
M  V30 35 C -5.1961 -0.4999 0.0 0
M  V30 36 N -6.0621 0.0 0.0 0
M  V30 37 C -6.9282 -0.4999 0.0 0
M  V30 38 C -6.9282 -1.4999 0.0 0
M  V30 END ATOM
M  V30 BEGIN BOND
M  V30 1 1 1 2
M  V30 2 2 2 3
M  V30 3 1 2 4
M  V30 4 1 3 5
M  V30 5 1 3 6
M  V30 6 1 4 7
M  V30 7 2 4 8
M  V30 8 1 5 9
M  V30 9 1 6 10
M  V30 10 2 6 11
M  V30 11 1 7 12
M  V30 12 2 9 13
M  V30 13 1 9 14
M  V30 14 1 11 15
M  V30 15 1 14 16
M  V30 16 1 14 17
M  V30 17 1 15 18
M  V30 18 2 16 19
M  V30 19 1 16 20
M  V30 20 1 19 21
M  V30 21 2 20 22
M  V30 22 2 21 23
M  V30 23 1 22 24
M  V30 24 1 24 25
M  V30 25 2 25 26
M  V30 26 1 25 27
M  V30 27 1 26 28
M  V30 28 2 27 29
M  V30 29 2 28 30
M  V30 30 1 30 31
M  V30 31 1 31 32
M  V30 32 1 31 33
M  V30 33 1 32 34
M  V30 34 1 33 35
M  V30 35 1 34 36
M  V30 36 1 36 37
M  V30 37 1 37 38
M  V30 38 1 8 11
M  V30 39 1 22 23
M  V30 40 1 29 30
M  V30 41 1 35 36
M  V30 END BOND
M  V30 END CTAB
M  END
>  <Molecule Name>
Compound 1056

>  <Molecule Name 2>
Compound 1056

>  <Compound ID>
323

>  <Name>
BGJ398

>  <Uniprot>
P21802

>  <Target>
FGFR2

>  <Smiles>
CCN1CCN(C2=CC=C(NC3=CC(N(C)C(=O)NC4=C(Cl)C(OC)=CC(OC)=C4Cl)=NC=N3)C=C2)CC1

>  <Kd (nM)>


>  <Assay (Kd)>


>  <Ki (nM)>


>  <Assay (Ki)>


>  <IC50 (nM)>
1.4

>  <Assay (IC50)>
Inhibition of FGFR2

>  <EC50 (nM)>


>  <Assay (EC50)>


>  <Article DOI>
10.1021/jm2006222

>  <Molecular Weight>
560.486

>  <Exact Mass>
559.1865432

>  <XLogP3>
4.66

>  <Heavy Atom Count>
38

>  <Ring Count>
4

>  <Hydrogen Bond Acceptor Count>
8

>  <Hydrogen Bond Donor Count>
2

>  <Rotatable Bond Count>
8

>  <Topological Polar Surface Area>
95.09

>  <Molecular Formula>
C26H31Cl2N7O3

>  <InChI>
InChI=1S/C26H31Cl2N7O3/c1-5-34-10-12-35(13-11-34)18-8-6-17(7-9-18)31-21-15-22(30-16-29-21)33(2)26(36)32-25-23(27)19(37-3)14-20(38-4)24(25)28/h6-9,14-16H,5,10-13H2,1-4H3,(H,32,36)(H,29,30,31)

>  <InChI Key>
QADPYRIHXKWUSV-UHFFFAOYSA-N

>  <BindingDB>
50355393

>  <PubChem>
53235510

>  <ChEMBL>
CHEMBL1834657

$$$$
324
Actelion Java MolfileCreator 2.0

  0  0  0  0  0  0              0 V3000
M  V30 BEGIN CTAB
M  V30 COUNTS 47 52 0 0 0
M  V30 BEGIN ATOM
M  V30 1 O 4.3301 -2.9999 0.0 0
M  V30 2 C 5.1961 -3.4999 0.0 0
M  V30 3 N 5.1961 -4.4999 0.0 0
M  V30 4 N 6.0621 -3.0 0.0 0
M  V30 5 C 4.3301 -4.9999 0.0 0
M  V30 6 C 6.0621 -5.0 0.0 0
M  V30 7 C 6.9282 -3.5 0.0 0
M  V30 8 C 6.0621 -1.9999 0.0 0
M  V30 9 C 3.4641 -4.4999 0.0 0
M  V30 10 C 4.3301 -5.9999 0.0 0
M  V30 11 C 6.9282 -4.5 0.0 0
M  V30 12 N 7.7942 -3.0 0.0 0
M  V30 13 C 5.1961 -1.4999 0.0 0
M  V30 14 C 2.598 -4.9999 0.0 0
M  V30 15 C 3.4641 -6.4999 0.0 0
M  V30 16 C 7.7942 -5.0 0.0 0
M  V30 17 C 8.6602 -3.5 0.0 0
M  V30 18 C 5.1961 -0.5 0.0 0
M  V30 19 C 4.3301 -1.9999 0.0 0
M  V30 20 O 1.732 -4.4999 0.0 0
M  V30 21 C 2.598 -5.9999 0.0 0
M  V30 22 O 3.4641 -7.4999 0.0 0
M  V30 23 N 8.6602 -4.5 0.0 0
M  V30 24 N 9.5262 -3.0 0.0 0
M  V30 25 C 4.3301 0.0 0.0 0
M  V30 26 C 3.4641 -1.5 0.0 0
M  V30 27 C 0.866 -4.9999 0.0 0
M  V30 28 C 4.3301 -8.0 0.0 0
M  V30 29 C 9.5262 -2.0 0.0 0
M  V30 30 C 3.4641 -0.5 0.0 0
M  V30 31 C 10.3923 -1.5 0.0 0
M  V30 32 C 8.6602 -1.4999 0.0 0
M  V30 33 N 2.598 0.0 0.0 0
M  V30 34 C 10.3923 -0.5 0.0 0
M  V30 35 C 8.6602 -0.4999 0.0 0
M  V30 36 C 1.732 -0.5 0.0 0
M  V30 37 C 9.5262 0.0 0.0 0
M  V30 38 O 1.732 -1.5 0.0 0
M  V30 39 C 0.866 0.0 0.0 0
M  V30 40 N 9.5262 0.9999 0.0 0
M  V30 41 C 0.0 -0.5 0.0 0
M  V30 42 C 10.3923 1.4999 0.0 0
M  V30 43 C 8.6602 1.5 0.0 0
M  V30 44 C 10.3923 2.4999 0.0 0
M  V30 45 C 8.6602 2.5 0.0 0
M  V30 46 N 9.5262 2.9999 0.0 0
M  V30 47 C 9.5262 3.9999 0.0 0
M  V30 END ATOM
M  V30 BEGIN BOND
M  V30 1 2 1 2
M  V30 2 1 2 3
M  V30 3 1 2 4
M  V30 4 1 3 5
M  V30 5 1 3 6
M  V30 6 1 4 7
M  V30 7 1 4 8
M  V30 8 2 5 9
M  V30 9 1 5 10
M  V30 10 1 6 11
M  V30 11 1 7 12
M  V30 12 1 8 13
M  V30 13 1 9 14
M  V30 14 2 10 15
M  V30 15 1 11 16
M  V30 16 2 12 17
M  V30 17 2 13 18
M  V30 18 1 13 19
M  V30 19 1 14 20
M  V30 20 2 14 21
M  V30 21 1 15 22
M  V30 22 2 16 23
M  V30 23 1 17 24
M  V30 24 1 18 25
M  V30 25 2 19 26
M  V30 26 1 20 27
M  V30 27 1 22 28
M  V30 28 1 24 29
M  V30 29 2 25 30
M  V30 30 2 29 31
M  V30 31 1 29 32
M  V30 32 1 30 33
M  V30 33 1 31 34
M  V30 34 2 32 35
M  V30 35 1 33 36
M  V30 36 2 34 37
M  V30 37 2 36 38
M  V30 38 1 36 39
M  V30 39 1 37 40
M  V30 40 2 39 41
M  V30 41 1 40 42
M  V30 42 1 40 43
M  V30 43 1 42 44
M  V30 44 1 43 45
M  V30 45 1 44 46
M  V30 46 1 46 47
M  V30 47 2 7 11
M  V30 48 1 15 21
M  V30 49 1 17 23
M  V30 50 1 26 30
M  V30 51 1 35 37
M  V30 52 1 45 46
M  V30 END BOND
M  V30 END CTAB
M  END
>  <Molecule Name>
Compound 1057

>  <Molecule Name 2>
Compound 1057

>  <Compound ID>
324

>  <Name>
FIIN-2

>  <Uniprot>
P11362

>  <Target>
FGFR1

>  <Smiles>
C=CC(=O)NC1=CC=C(CN2C(=O)N(C3=CC(OC)=CC(OC)=C3)CC3=CN=C(NC4=CC=C(N5CCN(C)CC5)C=C4)N=C32)C=C1

>  <Kd (nM)>


>  <Assay (Kd)>


>  <Ki (nM)>


>  <Assay (Ki)>


>  <IC50 (nM)>
1

>  <Assay (IC50)>
Inhibition of FGFR1

>  <EC50 (nM)>


>  <Assay (EC50)>


>  <Article DOI>
10.1016/j.ejmech.2016.11.052

>  <Molecular Weight>
634.741

>  <Exact Mass>
634.3016017

>  <XLogP3>
4.05

>  <Heavy Atom Count>
47

>  <Ring Count>
6

>  <Hydrogen Bond Acceptor Count>
9

>  <Hydrogen Bond Donor Count>
2

>  <Rotatable Bond Count>
10

>  <Topological Polar Surface Area>
115.4

>  <Molecular Formula>
C35H38N8O4

>  <InChI>
InChI=1S/C35H38N8O4/c1-5-32(44)37-26-8-6-24(7-9-26)22-43-33-25(23-42(35(43)45)29-18-30(46-3)20-31(19-29)47-4)21-36-34(39-33)38-27-10-12-28(13-11-27)41-16-14-40(2)15-17-41/h5-13,18-21H,1,14-17,22-23H2,2-4H3,(H,37,44)(H,36,38,39)

>  <InChI Key>
DVBPRWJMHURKHP-UHFFFAOYSA-N

>  <BindingDB>
50232829

>  <PubChem>
91825767

>  <ChEMBL>
CHEMBL4065323

$$$$
324
Actelion Java MolfileCreator 2.0

  0  0  0  0  0  0              0 V3000
M  V30 BEGIN CTAB
M  V30 COUNTS 47 52 0 0 0
M  V30 BEGIN ATOM
M  V30 1 O 4.3301 -2.9999 0.0 0
M  V30 2 C 5.1961 -3.4999 0.0 0
M  V30 3 N 5.1961 -4.4999 0.0 0
M  V30 4 N 6.0621 -3.0 0.0 0
M  V30 5 C 4.3301 -4.9999 0.0 0
M  V30 6 C 6.0621 -5.0 0.0 0
M  V30 7 C 6.9282 -3.5 0.0 0
M  V30 8 C 6.0621 -1.9999 0.0 0
M  V30 9 C 3.4641 -4.4999 0.0 0
M  V30 10 C 4.3301 -5.9999 0.0 0
M  V30 11 C 6.9282 -4.5 0.0 0
M  V30 12 N 7.7942 -3.0 0.0 0
M  V30 13 C 5.1961 -1.4999 0.0 0
M  V30 14 C 2.598 -4.9999 0.0 0
M  V30 15 C 3.4641 -6.4999 0.0 0
M  V30 16 C 7.7942 -5.0 0.0 0
M  V30 17 C 8.6602 -3.5 0.0 0
M  V30 18 C 5.1961 -0.5 0.0 0
M  V30 19 C 4.3301 -1.9999 0.0 0
M  V30 20 O 1.732 -4.4999 0.0 0
M  V30 21 C 2.598 -5.9999 0.0 0
M  V30 22 O 3.4641 -7.4999 0.0 0
M  V30 23 N 8.6602 -4.5 0.0 0
M  V30 24 N 9.5262 -3.0 0.0 0
M  V30 25 C 4.3301 0.0 0.0 0
M  V30 26 C 3.4641 -1.5 0.0 0
M  V30 27 C 0.866 -4.9999 0.0 0
M  V30 28 C 4.3301 -8.0 0.0 0
M  V30 29 C 9.5262 -2.0 0.0 0
M  V30 30 C 3.4641 -0.5 0.0 0
M  V30 31 C 10.3923 -1.5 0.0 0
M  V30 32 C 8.6602 -1.4999 0.0 0
M  V30 33 N 2.598 0.0 0.0 0
M  V30 34 C 10.3923 -0.5 0.0 0
M  V30 35 C 8.6602 -0.4999 0.0 0
M  V30 36 C 1.732 -0.5 0.0 0
M  V30 37 C 9.5262 0.0 0.0 0
M  V30 38 O 1.732 -1.5 0.0 0
M  V30 39 C 0.866 0.0 0.0 0
M  V30 40 N 9.5262 0.9999 0.0 0
M  V30 41 C 0.0 -0.5 0.0 0
M  V30 42 C 10.3923 1.4999 0.0 0
M  V30 43 C 8.6602 1.5 0.0 0
M  V30 44 C 10.3923 2.4999 0.0 0
M  V30 45 C 8.6602 2.5 0.0 0
M  V30 46 N 9.5262 2.9999 0.0 0
M  V30 47 C 9.5262 3.9999 0.0 0
M  V30 END ATOM
M  V30 BEGIN BOND
M  V30 1 2 1 2
M  V30 2 1 2 3
M  V30 3 1 2 4
M  V30 4 1 3 5
M  V30 5 1 3 6
M  V30 6 1 4 7
M  V30 7 1 4 8
M  V30 8 2 5 9
M  V30 9 1 5 10
M  V30 10 1 6 11
M  V30 11 1 7 12
M  V30 12 1 8 13
M  V30 13 1 9 14
M  V30 14 2 10 15
M  V30 15 1 11 16
M  V30 16 2 12 17
M  V30 17 2 13 18
M  V30 18 1 13 19
M  V30 19 1 14 20
M  V30 20 2 14 21
M  V30 21 1 15 22
M  V30 22 2 16 23
M  V30 23 1 17 24
M  V30 24 1 18 25
M  V30 25 2 19 26
M  V30 26 1 20 27
M  V30 27 1 22 28
M  V30 28 1 24 29
M  V30 29 2 25 30
M  V30 30 2 29 31
M  V30 31 1 29 32
M  V30 32 1 30 33
M  V30 33 1 31 34
M  V30 34 2 32 35
M  V30 35 1 33 36
M  V30 36 2 34 37
M  V30 37 2 36 38
M  V30 38 1 36 39
M  V30 39 1 37 40
M  V30 40 2 39 41
M  V30 41 1 40 42
M  V30 42 1 40 43
M  V30 43 1 42 44
M  V30 44 1 43 45
M  V30 45 1 44 46
M  V30 46 1 46 47
M  V30 47 2 7 11
M  V30 48 1 15 21
M  V30 49 1 17 23
M  V30 50 1 26 30
M  V30 51 1 35 37
M  V30 52 1 45 46
M  V30 END BOND
M  V30 END CTAB
M  END
>  <Molecule Name>
Compound 1058

>  <Molecule Name 2>
Compound 1058

>  <Compound ID>
324

>  <Name>
FIIN-2

>  <Uniprot>
P21802

>  <Target>
FGFR2

>  <Smiles>
C=CC(=O)NC1=CC=C(CN2C(=O)N(C3=CC(OC)=CC(OC)=C3)CC3=CN=C(NC4=CC=C(N5CCN(C)CC5)C=C4)N=C32)C=C1

>  <Kd (nM)>


>  <Assay (Kd)>


>  <Ki (nM)>


>  <Assay (Ki)>


>  <IC50 (nM)>
4

>  <Assay (IC50)>
Inhibition of FGFR2

>  <EC50 (nM)>


>  <Assay (EC50)>


>  <Article DOI>
10.1016/j.ejmech.2016.11.052

>  <Molecular Weight>
634.741

>  <Exact Mass>
634.3016017

>  <XLogP3>
4.05

>  <Heavy Atom Count>
47

>  <Ring Count>
6

>  <Hydrogen Bond Acceptor Count>
9

>  <Hydrogen Bond Donor Count>
2

>  <Rotatable Bond Count>
10

>  <Topological Polar Surface Area>
115.4

>  <Molecular Formula>
C35H38N8O4

>  <InChI>
InChI=1S/C35H38N8O4/c1-5-32(44)37-26-8-6-24(7-9-26)22-43-33-25(23-42(35(43)45)29-18-30(46-3)20-31(19-29)47-4)21-36-34(39-33)38-27-10-12-28(13-11-27)41-16-14-40(2)15-17-41/h5-13,18-21H,1,14-17,22-23H2,2-4H3,(H,37,44)(H,36,38,39)

>  <InChI Key>
DVBPRWJMHURKHP-UHFFFAOYSA-N

>  <BindingDB>
50232829

>  <PubChem>
91825767

>  <ChEMBL>
CHEMBL4065323

$$$$
325
Actelion Java MolfileCreator 2.0

  0  0  0  0  0  0              0 V3000
M  V30 BEGIN CTAB
M  V30 COUNTS 30 32 0 0 0
M  V30 BEGIN ATOM
M  V30 1 Cl 7.7942 2.25 0.0 0
M  V30 2 C 6.4951 1.5 0.0 0
M  V30 3 C 5.1961 2.25 0.0 0
M  V30 4 C 6.4951 0.0 0.0 0
M  V30 5 C 3.8971 1.5 0.0 0
M  V30 6 C 5.1961 -0.75 0.0 0
M  V30 7 C 3.8971 0.0 0.0 0
M  V30 8 C 2.598 2.25 0.0 0
M  V30 9 N 2.598 -0.75 0.0 0
M  V30 10 O 2.598 3.75 0.0 0
M  V30 11 C 1.299 1.5 0.0 0
M  V30 12 S 2.598 -2.25 0.0 0
M  V30 13 C 0.0 2.25 0.0 0
M  V30 14 C 1.299 0.0 0.0 0
M  V30 15 O 4.098 -2.2499 0.0 0
M  V30 16 O 3.348 -3.549 0.0 0
M  V30 17 C 1.299 -3.0 0.0 0
M  V30 18 C -1.299 1.5 0.0 0
M  V30 19 C 0.0 -0.75 0.0 0
M  V30 20 C 1.299 -4.5 0.0 0
M  V30 21 C 0.0 -2.25 0.0 0
M  V30 22 N -1.299 0.0 0.0 0 CHG=1
M  V30 23 C 0.0 -5.25 0.0 0
M  V30 24 C -1.299 -3.0 0.0 0
M  V30 25 O -2.598 -0.75 0.0 0 CHG=-1
M  V30 26 C -1.299 -4.5 0.0 0
M  V30 27 C -2.598 -5.25 0.0 0
M  V30 28 C -3.348 -3.9509 0.0 0
M  V30 29 C -3.8971 -6.0 0.0 0
M  V30 30 C -1.848 -6.549 0.0 0
M  V30 END ATOM
M  V30 BEGIN BOND
M  V30 1 1 1 2
M  V30 2 2 2 3
M  V30 3 1 2 4
M  V30 4 1 3 5
M  V30 5 2 4 6
M  V30 6 2 5 7
M  V30 7 1 5 8
M  V30 8 1 7 9
M  V30 9 2 8 10
M  V30 10 1 8 11
M  V30 11 1 9 12
M  V30 12 2 11 13
M  V30 13 1 11 14
M  V30 14 2 12 15
M  V30 15 2 12 16
M  V30 16 1 12 17
M  V30 17 1 13 18
M  V30 18 2 14 19
M  V30 19 2 17 20
M  V30 20 1 17 21
M  V30 21 2 18 22
M  V30 22 1 20 23
M  V30 23 2 21 24
M  V30 24 1 22 25
M  V30 25 2 23 26
M  V30 26 1 26 27
M  V30 27 1 27 28
M  V30 28 1 27 29
M  V30 29 1 27 30
M  V30 30 1 6 7
M  V30 31 1 19 22
M  V30 32 1 24 26
M  V30 END BOND
M  V30 END CTAB
M  END
>  <Molecule Name>
Compound 1059

>  <Molecule Name 2>
Compound 1059

>  <Compound ID>
325

>  <Name>
Vercirnon

>  <Uniprot>
P51686

>  <Target>
CCR9

>  <Smiles>
CC(C)(C)C1=CC=C(S(=O)(=O)NC2=CC=C(Cl)C=C2C(=O)C2=CC=[N+]([O-])C=C2)C=C1

>  <Kd (nM)>
0.49

>  <Assay (Kd)>
Kd was assessed by radioligand binding assay

>  <Ki (nM)>


>  <Assay (Ki)>


>  <IC50 (nM)>


>  <Assay (IC50)>


>  <EC50 (nM)>


>  <Assay (EC50)>


>  <Article DOI>
10.1002/anie.202116782

>  <Molecular Weight>
444.94

>  <Exact Mass>
444.0910558

>  <XLogP3>
4.58

>  <Heavy Atom Count>
30

>  <Ring Count>
3

>  <Hydrogen Bond Acceptor Count>
4

>  <Hydrogen Bond Donor Count>
1

>  <Rotatable Bond Count>
5

>  <Topological Polar Surface Area>
90.18

>  <Molecular Formula>
C22H21ClN2O4S

>  <InChI>
InChI=1S/C22H21ClN2O4S/c1-22(2,3)16-4-7-18(8-5-16)30(28,29)24-20-9-6-17(23)14-19(20)21(26)15-10-12-25(27)13-11-15/h4-14,24H,1-3H3

>  <InChI Key>
JRWROCIMSDXGOZ-UHFFFAOYSA-N

>  <BindingDB>
50398334

>  <PubChem>
10343454

>  <ChEMBL>
CHEMBL2178578

$$$$
326
Actelion Java MolfileCreator 2.0

  0  0  0  0  0  0              0 V3000
M  V30 BEGIN CTAB
M  V30 COUNTS 20 22 0 0 0
M  V30 BEGIN ATOM
M  V30 1 O 5.1961 -5.25 0.0 0
M  V30 2 C 6.4951 -4.4999 0.0 0
M  V30 3 O 7.7942 -5.2499 0.0 0
M  V30 4 C 6.4951 -2.9999 0.0 0
M  V30 5 C 9.0932 -4.4999 0.0 0
M  V30 6 C 5.1961 -2.2499 0.0 0
M  V30 7 C 7.7942 -2.2499 0.0 0
M  V30 8 C 9.0932 -2.9999 0.0 0
M  V30 9 C 10.3923 -5.2499 0.0 0
M  V30 10 C 5.1961 -0.75 0.0 0
M  V30 11 C 3.8971 -2.9999 0.0 0
M  V30 12 C 10.3923 -2.2499 0.0 0
M  V30 13 C 11.6913 -4.4999 0.0 0
M  V30 14 C 3.8971 0.0 0.0 0
M  V30 15 C 2.598 -2.25 0.0 0
M  V30 16 C 11.6913 -2.9999 0.0 0
M  V30 17 O 12.9903 -5.2499 0.0 0
M  V30 18 C 2.598 -0.75 0.0 0
M  V30 19 O 1.299 0.0 0.0 0
M  V30 20 C 0.0 -0.75 0.0 0
M  V30 END ATOM
M  V30 BEGIN BOND
M  V30 1 2 1 2
M  V30 2 1 2 3
M  V30 3 1 2 4
M  V30 4 1 3 5
M  V30 5 1 4 6
M  V30 6 2 4 7
M  V30 7 2 5 8
M  V30 8 1 5 9
M  V30 9 2 6 10
M  V30 10 1 6 11
M  V30 11 1 8 12
M  V30 12 2 9 13
M  V30 13 1 10 14
M  V30 14 2 11 15
M  V30 15 2 12 16
M  V30 16 1 13 17
M  V30 17 2 14 18
M  V30 18 1 18 19
M  V30 19 1 19 20
M  V30 20 1 7 8
M  V30 21 1 13 16
M  V30 22 1 15 18
M  V30 END BOND
M  V30 END CTAB
M  END
>  <Molecule Name>
Compound 1060

>  <Molecule Name 2>
Compound 1060

>  <Compound ID>
326

>  <Name>
STK788280

>  <Uniprot>
P14174

>  <Target>
MIF

>  <Smiles>
COC1=CC=C(C2=CC3=CC=C(O)C=C3OC2=O)C=C1

>  <Kd (nM)>


>  <Assay (Kd)>


>  <Ki (nM)>
370

>  <Assay (Ki)>
Ki was assessed by MIF catalyzed 4-HPP tautomerization assay

>  <IC50 (nM)>


>  <Assay (IC50)>


>  <EC50 (nM)>


>  <Assay (EC50)>


>  <Article DOI>
10.1002/anie.202101864

>  <Molecular Weight>
268.268

>  <Exact Mass>
268.0735589

>  <XLogP3>
3.16

>  <Heavy Atom Count>
20

>  <Ring Count>
3

>  <Hydrogen Bond Acceptor Count>
4

>  <Hydrogen Bond Donor Count>
1

>  <Rotatable Bond Count>
2

>  <Topological Polar Surface Area>
59.67

>  <Molecular Formula>
C16H12O4

>  <InChI>
InChI=1S/C16H12O4/c1-19-13-6-3-10(4-7-13)14-8-11-2-5-12(17)9-15(11)20-16(14)18/h2-9,17H,1H3

>  <InChI Key>
VGYCHSOZFBOOKO-UHFFFAOYSA-N

>  <BindingDB>
50553871

>  <PubChem>
5393174

>  <ChEMBL>
CHEMBL1392132

$$$$
327
Actelion Java MolfileCreator 2.0

  0  0  0  0  0  0              0 V3000
M  V30 BEGIN CTAB
M  V30 COUNTS 22 24 0 0 0
M  V30 BEGIN ATOM
M  V30 1 O 5.1961 -1.5 0.0 0
M  V30 2 C 5.1961 -0.5 0.0 0
M  V30 3 O 6.0621 0.0 0.0 0
M  V30 4 N 4.3301 0.0 0.0 0
M  V30 5 C 6.0621 1.0 0.0 0
M  V30 6 C 3.4641 -0.5 0.0 0
M  V30 7 C 4.3301 1.0 0.0 0
M  V30 8 C 5.1961 1.5 0.0 0
M  V30 9 C 6.9282 1.5 0.0 0
M  V30 10 C 2.598 0.0 0.0 0
M  V30 11 C 3.4641 -1.4999 0.0 0
M  V30 12 C 5.1961 2.5 0.0 0
M  V30 13 C 6.9282 2.5 0.0 0
M  V30 14 C 1.732 -0.5 0.0 0
M  V30 15 C 2.598 -2.0 0.0 0
M  V30 16 C 6.0621 2.9999 0.0 0
M  V30 17 O 7.7942 3.0 0.0 0
M  V30 18 O 0.866 0.0 0.0 0
M  V30 19 C 1.732 -1.5 0.0 0
M  V30 20 C 0.0 -0.5 0.0 0
M  V30 21 O 0.866 -1.9999 0.0 0
M  V30 22 C 0.866 -2.9999 0.0 0
M  V30 END ATOM
M  V30 BEGIN BOND
M  V30 1 2 1 2
M  V30 2 1 2 3
M  V30 3 1 2 4
M  V30 4 1 3 5
M  V30 5 1 4 6
M  V30 6 1 4 7
M  V30 7 2 5 8
M  V30 8 1 5 9
M  V30 9 2 6 10
M  V30 10 1 6 11
M  V30 11 1 8 12
M  V30 12 2 9 13
M  V30 13 1 10 14
M  V30 14 2 11 15
M  V30 15 2 12 16
M  V30 16 1 13 17
M  V30 17 1 14 18
M  V30 18 2 14 19
M  V30 19 1 18 20
M  V30 20 1 19 21
M  V30 21 1 21 22
M  V30 22 1 7 8
M  V30 23 1 13 16
M  V30 24 1 15 19
M  V30 END BOND
M  V30 END CTAB
M  END
>  <Molecule Name>
Compound 1061

>  <Molecule Name 2>
Compound 1061

>  <Compound ID>
327

>  <Name>


>  <Uniprot>
P14174

>  <Target>
MIF

>  <Smiles>
COC1=CC=C(N2CC3=CC=C(O)C=C3OC2=O)C=C1OC

>  <Kd (nM)>


>  <Assay (Kd)>


>  <Ki (nM)>
103

>  <Assay (Ki)>
Ki was assessed by MIF catalyzed 4-HPP tautomerization assay

>  <IC50 (nM)>


>  <Assay (IC50)>


>  <EC50 (nM)>


>  <Assay (EC50)>


>  <Article DOI>
10.1002/anie.202101864

>  <Molecular Weight>
301.298

>  <Exact Mass>
301.0950226

>  <XLogP3>
2.4

>  <Heavy Atom Count>
22

>  <Ring Count>
3

>  <Hydrogen Bond Acceptor Count>
5

>  <Hydrogen Bond Donor Count>
1

>  <Rotatable Bond Count>
3

>  <Topological Polar Surface Area>
68.23

>  <Molecular Formula>
C16H15NO5

>  <InChI>
InChI=1S/C16H15NO5/c1-20-13-6-4-11(7-15(13)21-2)17-9-10-3-5-12(18)8-14(10)22-16(17)19/h3-8,18H,9H2,1-2H3

>  <InChI Key>
ZZMRAJIUHSPJIQ-UHFFFAOYSA-N

>  <BindingDB>
50553872

>  <PubChem>
162673661

>  <ChEMBL>
CHEMBL4794376

$$$$
328
Actelion Java MolfileCreator 2.0

  0  0  0  0  0  0              0 V3000
M  V30 BEGIN CTAB
M  V30 COUNTS 43 48 0 0 0
M  V30 BEGIN ATOM
M  V30 1 S 2.598 -0.75 0.0 0
M  V30 2 O 1.848 -2.049 0.0 0
M  V30 3 O 3.348 -2.049 0.0 0
M  V30 4 N 1.299 0.0 0.0 0
M  V30 5 C 3.8971 0.0 0.0 0
M  V30 6 C 0.0 -0.75 0.0 0
M  V30 7 C 5.1961 -0.75 0.0 0
M  V30 8 C 3.8971 1.5 0.0 0
M  V30 9 C -1.299 0.0 0.0 0
M  V30 10 C 0.0 -2.25 0.0 0
M  V30 11 F 5.1961 -2.25 0.0 0
M  V30 12 C 6.4951 0.0 0.0 0
M  V30 13 C 5.1961 2.25 0.0 0
M  V30 14 O -1.299 1.5 0.0 0
M  V30 15 N -2.598 -0.75 0.0 0
M  V30 16 C -1.299 -3.0 0.0 0
M  V30 17 C 6.4951 1.5 0.0 0
M  V30 18 C -2.598 2.25 0.0 0
M  V30 19 C -2.598 -2.25 0.0 0
M  V30 20 C -1.299 -4.5 0.0 0
M  V30 21 F 7.7942 2.25 0.0 0
M  V30 22 C 0.0 -5.25 0.0 0
M  V30 23 C -2.598 -5.25 0.0 0
M  V30 24 N 0.0 -6.75 0.0 0
M  V30 25 C -2.598 -6.75 0.0 0
M  V30 26 C -1.299 -7.5 0.0 0
M  V30 27 C 1.1147 -7.7537 0.0 0
M  V30 28 N -0.9871 -8.9672 0.0 0
M  V30 29 C 2.5819 -7.4418 0.0 0
M  V30 30 C 0.5046 -9.124 0.0 0
M  V30 31 O 3.6966 -8.4455 0.0 0
M  V30 32 N 3.192 -6.0715 0.0 0
M  V30 33 C 4.9956 -7.6955 0.0 0
M  V30 34 N 4.6838 -6.2283 0.0 0
M  V30 35 C 6.366 -8.3056 0.0 0
M  V30 36 C 6.5228 -9.7974 0.0 0
M  V30 37 N 7.8931 -10.4075 0.0 0
M  V30 38 C 8.0499 -11.8993 0.0 0
M  V30 39 C 9.1066 -9.5258 0.0 0
M  V30 40 C 9.4202 -12.5094 0.0 0
M  V30 41 C 10.4769 -10.1359 0.0 0
M  V30 42 N 10.6337 -11.6277 0.0 0
M  V30 43 C 12.004 -12.2378 0.0 0
M  V30 END ATOM
M  V30 BEGIN BOND
M  V30 1 2 1 2
M  V30 2 2 1 3
M  V30 3 1 1 4
M  V30 4 1 1 5
M  V30 5 1 4 6
M  V30 6 2 5 7
M  V30 7 1 5 8
M  V30 8 2 6 9
M  V30 9 1 6 10
M  V30 10 1 7 11
M  V30 11 1 7 12
M  V30 12 2 8 13
M  V30 13 1 9 14
M  V30 14 1 9 15
M  V30 15 2 10 16
M  V30 16 2 12 17
M  V30 17 1 14 18
M  V30 18 2 15 19
M  V30 19 1 16 20
M  V30 20 1 17 21
M  V30 21 2 20 22
M  V30 22 1 20 23
M  V30 23 1 22 24
M  V30 24 2 23 25
M  V30 25 1 24 26
M  V30 26 1 24 27
M  V30 27 2 26 28
M  V30 28 1 27 29
M  V30 29 2 27 30
M  V30 30 1 29 31
M  V30 31 2 29 32
M  V30 32 1 31 33
M  V30 33 1 32 34
M  V30 34 1 33 35
M  V30 35 1 35 36
M  V30 36 1 36 37
M  V30 37 1 37 38
M  V30 38 1 37 39
M  V30 39 1 38 40
M  V30 40 1 39 41
M  V30 41 1 40 42
M  V30 42 1 42 43
M  V30 43 1 13 17
M  V30 44 1 16 19
M  V30 45 1 25 26
M  V30 46 1 28 30
M  V30 47 2 33 34
M  V30 48 1 41 42
M  V30 END BOND
M  V30 END CTAB
M  END
>  <Molecule Name>
Compound 1062

>  <Molecule Name 2>
Compound 1062

>  <Compound ID>
328

>  <Name>
GTPL10702

>  <Uniprot>
P42336

>  <Target>
PI3Kalpha

>  <Smiles>
COC1=NC=C(C2=CN3C(C4=NN=C(CCN5CCN(C)CC5)O4)=CN=C3C=C2)C=C1NS(=O)(=O)C1=CC=C(F)C=C1F

>  <Kd (nM)>


>  <Assay (Kd)>


>  <Ki (nM)>


>  <Assay (Ki)>


>  <IC50 (nM)>
0.2

>  <Assay (IC50)>
IC50 was assessed by the Kinase-Glo assay

>  <EC50 (nM)>


>  <Assay (EC50)>


>  <Article DOI>
10.1021/acs.jmedchem.9b01736

>  <Molecular Weight>
610.647

>  <Exact Mass>
610.1922288

>  <XLogP3>
3.02

>  <Heavy Atom Count>
43

>  <Ring Count>
6

>  <Hydrogen Bond Acceptor Count>
11

>  <Hydrogen Bond Donor Count>
1

>  <Rotatable Bond Count>
9

>  <Topological Polar Surface Area>
130.99

>  <Molecular Formula>
C28H28F2N8O4S

>  <InChI>
InChI=1S/C28H28F2N8O4S/c1-36-9-11-37(12-10-36)8-7-26-33-34-28(42-26)23-16-31-25-6-3-18(17-38(23)25)19-13-22(27(41-2)32-15-19)35-43(39,40)24-5-4-20(29)14-21(24)30/h3-6,13-17,35H,7-12H2,1-2H3

>  <InChI Key>
LSPJWTULWKYRTQ-UHFFFAOYSA-N

>  <BindingDB>
50514590

>  <PubChem>
145996540

>  <ChEMBL>
CHEMBL4440406

$$$$
329
Actelion Java MolfileCreator 2.0

  0  0  0  0  0  0              0 V3000
M  V30 BEGIN CTAB
M  V30 COUNTS 29 32 0 0 0
M  V30 BEGIN ATOM
M  V30 1 O 1.732 -1.5 0.0 0
M  V30 2 C 1.732 -0.5 0.0 0
M  V30 3 N 2.598 0.0 0.0 0
M  V30 4 N 0.866 0.0 0.0 0
M  V30 5 C 3.4641 -0.5 0.0 0
M  V30 6 C 0.0 -0.5 0.0 0
M  V30 7 C 3.4641 -1.5 0.0 0
M  V30 8 C 4.3301 0.0 0.0 0
M  V30 9 N -0.9135 -0.0932 0.0 0
M  V30 10 C -0.1045 -1.4945 0.0 0
M  V30 11 C 4.3301 -2.0 0.0 0
M  V30 12 C 5.1961 -0.5 0.0 0
M  V30 13 O -1.5826 -0.8364 0.0 0
M  V30 14 C -1.0826 -1.7024 0.0 0
M  V30 15 C 5.1961 -1.5 0.0 0
M  V30 16 C -1.4894 -2.6159 0.0 0
M  V30 17 C 6.0621 -2.0 0.0 0
M  V30 18 C -0.5758 -3.0227 0.0 0
M  V30 19 C -1.8961 -3.5295 0.0 0
M  V30 20 C -2.4029 -2.2092 0.0 0
M  V30 21 C 6.1667 -2.9945 0.0 0
M  V30 22 C 6.9757 -1.5932 0.0 0
M  V30 23 C 5.4975 -3.7376 0.0 0
M  V30 24 C 7.1448 -3.2024 0.0 0
M  V30 25 N 7.6448 -2.3364 0.0 0
M  V30 26 N 5.8065 -4.6887 0.0 0
M  V30 27 N 4.5194 -3.5297 0.0 0
M  V30 28 N 7.4538 -4.1534 0.0 0
M  V30 29 C 6.7847 -4.8966 0.0 0
M  V30 END ATOM
M  V30 BEGIN BOND
M  V30 1 2 1 2
M  V30 2 1 2 3
M  V30 3 1 2 4
M  V30 4 1 3 5
M  V30 5 1 4 6
M  V30 6 2 5 7
M  V30 7 1 5 8
M  V30 8 2 6 9
M  V30 9 1 6 10
M  V30 10 1 7 11
M  V30 11 2 8 12
M  V30 12 1 9 13
M  V30 13 2 10 14
M  V30 14 2 11 15
M  V30 15 1 14 16
M  V30 16 1 15 17
M  V30 17 1 16 18
M  V30 18 1 16 19
M  V30 19 1 16 20
M  V30 20 1 17 21
M  V30 21 2 17 22
M  V30 22 2 21 23
M  V30 23 1 21 24
M  V30 24 1 22 25
M  V30 25 1 23 26
M  V30 26 1 23 27
M  V30 27 2 24 28
M  V30 28 2 26 29
M  V30 29 1 12 15
M  V30 30 1 13 14
M  V30 31 1 24 25
M  V30 32 1 28 29
M  V30 END BOND
M  V30 END CTAB
M  END
>  <Molecule Name>
Compound 1063

>  <Molecule Name 2>
Compound 1063

>  <Compound ID>
329

>  <Name>


>  <Uniprot>
P36888

>  <Target>
FLT3

>  <Smiles>
CC(C)(C)C1=CC(NC(=O)NC2=CC=C(C3=C[NH]C4=NC=NC(N)=C34)C=C2)=NO1

>  <Kd (nM)>


>  <Assay (Kd)>


>  <Ki (nM)>


>  <Assay (Ki)>


>  <IC50 (nM)>
6

>  <Assay (IC50)>
Inhibition of FLT3

>  <EC50 (nM)>


>  <Assay (EC50)>


>  <Article DOI>
10.1021/acs.jmedchem.9b00223

>  <Molecular Weight>
391.435

>  <Exact Mass>
391.1756729

>  <XLogP3>
2.99

>  <Heavy Atom Count>
29

>  <Ring Count>
4

>  <Hydrogen Bond Acceptor Count>
6

>  <Hydrogen Bond Donor Count>
4

>  <Rotatable Bond Count>
3

>  <Topological Polar Surface Area>
134.75

>  <Molecular Formula>
C20H21N7O2

>  <InChI>
InChI=1S/C20H21N7O2/c1-20(2,3)14-8-15(27-29-14)26-19(28)25-12-6-4-11(5-7-12)13-9-22-18-16(13)17(21)23-10-24-18/h4-10H,1-3H3,(H3,21,22,23,24)(H2,25,26,27,28)

>  <InChI Key>
SKMPZJCYMMCESN-UHFFFAOYSA-N

>  <BindingDB>
50521476

>  <PubChem>
155541132

>  <ChEMBL>
CHEMBL4517711

$$$$
330
Actelion Java MolfileCreator 2.0

  0  0  0  0  0  0              0 V3000
M  V30 BEGIN CTAB
M  V30 COUNTS 16 17 0 0 0
M  V30 BEGIN ATOM
M  V30 1 S 4.3092 -0.7318 0.0 0
M  V30 2 C 3.3147 -0.8364 0.0 0
M  V30 3 S 2.6455 -0.0932 0.0 0
M  V30 4 N 2.8147 -1.7024 0.0 0
M  V30 5 C 1.732 -0.5 0.0 0
M  V30 6 C 1.8365 -1.4945 0.0 0
M  V30 7 C 0.866 0.0 0.0 0
M  V30 8 O 1.0934 -2.1636 0.0 0
M  V30 9 C 0.0 -0.5 0.0 0
M  V30 10 C -0.866 0.0 0.0 0
M  V30 11 C 0.0 -1.4999 0.0 0
M  V30 12 C -1.732 -0.4999 0.0 0
M  V30 13 C -0.866 -1.9999 0.0 0
M  V30 14 C -1.732 -1.4999 0.0 0
M  V30 15 C -2.598 -1.9999 0.0 0
M  V30 16 C -2.598 -2.9999 0.0 0
M  V30 END ATOM
M  V30 BEGIN BOND
M  V30 1 2 1 2
M  V30 2 1 2 3
M  V30 3 1 2 4
M  V30 4 1 3 5
M  V30 5 1 4 6
M  V30 6 2 5 7
M  V30 7 2 6 8
M  V30 8 1 7 9
M  V30 9 2 9 10
M  V30 10 1 9 11
M  V30 11 1 10 12
M  V30 12 2 11 13
M  V30 13 2 12 14
M  V30 14 1 14 15
M  V30 15 1 15 16
M  V30 16 1 5 6
M  V30 17 1 13 14
M  V30 END BOND
M  V30 END CTAB
M  END
>  <Molecule Name>
Compound 1064

>  <Molecule Name 2>
Compound 1064

>  <Compound ID>
330

>  <Name>
10058-F4

>  <Uniprot>
P01106

>  <Target>
MYC

>  <Smiles>
CCC1=CC=C(/C=C2/SC(=S)NC2=O)C=C1

>  <Kd (nM)>


>  <Assay (Kd)>


>  <Ki (nM)>


>  <Assay (Ki)>


>  <IC50 (nM)>


>  <Assay (IC50)>


>  <EC50 (nM)>


>  <Assay (EC50)>


>  <Article DOI>
10.1016/j.bioorg.2021.105505

>  <Molecular Weight>
249.36

>  <Exact Mass>
249.028206

>  <XLogP3>
3.59

>  <Heavy Atom Count>
16

>  <Ring Count>
2

>  <Hydrogen Bond Acceptor Count>
3

>  <Hydrogen Bond Donor Count>
1

>  <Rotatable Bond Count>
2

>  <Topological Polar Surface Area>
29.1

>  <Molecular Formula>
C12H11NOS2

>  <InChI>
InChI=1S/C12H11NOS2/c1-2-8-3-5-9(6-4-8)7-10-11(14)13-12(15)16-10/h3-7H,2H2,1H3,(H,13,14,15)/b10-7+

>  <InChI Key>
SVXDHPADAXBMFB-JXMROGBWSA-N

>  <BindingDB>


>  <PubChem>
1271002

>  <ChEMBL>
CHEMBL1568415

$$$$
331
Actelion Java MolfileCreator 2.0

  0  0  0  0  0  0              0 V3000
M  V30 BEGIN CTAB
M  V30 COUNTS 33 37 0 0 0
M  V30 BEGIN ATOM
M  V30 1 O 2.6108 -0.7536 0.0 0
M  V30 2 C 1.3054 0.0 0.0 0
M  V30 3 O 1.3054 1.5073 0.0 0
M  V30 4 C 0.0 -0.7536 0.0 0 CFG=2
M  V30 5 C -1.3054 -1.5073 0.0 0 CFG=2
M  V30 6 C 1.3054 -1.5073 0.0 0
M  V30 7 C 0.0 0.7536 0.0 0
M  V30 8 C -1.3054 -3.0147 0.0 0
M  V30 9 C -2.6108 -0.7536 0.0 0 CFG=2
M  V30 10 C 1.3054 -3.0147 0.0 0
M  V30 11 C -1.3054 1.5073 0.0 0
M  V30 12 C -2.6108 -3.7684 0.0 0
M  V30 13 C 0.0 -3.7684 0.0 0 CFG=1
M  V30 14 C -2.6108 0.7536 0.0 0 CFG=1
M  V30 15 C -3.9163 -1.5073 0.0 0
M  V30 16 C -2.6108 -5.2758 0.0 0
M  V30 17 C 0.0 -5.2758 0.0 0 CFG=1
M  V30 18 C 1.214 -4.1565 0.0 0
M  V30 19 C -3.9163 1.5073 0.0 0
M  V30 20 C -1.3054 -6.0295 0.0 0 CFG=1
M  V30 21 C 1.3054 -6.0295 0.0 0
M  V30 22 C 1.3511 -4.7049 0.0 0
M  V30 23 C -1.3054 -7.5369 0.0 0 CFG=2
M  V30 24 C 1.3054 -7.5369 0.0 0
M  V30 25 C 0.0 -8.2906 0.0 0 CFG=1
M  V30 26 C -2.6108 -8.2906 0.0 0
M  V30 27 C -2.6108 -6.7832 0.0 0
M  V30 28 C 0.0 -9.798 0.0 0
M  V30 29 C -2.6108 -9.798 0.0 0
M  V30 30 C -1.3054 -10.5517 0.0 0 CFG=2
M  V30 31 C 0.7536 -11.1034 0.0 0
M  V30 32 C 1.5073 -9.798 0.0 0
M  V30 33 O -1.3054 -12.0591 0.0 0
M  V30 END ATOM
M  V30 BEGIN BOND
M  V30 1 2 1 2
M  V30 2 1 2 3
M  V30 3 1 4 2 CFG=1
M  V30 4 1 5 4
M  V30 5 1 4 6
M  V30 6 1 4 7
M  V30 7 1 5 8 CFG=3
M  V30 8 1 9 5
M  V30 9 1 6 10
M  V30 10 1 7 11
M  V30 11 2 8 12
M  V30 12 1 13 8
M  V30 13 1 14 9
M  V30 14 1 9 15 CFG=1
M  V30 15 1 12 16
M  V30 16 1 17 13
M  V30 17 1 13 18 CFG=3
M  V30 18 1 14 19 CFG=3
M  V30 19 1 20 16 CFG=1
M  V30 20 1 17 21
M  V30 21 1 17 22 CFG=1
M  V30 22 1 23 20
M  V30 23 1 21 24
M  V30 24 1 25 23
M  V30 25 1 23 26
M  V30 26 1 23 27 CFG=1
M  V30 27 1 25 28
M  V30 28 1 26 29
M  V30 29 1 30 28
M  V30 30 1 28 31
M  V30 31 1 28 32
M  V30 32 1 30 33 CFG=1
M  V30 33 1 10 13
M  V30 34 1 11 14
M  V30 35 1 17 20
M  V30 36 1 25 24 CFG=1
M  V30 37 1 29 30
M  V30 END BOND
M  V30 BEGIN COLLECTION
M  V30 MDLV30/STEABS ATOMS=(10 4 5 9 13 14 17 20 23 25 30)
M  V30 END COLLECTION
M  V30 END CTAB
M  END
>  <Molecule Name>
Compound 1065

>  <Molecule Name 2>
Compound 1065

>  <Compound ID>
331

>  <Name>
Ursolic acid

>  <Uniprot>
Q00987

>  <Target>
MDM2

>  <Smiles>
C[C@@H]1[C@H]2C3=CC[C@@H]4[C@@]5(C)CC[C@H](O)C(C)(C)[C@@H]5CC[C@@]4(C)[C@]3(C)CC[C@@]2(C(=O)O)CC[C@H]1C

>  <Kd (nM)>


>  <Assay (Kd)>


>  <Ki (nM)>


>  <Assay (Ki)>


>  <IC50 (nM)>
25050

>  <Assay (IC50)>
Inhibit proliferation of A549 cells

>  <EC50 (nM)>


>  <Assay (EC50)>


>  <Article DOI>
10.1016/j.bioorg.2021.104901

>  <Molecular Weight>
456.711

>  <Exact Mass>
456.3603454

>  <XLogP3>
7.34

>  <Heavy Atom Count>
33

>  <Ring Count>
5

>  <Hydrogen Bond Acceptor Count>
2

>  <Hydrogen Bond Donor Count>
2

>  <Rotatable Bond Count>
1

>  <Topological Polar Surface Area>
57.53

>  <Molecular Formula>
C30H48O3

>  <InChI>
InChI=1S/C30H48O3/c1-18-10-15-30(25(32)33)17-16-28(6)20(24(30)19(18)2)8-9-22-27(5)13-12-23(31)26(3,4)21(27)11-14-29(22,28)7/h8,18-19,21-24,31H,9-17H2,1-7H3,(H,32,33)/t18-,19+,21+,22-,23+,24+,27+,28-,29-,30+/m1/s1

>  <InChI Key>
WCGUUGGRBIKTOS-GPOJBZKASA-N

>  <BindingDB>
50148911

>  <PubChem>
64945

>  <ChEMBL>
CHEMBL169

$$$$
332
Actelion Java MolfileCreator 2.0

  0  0  0  0  0  0              0 V3000
M  V30 BEGIN CTAB
M  V30 COUNTS 33 35 0 0 0
M  V30 BEGIN ATOM
M  V30 1 O 6.0621 0.0 0.0 0
M  V30 2 C 5.1961 -0.5 0.0 0
M  V30 3 N 4.3301 0.0 0.0 0
M  V30 4 C 5.1961 -1.4999 0.0 0
M  V30 5 C 3.4641 -0.5 0.0 0
M  V30 6 C 2.598 0.0 0.0 0
M  V30 7 N 1.732 -0.5 0.0 0
M  V30 8 C 0.866 0.0 0.0 0
M  V30 9 C 0.0 -0.5 0.0 0
M  V30 10 C -0.866 0.0 0.0 0
M  V30 11 C 0.0 -1.4999 0.0 0
M  V30 12 O -0.866 1.0 0.0 0
M  V30 13 C -1.732 -0.4999 0.0 0
M  V30 14 O 0.866 -2.0 0.0 0
M  V30 15 C -0.866 -1.9999 0.0 0
M  V30 16 C -1.732 1.5 0.0 0
M  V30 17 C -1.732 -1.4999 0.0 0
M  V30 18 C 1.732 -1.5 0.0 0
M  V30 19 O -2.598 -1.9999 0.0 0
M  V30 20 C -3.4641 -1.4999 0.0 0
M  V30 21 C -4.3301 -1.9999 0.0 0
M  V30 22 C -5.1961 -1.4999 0.0 0
M  V30 23 C -4.3301 -2.9999 0.0 0
M  V30 24 C -6.0621 -1.9999 0.0 0
M  V30 25 C -5.1961 -0.4999 0.0 0
M  V30 26 C -5.1961 -3.4999 0.0 0
M  V30 27 C -6.9282 -1.4999 0.0 0
M  V30 28 C -6.0621 -2.9999 0.0 0
M  V30 29 C -6.9282 -0.4999 0.0 0
M  V30 30 C -7.7942 -1.9999 0.0 0
M  V30 31 C -7.7942 0.0 0.0 0
M  V30 32 C -8.6602 -1.4999 0.0 0
M  V30 33 C -8.6602 -0.4999 0.0 0
M  V30 END ATOM
M  V30 BEGIN BOND
M  V30 1 2 1 2
M  V30 2 1 2 3
M  V30 3 1 2 4
M  V30 4 1 3 5
M  V30 5 1 5 6
M  V30 6 1 6 7
M  V30 7 1 7 8
M  V30 8 1 8 9
M  V30 9 2 9 10
M  V30 10 1 9 11
M  V30 11 1 10 12
M  V30 12 1 10 13
M  V30 13 1 11 14
M  V30 14 2 11 15
M  V30 15 1 12 16
M  V30 16 2 13 17
M  V30 17 1 14 18
M  V30 18 1 17 19
M  V30 19 1 19 20
M  V30 20 1 20 21
M  V30 21 2 21 22
M  V30 22 1 21 23
M  V30 23 1 22 24
M  V30 24 1 22 25
M  V30 25 2 23 26
M  V30 26 1 24 27
M  V30 27 2 24 28
M  V30 28 2 27 29
M  V30 29 1 27 30
M  V30 30 1 29 31
M  V30 31 2 30 32
M  V30 32 2 31 33
M  V30 33 1 15 17
M  V30 34 1 26 28
M  V30 35 1 32 33
M  V30 END BOND
M  V30 END CTAB
M  END
>  <Molecule Name>
Compound 1066

>  <Molecule Name 2>
Compound 1066

>  <Compound ID>
332

>  <Name>
BMS-37

>  <Uniprot>
Q9NZQ7

>  <Target>
PD-L1

>  <Smiles>
COC1=CC(OCC2=CC=CC(C3=CC=CC=C3)=C2C)=CC(OC)=C1CNCCNC(C)=O

>  <Kd (nM)>


>  <Assay (Kd)>


>  <Ki (nM)>


>  <Assay (Ki)>


>  <IC50 (nM)>
6-100

>  <Assay (IC50)>
IC50 was assessed by the HTRF binding assay

>  <EC50 (nM)>


>  <Assay (EC50)>


>  <Article DOI>
10.1021/acs.jmedchem.7b00293

>  <Molecular Weight>
448.563

>  <Exact Mass>
448.2362075

>  <XLogP3>
4

>  <Heavy Atom Count>
33

>  <Ring Count>
3

>  <Hydrogen Bond Acceptor Count>
5

>  <Hydrogen Bond Donor Count>
2

>  <Rotatable Bond Count>
11

>  <Topological Polar Surface Area>
68.82

>  <Molecular Formula>
C27H32N2O4

>  <InChI>
InChI=1S/C27H32N2O4/c1-19-22(11-8-12-24(19)21-9-6-5-7-10-21)18-33-23-15-26(31-3)25(27(16-23)32-4)17-28-13-14-29-20(2)30/h5-12,15-16,28H,13-14,17-18H2,1-4H3,(H,29,30)

>  <InChI Key>
OYNIISWIMDFFAF-UHFFFAOYSA-N

>  <BindingDB>


>  <PubChem>
117941658

>  <ChEMBL>
CHEMBL4081869

$$$$
333
Actelion Java MolfileCreator 2.0

  0  0  0  0  0  0              0 V3000
M  V30 BEGIN CTAB
M  V30 COUNTS 29 31 0 0 0
M  V30 BEGIN ATOM
M  V30 1 Cl 8.6602 -0.4999 0.0 0
M  V30 2 C 7.7942 0.0 0.0 0
M  V30 3 C 7.7942 1.0 0.0 0
M  V30 4 C 6.9282 -0.4999 0.0 0
M  V30 5 C 8.6602 1.5 0.0 0
M  V30 6 C 6.9282 1.5 0.0 0
M  V30 7 C 6.0621 0.0 0.0 0
M  V30 8 C 9.5262 1.0 0.0 0
M  V30 9 C 8.6602 2.5 0.0 0
M  V30 10 C 6.0621 1.0 0.0 0
M  V30 11 O 5.1961 -0.4999 0.0 0
M  V30 12 Cl 9.5262 0.0 0.0 0
M  V30 13 C 10.3923 1.5 0.0 0
M  V30 14 C 9.5262 3.0 0.0 0
M  V30 15 C 5.1961 1.5 0.0 0
M  V30 16 C 5.1961 -1.4999 0.0 0
M  V30 17 C 10.3923 2.5 0.0 0
M  V30 18 Cl 9.5262 4.0 0.0 0
M  V30 19 O 5.1961 2.5 0.0 0
M  V30 20 N 4.3301 1.0 0.0 0
M  V30 21 C 3.4641 1.5 0.0 0
M  V30 22 C 4.3301 0.0 0.0 0
M  V30 23 C 2.598 0.9999 0.0 0
M  V30 24 C 3.4641 -0.4999 0.0 0
M  V30 25 N 2.598 0.0 0.0 0
M  V30 26 C 1.732 -0.5 0.0 0
M  V30 27 O 1.732 -1.5 0.0 0
M  V30 28 C 0.866 0.0 0.0 0
M  V30 29 C 0.0 -0.5 0.0 0
M  V30 END ATOM
M  V30 BEGIN BOND
M  V30 1 1 1 2
M  V30 2 2 2 3
M  V30 3 1 2 4
M  V30 4 1 3 5
M  V30 5 1 3 6
M  V30 6 2 4 7
M  V30 7 2 5 8
M  V30 8 1 5 9
M  V30 9 2 6 10
M  V30 10 1 7 11
M  V30 11 1 8 12
M  V30 12 1 8 13
M  V30 13 2 9 14
M  V30 14 1 10 15
M  V30 15 1 11 16
M  V30 16 2 13 17
M  V30 17 1 14 18
M  V30 18 2 15 19
M  V30 19 1 15 20
M  V30 20 1 20 21
M  V30 21 1 20 22
M  V30 22 1 21 23
M  V30 23 1 22 24
M  V30 24 1 23 25
M  V30 25 1 25 26
M  V30 26 2 26 27
M  V30 27 1 26 28
M  V30 28 2 28 29
M  V30 29 1 7 10
M  V30 30 1 14 17
M  V30 31 1 24 25
M  V30 END BOND
M  V30 END CTAB
M  END
>  <Molecule Name>
Compound 1067

>  <Molecule Name 2>
Compound 1067

>  <Compound ID>
333

>  <Name>
KRas G12C-IN-3

>  <Uniprot>
P01116

>  <Target>
KRAS G12C

>  <Smiles>
C=CC(=O)N1CCN(C(=O)C2=CC(C3=CC(Cl)=CC=C3Cl)=C(Cl)C=C2OC)CC1

>  <Kd (nM)>


>  <Assay (Kd)>


>  <Ki (nM)>


>  <Assay (Ki)>


>  <IC50 (nM)>


>  <Assay (IC50)>


>  <EC50 (nM)>


>  <Assay (EC50)>


>  <Article DOI>


>  <Molecular Weight>
453.753

>  <Exact Mass>
452.0461255

>  <XLogP3>
4.72

>  <Heavy Atom Count>
29

>  <Ring Count>
3

>  <Hydrogen Bond Acceptor Count>
3

>  <Hydrogen Bond Donor Count>
0

>  <Rotatable Bond Count>
4

>  <Topological Polar Surface Area>
49.85

>  <Molecular Formula>
C21H19Cl3N2O3

>  <InChI>
InChI=1S/C21H19Cl3N2O3/c1-3-20(27)25-6-8-26(9-7-25)21(28)16-11-15(18(24)12-19(16)29-2)14-10-13(22)4-5-17(14)23/h3-5,10-12H,1,6-9H2,2H3

>  <InChI Key>
RPBHAPLCWWQJAK-UHFFFAOYSA-N

>  <BindingDB>


>  <PubChem>
92044410

>  <ChEMBL>


$$$$
334
Actelion Java MolfileCreator 2.0

  0  0  0  0  0  0              0 V3000
M  V30 BEGIN CTAB
M  V30 COUNTS 29 32 0 0 0
M  V30 BEGIN ATOM
M  V30 1 Cl 7.7942 -2.25 0.0 0
M  V30 2 C 7.7942 -0.75 0.0 0
M  V30 3 C 9.0932 0.0 0.0 0
M  V30 4 C 6.4951 0.0 0.0 0
M  V30 5 Cl 10.3923 -0.75 0.0 0
M  V30 6 C 9.0932 1.5 0.0 0
M  V30 7 C 5.1961 -0.75 0.0 0
M  V30 8 C 6.4951 1.5 0.0 0
M  V30 9 C 7.7942 2.25 0.0 0
M  V30 10 N 3.8971 0.0 0.0 0
M  V30 11 C 5.1961 -2.2499 0.0 0
M  V30 12 C 2.598 -0.75 0.0 0
M  V30 13 N 3.8971 -3.0 0.0 0
M  V30 14 C 6.4951 -2.9999 0.0 0
M  V30 15 C 2.598 -2.25 0.0 0
M  V30 16 C 1.299 0.0 0.0 0
M  V30 17 N 1.299 -2.9999 0.0 0
M  V30 18 O 0.0 -0.75 0.0 0
M  V30 19 C 0.0 -2.25 0.0 0
M  V30 20 C 1.299 -4.5 0.0 0
M  V30 21 C -1.299 -2.9999 0.0 0
M  V30 22 C 0.0 -5.2499 0.0 0
M  V30 23 C -1.299 -4.4999 0.0 0
M  V30 24 C -2.6693 -3.8898 0.0 0 CFG=2
M  V30 25 C -1.4558 -5.9917 0.0 0
M  V30 26 N -2.9812 -2.4226 0.0 0
M  V30 27 C -3.673 -5.0046 0.0 0 CFG=1
M  V30 28 O -2.923 -6.3036 0.0 0
M  V30 29 C -5.1648 -4.8478 0.0 0
M  V30 END ATOM
M  V30 BEGIN BOND
M  V30 1 1 1 2
M  V30 2 2 2 3
M  V30 3 1 2 4
M  V30 4 1 3 5
M  V30 5 1 3 6
M  V30 6 1 4 7
M  V30 7 2 4 8
M  V30 8 2 6 9
M  V30 9 2 7 10
M  V30 10 1 7 11
M  V30 11 1 10 12
M  V30 12 2 11 13
M  V30 13 1 11 14
M  V30 14 2 12 15
M  V30 15 1 12 16
M  V30 16 1 15 17
M  V30 17 1 16 18
M  V30 18 1 17 19
M  V30 19 1 17 20
M  V30 20 1 19 21
M  V30 21 1 20 22
M  V30 22 1 21 23
M  V30 23 1 24 23
M  V30 24 1 23 25
M  V30 25 1 24 26 CFG=1
M  V30 26 1 27 24
M  V30 27 1 25 28
M  V30 28 1 27 29 CFG=1
M  V30 29 1 8 9
M  V30 30 1 13 15
M  V30 31 1 22 23
M  V30 32 1 27 28
M  V30 END BOND
M  V30 BEGIN COLLECTION
M  V30 MDLV30/STEABS ATOMS=(2 24 27)
M  V30 END COLLECTION
M  V30 END CTAB
M  END
>  <Molecule Name>
Compound 1068

>  <Molecule Name 2>
Compound 1068

>  <Compound ID>
334

>  <Name>
RMC-4550

>  <Uniprot>
Q06124

>  <Target>
SHP2

>  <Smiles>
CC1=NC(N2CCC3(CC2)CO[C@@H](C)[C@H]3N)=C(CO)N=C1C1=CC=CC(Cl)=C1Cl

>  <Kd (nM)>


>  <Assay (Kd)>


>  <Ki (nM)>


>  <Assay (Ki)>


>  <IC50 (nM)>
31

>  <Assay (IC50)>
Allosteric inhibition of SHP2

>  <EC50 (nM)>


>  <Assay (EC50)>


>  <Article DOI>
10.1021/acs.jmedchem.0c00249

>  <Molecular Weight>
437.371

>  <Exact Mass>
436.1432814

>  <XLogP3>
2.49

>  <Heavy Atom Count>
29

>  <Ring Count>
4

>  <Hydrogen Bond Acceptor Count>
6

>  <Hydrogen Bond Donor Count>
2

>  <Rotatable Bond Count>
3

>  <Topological Polar Surface Area>
84.5

>  <Molecular Formula>
C21H26Cl2N4O2

>  <InChI>
InChI=1S/C21H26Cl2N4O2/c1-12-18(14-4-3-5-15(22)17(14)23)26-16(10-28)20(25-12)27-8-6-21(7-9-27)11-29-13(2)19(21)24/h3-5,13,19,28H,6-11,24H2,1-2H3/t13-,19+/m0/s1

>  <InChI Key>
IKUYEYLZXGGCRD-ORAYPTAESA-N

>  <BindingDB>
50546219

>  <PubChem>
134183206

>  <ChEMBL>
CHEMBL4752026

$$$$
335
Actelion Java MolfileCreator 2.0

  0  0  0  0  0  0              0 V3000
M  V30 BEGIN CTAB
M  V30 COUNTS 31 33 0 0 0
M  V30 BEGIN ATOM
M  V30 1 S 13.0616 -2.3898 0.0 0
M  V30 2 C 11.6913 -3.0 0.0 0
M  V30 3 C 14.0653 -3.5046 0.0 0
M  V30 4 N 11.8481 -4.4917 0.0 0
M  V30 5 C 10.3923 -2.25 0.0 0
M  V30 6 C 13.3153 -4.8036 0.0 0
M  V30 7 C 10.3923 -0.75 0.0 0
M  V30 8 C 9.0932 -3.0 0.0 0
M  V30 9 C 13.9254 -6.1739 0.0 0
M  V30 10 C 9.0932 0.0 0.0 0
M  V30 11 C 7.7942 -2.25 0.0 0
M  V30 12 N 13.0437 -7.3874 0.0 0
M  V30 13 C 7.7942 -0.75 0.0 0
M  V30 14 C 13.6538 -8.7578 0.0 0
M  V30 15 C 6.4951 0.0 0.0 0
M  V30 16 N 12.7722 -9.9713 0.0 0
M  V30 17 N 15.1456 -8.9146 0.0 0
M  V30 18 O 6.4951 1.5 0.0 0
M  V30 19 N 5.1961 -0.75 0.0 0
M  V30 20 C 13.3823 -11.3416 0.0 0
M  V30 21 C 15.7557 -10.2849 0.0 0
M  V30 22 C 3.8971 0.0 0.0 0
M  V30 23 N 12.5006 -12.5551 0.0 0
M  V30 24 C 14.874 -11.4984 0.0 0
M  V30 25 C 2.598 -0.75 0.0 0
M  V30 26 C 13.1107 -13.9254 0.0 0
M  V30 27 O 1.299 0.0 0.0 0
M  V30 28 C 12.229 -15.139 0.0 0
M  V30 29 C 0.0 -0.75 0.0 0
M  V30 30 C 10.7372 -14.9822 0.0 0
M  V30 31 C 12.8391 -16.5093 0.0 0
M  V30 END ATOM
M  V30 BEGIN BOND
M  V30 1 1 1 2
M  V30 2 1 1 3
M  V30 3 2 2 4
M  V30 4 1 2 5
M  V30 5 2 3 6
M  V30 6 2 5 7
M  V30 7 1 5 8
M  V30 8 1 6 9
M  V30 9 1 7 10
M  V30 10 2 8 11
M  V30 11 1 9 12
M  V30 12 2 10 13
M  V30 13 1 12 14
M  V30 14 1 13 15
M  V30 15 2 14 16
M  V30 16 1 14 17
M  V30 17 2 15 18
M  V30 18 1 15 19
M  V30 19 1 16 20
M  V30 20 2 17 21
M  V30 21 1 19 22
M  V30 22 1 20 23
M  V30 23 2 20 24
M  V30 24 1 22 25
M  V30 25 1 23 26
M  V30 26 1 25 27
M  V30 27 1 26 28
M  V30 28 1 27 29
M  V30 29 1 28 30
M  V30 30 1 28 31
M  V30 31 1 4 6
M  V30 32 1 11 13
M  V30 33 1 21 24
M  V30 END BOND
M  V30 END CTAB
M  END
>  <Molecule Name>
Compound 1069

>  <Molecule Name 2>
Compound 1069

>  <Compound ID>
335

>  <Name>
KHS108

>  <Uniprot>
Q9Y6A5

>  <Target>
TACC3

>  <Smiles>
COCCNC(=O)C1=CC=C(C2=NC(CNC3=NC=CC(NCC(C)C)=N3)=CS2)C=C1

>  <Kd (nM)>


>  <Assay (Kd)>


>  <Ki (nM)>


>  <Assay (Ki)>


>  <IC50 (nM)>


>  <Assay (IC50)>


>  <EC50 (nM)>


>  <Assay (EC50)>


>  <Article DOI>
10.1073/pnas.1010300107

>  <Molecular Weight>
440.573

>  <Exact Mass>
440.1994451

>  <XLogP3>
3.52

>  <Heavy Atom Count>
31

>  <Ring Count>
3

>  <Hydrogen Bond Acceptor Count>
8

>  <Hydrogen Bond Donor Count>
3

>  <Rotatable Bond Count>
11

>  <Topological Polar Surface Area>
101.06

>  <Molecular Formula>
C22H28N6O2S

>  <InChI>
InChI=1S/C22H28N6O2S/c1-15(2)12-25-19-8-9-24-22(28-19)26-13-18-14-31-21(27-18)17-6-4-16(5-7-17)20(29)23-10-11-30-3/h4-9,14-15H,10-13H2,1-3H3,(H,23,29)(H2,24,25,26,28)

>  <InChI Key>
QSSAUOBLRDZWRQ-UHFFFAOYSA-N

>  <BindingDB>


>  <PubChem>


>  <ChEMBL>


$$$$
336
Actelion Java MolfileCreator 2.0

  0  0  0  0  0  0              0 V3000
M  V30 BEGIN CTAB
M  V30 COUNTS 20 22 0 0 0
M  V30 BEGIN ATOM
M  V30 1 Cl 3.4641 -0.5 0.0 0
M  V30 2 C 2.598 0.0 0.0 0
M  V30 3 C 2.598 0.9999 0.0 0
M  V30 4 C 1.732 -0.4999 0.0 0
M  V30 5 C 3.4641 1.4999 0.0 0
M  V30 6 C 1.732 1.4999 0.0 0
M  V30 7 C 0.866 0.0 0.0 0
M  V30 8 N 4.3301 1.9999 0.0 0
M  V30 9 C 0.866 1.0 0.0 0
M  V30 10 N 0.0 -0.5 0.0 0
M  V30 11 C -0.9135 -0.0932 0.0 0 CFG=2
M  V30 12 C -0.1045 -1.4945 0.0 0
M  V30 13 C -1.5826 -0.8364 0.0 0
M  V30 14 C -1.1214 0.8848 0.0 0
M  V30 15 C -1.0826 -1.7024 0.0 0
M  V30 16 C -2.0771 -1.8069 0.0 0
M  V30 17 C -0.4948 -2.5114 0.0 0
M  V30 18 C -2.4839 -2.7205 0.0 0
M  V30 19 C -0.9016 -3.4249 0.0 0
M  V30 20 N -1.8961 -3.5295 0.0 0
M  V30 END ATOM
M  V30 BEGIN BOND
M  V30 1 1 1 2
M  V30 2 2 2 3
M  V30 3 1 2 4
M  V30 4 1 3 5
M  V30 5 1 3 6
M  V30 6 2 4 7
M  V30 7 3 5 8
M  V30 8 2 6 9
M  V30 9 1 7 10
M  V30 10 1 11 10
M  V30 11 1 10 12
M  V30 12 1 11 13
M  V30 13 1 11 14 CFG=3
M  V30 14 1 12 15
M  V30 15 1 15 16
M  V30 16 1 15 17
M  V30 17 1 16 18
M  V30 18 1 17 19
M  V30 19 1 18 20
M  V30 20 1 7 9
M  V30 21 1 13 15
M  V30 22 1 19 20
M  V30 END BOND
M  V30 BEGIN COLLECTION
M  V30 MDLV30/STEABS ATOMS=(1 11)
M  V30 END COLLECTION
M  V30 END CTAB
M  END
>  <Molecule Name>
Compound 1070

>  <Molecule Name 2>
Compound 1070

>  <Compound ID>
336

>  <Name>


>  <Uniprot>
P10275

>  <Target>
AR

>  <Smiles>
C[C@H]1CC2(CCNCC2)CN1C1=CC=C(C#N)C(Cl)=C1

>  <Kd (nM)>


>  <Assay (Kd)>


>  <Ki (nM)>


>  <Assay (Ki)>


>  <IC50 (nM)>


>  <Assay (IC50)>


>  <EC50 (nM)>


>  <Assay (EC50)>


>  <Article DOI>


>  <Molecular Weight>
289.81

>  <Exact Mass>
289.1345753

>  <XLogP3>
3.13

>  <Heavy Atom Count>
20

>  <Ring Count>
3

>  <Hydrogen Bond Acceptor Count>
3

>  <Hydrogen Bond Donor Count>
1

>  <Rotatable Bond Count>
1

>  <Topological Polar Surface Area>
39.06

>  <Molecular Formula>
C16H20ClN3

>  <InChI>
InChI=1S/C16H20ClN3/c1-12-9-16(4-6-19-7-5-16)11-20(12)14-3-2-13(10-18)15(17)8-14/h2-3,8,12,19H,4-7,9,11H2,1H3/t12-/m0/s1

>  <InChI Key>
VIWFUEBSMLFMNH-LBPRGKRZSA-N

>  <BindingDB>


>  <PubChem>
156180657

>  <ChEMBL>


$$$$
337
Actelion Java MolfileCreator 2.0

  0  0  0  0  0  0              0 V3000
M  V30 BEGIN CTAB
M  V30 COUNTS 21 23 0 0 0
M  V30 BEGIN ATOM
M  V30 1 Cl 5.1961 -0.75 0.0 0
M  V30 2 C 3.8971 0.0 0.0 0
M  V30 3 C 3.8971 1.4999 0.0 0
M  V30 4 C 2.598 -0.7499 0.0 0
M  V30 5 C 5.1961 2.2499 0.0 0
M  V30 6 C 2.598 2.2499 0.0 0
M  V30 7 C 1.299 0.0 0.0 0
M  V30 8 C 2.598 -2.25 0.0 0
M  V30 9 N 6.4951 2.9999 0.0 0
M  V30 10 C 1.299 1.5 0.0 0
M  V30 11 N 0.0 -0.75 0.0 0
M  V30 12 C -1.3703 -0.1398 0.0 0 CFG=2
M  V30 13 C -0.1567 -2.2417 0.0 0
M  V30 14 C -2.374 -1.2546 0.0 0
M  V30 15 C -1.6821 1.3273 0.0 0
M  V30 16 C -1.624 -2.5536 0.0 0
M  V30 17 C -2.9841 0.1157 0.0 0
M  V30 18 C -3.2556 -2.4681 0.0 0
M  V30 19 C -4.4759 0.2724 0.0 0
M  V30 20 C -4.7474 -2.3113 0.0 0
M  V30 21 N -5.3575 -0.941 0.0 0
M  V30 END ATOM
M  V30 BEGIN BOND
M  V30 1 1 1 2
M  V30 2 2 2 3
M  V30 3 1 2 4
M  V30 4 1 3 5
M  V30 5 1 3 6
M  V30 6 2 4 7
M  V30 7 1 4 8
M  V30 8 3 5 9
M  V30 9 2 6 10
M  V30 10 1 7 11
M  V30 11 1 12 11
M  V30 12 1 11 13
M  V30 13 1 12 14
M  V30 14 1 12 15 CFG=3
M  V30 15 1 13 16
M  V30 16 1 14 17
M  V30 17 1 14 18
M  V30 18 1 17 19
M  V30 19 1 18 20
M  V30 20 1 19 21
M  V30 21 1 7 10
M  V30 22 1 14 16
M  V30 23 1 20 21
M  V30 END BOND
M  V30 BEGIN COLLECTION
M  V30 MDLV30/STERAC1 ATOMS=(1 12)
M  V30 END COLLECTION
M  V30 END CTAB
M  END
>  <Molecule Name>
Compound 1071

>  <Molecule Name 2>
Compound 1071

>  <Compound ID>
337

>  <Name>


>  <Uniprot>
P10275

>  <Target>
AR

>  <Smiles>
CC1=C(N2CCC3(CCNCC3)C2C)C=CC(C#N)=C1Cl

>  <Kd (nM)>


>  <Assay (Kd)>


>  <Ki (nM)>


>  <Assay (Ki)>


>  <IC50 (nM)>


>  <Assay (IC50)>


>  <EC50 (nM)>


>  <Assay (EC50)>


>  <Article DOI>
10.1021/acsmedchemlett.1c00498

>  <Molecular Weight>
303.837

>  <Exact Mass>
303.1502254

>  <XLogP3>
3.49

>  <Heavy Atom Count>
21

>  <Ring Count>
3

>  <Hydrogen Bond Acceptor Count>
3

>  <Hydrogen Bond Donor Count>
1

>  <Rotatable Bond Count>
1

>  <Topological Polar Surface Area>
39.06

>  <Molecular Formula>
C17H22ClN3

>  <InChI>
InChI=1S/C17H22ClN3/c1-12-15(4-3-14(11-19)16(12)18)21-10-7-17(13(21)2)5-8-20-9-6-17/h3-4,13,20H,5-10H2,1-2H3

>  <InChI Key>
NGVNWBMUGGXHTH-UHFFFAOYSA-N

>  <BindingDB>


>  <PubChem>


>  <ChEMBL>


$$$$
338
Actelion Java MolfileCreator 2.0

  0  0  0  0  0  0              0 V3000
M  V30 BEGIN CTAB
M  V30 COUNTS 21 23 0 0 0
M  V30 BEGIN ATOM
M  V30 1 Cl 4.9635 2.481 0.0 0
M  V30 2 C 4.0124 2.172 0.0 0
M  V30 3 C 3.2693 2.8411 0.0 0
M  V30 4 C 3.8045 1.1939 0.0 0
M  V30 5 C 3.4772 3.8193 0.0 0
M  V30 6 C 2.3182 2.5321 0.0 0
M  V30 7 C 2.8535 0.8848 0.0 0
M  V30 8 N 3.6851 4.7974 0.0 0
M  V30 9 C 2.1103 1.554 0.0 0
M  V30 10 N 2.6455 -0.0932 0.0 0
M  V30 11 C 1.732 -0.5 0.0 0 CFG=2
M  V30 12 C 3.3147 -0.8364 0.0 0
M  V30 13 C 1.8365 -1.4945 0.0 0
M  V30 14 C 0.866 0.0 0.0 0
M  V30 15 C 2.8147 -1.7024 0.0 0
M  V30 16 C 0.0 -0.5 0.0 0
M  V30 17 C 2.2269 -2.5114 0.0 0
M  V30 18 C 3.8092 -1.8069 0.0 0
M  V30 19 C 2.6336 -3.4249 0.0 0
M  V30 20 C 4.2159 -2.7205 0.0 0
M  V30 21 N 3.6282 -3.5295 0.0 0
M  V30 END ATOM
M  V30 BEGIN BOND
M  V30 1 1 1 2
M  V30 2 2 2 3
M  V30 3 1 2 4
M  V30 4 1 3 5
M  V30 5 1 3 6
M  V30 6 2 4 7
M  V30 7 3 5 8
M  V30 8 2 6 9
M  V30 9 1 7 10
M  V30 10 1 11 10
M  V30 11 1 10 12
M  V30 12 1 11 13
M  V30 13 1 11 14 CFG=3
M  V30 14 1 12 15
M  V30 15 1 14 16
M  V30 16 1 15 17
M  V30 17 1 15 18
M  V30 18 1 17 19
M  V30 19 1 18 20
M  V30 20 1 19 21
M  V30 21 1 7 9
M  V30 22 1 13 15
M  V30 23 1 20 21
M  V30 END BOND
M  V30 BEGIN COLLECTION
M  V30 MDLV30/STEABS ATOMS=(1 11)
M  V30 END COLLECTION
M  V30 END CTAB
M  END
>  <Molecule Name>
Compound 1072

>  <Molecule Name 2>
Compound 1072

>  <Compound ID>
338

>  <Name>


>  <Uniprot>
P10275

>  <Target>
AR

>  <Smiles>
CC[C@H]1CC2(CCNCC2)CN1C1=CC=C(C#N)C(Cl)=C1

>  <Kd (nM)>


>  <Assay (Kd)>


>  <Ki (nM)>


>  <Assay (Ki)>


>  <IC50 (nM)>


>  <Assay (IC50)>


>  <EC50 (nM)>


>  <Assay (EC50)>


>  <Article DOI>


>  <Molecular Weight>
303.837

>  <Exact Mass>
303.1502254

>  <XLogP3>
3.66

>  <Heavy Atom Count>
21

>  <Ring Count>
3

>  <Hydrogen Bond Acceptor Count>
3

>  <Hydrogen Bond Donor Count>
1

>  <Rotatable Bond Count>
2

>  <Topological Polar Surface Area>
39.06

>  <Molecular Formula>
C17H22ClN3

>  <InChI>
InChI=1S/C17H22ClN3/c1-2-14-10-17(5-7-20-8-6-17)12-21(14)15-4-3-13(11-19)16(18)9-15/h3-4,9,14,20H,2,5-8,10,12H2,1H3/t14-/m0/s1

>  <InChI Key>
DSSAEVPIHZHWIL-AWEZNQCLSA-N

>  <BindingDB>


>  <PubChem>
156190648

>  <ChEMBL>


$$$$
339
Actelion Java MolfileCreator 2.0

  0  0  0  0  0  0              0 V3000
M  V30 BEGIN CTAB
M  V30 COUNTS 28 31 0 0 0
M  V30 BEGIN ATOM
M  V30 1 O 2.598 0.0 0.0 0
M  V30 2 C 1.732 -0.5 0.0 0
M  V30 3 N 0.866 0.0 0.0 0
M  V30 4 C 1.732 -1.5 0.0 0
M  V30 5 C 0.0 -0.5 0.0 0
M  V30 6 N 0.866 -1.9999 0.0 0
M  V30 7 C 2.598 -2.0 0.0 0
M  V30 8 C -0.866 0.0 0.0 0
M  V30 9 C 0.0 -1.4999 0.0 0
M  V30 10 C 0.866 -2.9999 0.0 0
M  V30 11 C 2.598 -3.0 0.0 0
M  V30 12 O -0.866 1.0 0.0 0
M  V30 13 C -1.732 -0.4999 0.0 0
M  V30 14 C -0.866 -1.9999 0.0 0
M  V30 15 C 0.0 -3.4999 0.0 0
M  V30 16 C 1.732 -3.5 0.0 0
M  V30 17 C -1.732 1.5 0.0 0
M  V30 18 C -1.732 -1.4999 0.0 0
M  V30 19 N -0.9135 -3.0932 0.0 0
M  V30 20 C -0.1045 -4.4945 0.0 0
M  V30 21 N -2.598 -1.9999 0.0 0
M  V30 22 N -1.5826 -3.8364 0.0 0
M  V30 23 C -1.0826 -4.7024 0.0 0
M  V30 24 C -3.4641 -1.4999 0.0 0
M  V30 25 C -2.598 -2.9999 0.0 0
M  V30 26 C -4.3301 -1.9999 0.0 0
M  V30 27 C -3.4641 -3.4999 0.0 0
M  V30 28 O -4.3301 -2.9999 0.0 0
M  V30 END ATOM
M  V30 BEGIN BOND
M  V30 1 2 1 2
M  V30 2 1 2 3
M  V30 3 1 2 4
M  V30 4 1 3 5
M  V30 5 2 4 6
M  V30 6 1 4 7
M  V30 7 2 5 8
M  V30 8 1 5 9
M  V30 9 1 6 10
M  V30 10 2 7 11
M  V30 11 1 8 12
M  V30 12 1 8 13
M  V30 13 2 9 14
M  V30 14 1 10 15
M  V30 15 2 10 16
M  V30 16 1 12 17
M  V30 17 2 13 18
M  V30 18 1 15 19
M  V30 19 2 15 20
M  V30 20 1 18 21
M  V30 21 1 19 22
M  V30 22 1 20 23
M  V30 23 1 21 24
M  V30 24 1 21 25
M  V30 25 1 24 26
M  V30 26 1 25 27
M  V30 27 1 26 28
M  V30 28 1 11 16
M  V30 29 1 14 18
M  V30 30 2 22 23
M  V30 31 1 27 28
M  V30 END BOND
M  V30 END CTAB
M  END
>  <Molecule Name>
Compound 1073

>  <Molecule Name 2>
Compound 1073

>  <Compound ID>
339

>  <Name>
GTPL8080

>  <Uniprot>
P51617

>  <Target>
IRAK1

>  <Smiles>
COC1=CC(N2CCOCC2)=CC=C1NC(=O)C1=CC=CC(C2=CC=N[NH]2)=N1

>  <Kd (nM)>


>  <Assay (Kd)>


>  <Ki (nM)>


>  <Assay (Ki)>


>  <IC50 (nM)>
9

>  <Assay (IC50)>
Inhibition of IRAK1 expressed in mammalian expression system by Kinomescan method

>  <EC50 (nM)>


>  <Assay (EC50)>


>  <Article DOI>
10.1021/acsmedchemlett.0c00378

>  <Molecular Weight>
379.42

>  <Exact Mass>
379.1644395

>  <XLogP3>
1.73

>  <Heavy Atom Count>
28

>  <Ring Count>
4

>  <Hydrogen Bond Acceptor Count>
6

>  <Hydrogen Bond Donor Count>
2

>  <Rotatable Bond Count>
5

>  <Topological Polar Surface Area>
92.37

>  <Molecular Formula>
C20H21N5O3

>  <InChI>
InChI=1S/C20H21N5O3/c1-27-19-13-14(25-9-11-28-12-10-25)5-6-17(19)23-20(26)18-4-2-3-15(22-18)16-7-8-21-24-16/h2-8,13H,9-12H2,1H3,(H,21,24)(H,23,26)

>  <InChI Key>
RAFFLDOJXQAJPF-UHFFFAOYSA-N

>  <BindingDB>
50373415

>  <PubChem>
44449334

>  <ChEMBL>
CHEMBL256713

$$$$
340
Actelion Java MolfileCreator 2.0

  0  0  0  0  0  0              0 V3000
M  V30 BEGIN CTAB
M  V30 COUNTS 23 26 0 0 0
M  V30 BEGIN ATOM
M  V30 1 N 3.4641 0.5 0.0 0
M  V30 2 C 2.598 0.0 0.0 0
M  V30 3 C 1.732 -0.5 0.0 0
M  V30 4 C 0.866 0.0 0.0 0 CFG=1
M  V30 5 N 0.866 1.0 0.0 0
M  V30 6 C 0.0 -0.5 0.0 0
M  V30 7 N 1.675 1.5877 0.0 0
M  V30 8 C 0.057 1.5877 0.0 0
M  V30 9 C -0.9135 -0.0932 0.0 0
M  V30 10 C -0.1045 -1.4945 0.0 0
M  V30 11 C 1.366 2.5388 0.0 0
M  V30 12 C 0.366 2.5388 0.0 0
M  V30 13 C -1.5826 -0.8364 0.0 0
M  V30 14 C -1.0826 -1.7024 0.0 0
M  V30 15 C -0.2217 3.3478 0.0 0
M  V30 16 N 0.1849 4.2614 0.0 0
M  V30 17 C -1.2162 3.2433 0.0 0
M  V30 18 C -0.4028 5.0704 0.0 0
M  V30 19 C -1.804 4.0523 0.0 0
M  V30 20 C -1.804 2.4343 0.0 0
M  V30 21 N -1.3973 4.9658 0.0 0
M  V30 22 N -2.7551 3.7433 0.0 0
M  V30 23 C -2.7551 2.7433 0.0 0
M  V30 END ATOM
M  V30 BEGIN BOND
M  V30 1 3 1 2
M  V30 2 1 2 3
M  V30 3 1 4 3
M  V30 4 1 4 5 CFG=3
M  V30 5 1 4 6
M  V30 6 1 5 7
M  V30 7 1 5 8
M  V30 8 1 6 9
M  V30 9 1 6 10
M  V30 10 2 7 11
M  V30 11 2 8 12
M  V30 12 1 9 13
M  V30 13 1 10 14
M  V30 14 1 12 15
M  V30 15 2 15 16
M  V30 16 1 15 17
M  V30 17 1 16 18
M  V30 18 2 17 19
M  V30 19 1 17 20
M  V30 20 2 18 21
M  V30 21 1 19 22
M  V30 22 2 20 23
M  V30 23 1 11 12
M  V30 24 1 13 14
M  V30 25 1 19 21
M  V30 26 1 22 23
M  V30 END BOND
M  V30 BEGIN COLLECTION
M  V30 MDLV30/STEABS ATOMS=(1 4)
M  V30 END COLLECTION
M  V30 END CTAB
M  END
>  <Molecule Name>
Compound 1074

>  <Molecule Name 2>
Compound 1074

>  <Compound ID>
340

>  <Name>
Ruxolitinib

>  <Uniprot>
O60674

>  <Target>
JAK2

>  <Smiles>
N#CC[C@H](C1CCCC1)N1C=C(C2=NC=NC3=C2C=C[NH]3)C=N1

>  <Kd (nM)>


>  <Assay (Kd)>


>  <Ki (nM)>


>  <Assay (Ki)>


>  <IC50 (nM)>
0.2

>  <Assay (IC50)>
Inhibition of JAK2

>  <EC50 (nM)>


>  <Assay (EC50)>


>  <Article DOI>
10.1021/jm501262q

>  <Molecular Weight>
306.373

>  <Exact Mass>
306.1592946

>  <XLogP3>
2.12

>  <Heavy Atom Count>
23

>  <Ring Count>
4

>  <Hydrogen Bond Acceptor Count>
5

>  <Hydrogen Bond Donor Count>
1

>  <Rotatable Bond Count>
4

>  <Topological Polar Surface Area>
83.18

>  <Molecular Formula>
C17H18N6

>  <InChI>
InChI=1S/C17H18N6/c18-7-5-15(12-3-1-2-4-12)23-10-13(9-22-23)16-14-6-8-19-17(14)21-11-20-16/h6,8-12,15H,1-5H2,(H,19,20,21)/t15-/m1/s1

>  <InChI Key>
HFNKQEVNSGCOJV-OAHLLOKOSA-N

>  <BindingDB>
50355501

>  <PubChem>
25126798

>  <ChEMBL>
CHEMBL1789941

$$$$
341
Actelion Java MolfileCreator 2.0

  0  0  0  0  0  0              0 V3000
M  V30 BEGIN CTAB
M  V30 COUNTS 17 19 0 0 0
M  V30 BEGIN ATOM
M  V30 1 N 5.582 -0.6816 0.0 0
M  V30 2 C 5.1752 0.2318 0.0 0
M  V30 3 C 6.5765 -0.7861 0.0 0
M  V30 4 C 5.763 1.0408 0.0 0
M  V30 5 C 4.1807 0.3364 0.0 0
M  V30 6 N 7.1643 0.0228 0.0 0
M  V30 7 C 6.7575 0.9363 0.0 0
M  V30 8 C 5.5551 2.019 0.0 0
M  V30 9 C 3.6807 1.2024 0.0 0
M  V30 10 C 3.5116 -0.4067 0.0 0
M  V30 11 N 7.1643 1.8499 0.0 0
M  V30 12 C 6.4211 2.519 0.0 0
M  V30 13 N 2.7026 0.9945 0.0 0
M  V30 14 N 2.598 0.0 0.0 0
M  V30 15 C 1.732 -0.5 0.0 0
M  V30 16 C 0.866 0.0 0.0 0
M  V30 17 C 0.0 -0.5 0.0 0
M  V30 END ATOM
M  V30 BEGIN BOND
M  V30 1 2 1 2
M  V30 2 1 1 3
M  V30 3 1 2 4
M  V30 4 1 2 5
M  V30 5 2 3 6
M  V30 6 2 4 7
M  V30 7 1 4 8
M  V30 8 1 5 9
M  V30 9 2 5 10
M  V30 10 1 7 11
M  V30 11 2 8 12
M  V30 12 2 9 13
M  V30 13 1 10 14
M  V30 14 1 14 15
M  V30 15 1 15 16
M  V30 16 1 16 17
M  V30 17 1 6 7
M  V30 18 1 11 12
M  V30 19 1 13 14
M  V30 END BOND
M  V30 END CTAB
M  END
>  <Molecule Name>
Compound 1075

>  <Molecule Name 2>
Compound 1075

>  <Compound ID>
341

>  <Name>


>  <Uniprot>
O60674

>  <Target>
JAK2

>  <Smiles>
CCCN1C=C(C2=NC=NC3=C2C=C[NH]3)C=N1

>  <Kd (nM)>


>  <Assay (Kd)>


>  <Ki (nM)>


>  <Assay (Ki)>


>  <IC50 (nM)>


>  <Assay (IC50)>


>  <EC50 (nM)>


>  <Assay (EC50)>


>  <Article DOI>


>  <Molecular Weight>
227.271

>  <Exact Mass>
227.1170954

>  <XLogP3>
1.46

>  <Heavy Atom Count>
17

>  <Ring Count>
3

>  <Hydrogen Bond Acceptor Count>
4

>  <Hydrogen Bond Donor Count>
1

>  <Rotatable Bond Count>
3

>  <Topological Polar Surface Area>
59.39

>  <Molecular Formula>
C12H13N5

>  <InChI>
InChI=1S/C12H13N5/c1-2-5-17-7-9(6-16-17)11-10-3-4-13-12(10)15-8-14-11/h3-4,6-8H,2,5H2,1H3,(H,13,14,15)

>  <InChI Key>
UVBDUJAQAQMYDA-UHFFFAOYSA-N

>  <BindingDB>


>  <PubChem>
57647441

>  <ChEMBL>


$$$$
342
Actelion Java MolfileCreator 2.0

  0  0  0  0  0  0              0 V3000
M  V30 BEGIN CTAB
M  V30 COUNTS 35 39 0 0 0
M  V30 BEGIN ATOM
M  V30 1 O 13.9779 0.4434 0.0 0
M  V30 2 C 12.9742 1.5581 0.0 0
M  V30 3 N 13.4377 2.9847 0.0 0
M  V30 4 C 11.507 1.2463 0.0 0
M  V30 5 C 10.3923 2.25 0.0 0
M  V30 6 C 10.8969 -0.124 0.0 0
M  V30 7 N 9.0932 1.5 0.0 0
M  V30 8 N 10.3923 3.7499 0.0 0
M  V30 9 N 9.4051 0.0327 0.0 0
M  V30 10 C 11.6469 -1.423 0.0 0
M  V30 11 C 7.7942 2.25 0.0 0 CFG=2
M  V30 12 C 9.0932 4.5 0.0 0
M  V30 13 C 10.8969 -2.722 0.0 0
M  V30 14 C 13.1469 -1.423 0.0 0
M  V30 15 C 6.4951 1.5 0.0 0
M  V30 16 C 7.7942 3.75 0.0 0
M  V30 17 C 11.6469 -4.0211 0.0 0
M  V30 18 C 13.8969 -2.722 0.0 0
M  V30 19 C 5.1961 2.25 0.0 0
M  V30 20 C 6.4951 0.0 0.0 0
M  V30 21 C 13.1469 -4.0211 0.0 0
M  V30 22 C 3.8971 1.5 0.0 0
M  V30 23 C 5.1961 -0.7499 0.0 0
M  V30 24 O 13.8969 -5.3201 0.0 0
M  V30 25 N 3.8971 0.0 0.0 0
M  V30 26 C 15.3969 -5.3201 0.0 0
M  V30 27 C 2.598 -0.75 0.0 0
M  V30 28 C 16.1469 -6.6192 0.0 0
M  V30 29 C 16.1469 -4.0211 0.0 0
M  V30 30 O 2.598 -2.25 0.0 0
M  V30 31 C 1.299 0.0 0.0 0
M  V30 32 C 17.6469 -6.6192 0.0 0
M  V30 33 C 17.6469 -4.0211 0.0 0
M  V30 34 C 0.0 -0.75 0.0 0
M  V30 35 C 18.3969 -5.3201 0.0 0
M  V30 END ATOM
M  V30 BEGIN BOND
M  V30 1 2 1 2
M  V30 2 1 2 3
M  V30 3 1 2 4
M  V30 4 2 4 5
M  V30 5 1 4 6
M  V30 6 1 5 7
M  V30 7 1 5 8
M  V30 8 2 6 9
M  V30 9 1 6 10
M  V30 10 1 11 7
M  V30 11 1 8 12
M  V30 12 2 10 13
M  V30 13 1 10 14
M  V30 14 1 11 15 CFG=3
M  V30 15 1 11 16
M  V30 16 1 13 17
M  V30 17 2 14 18
M  V30 18 1 15 19
M  V30 19 1 15 20
M  V30 20 2 17 21
M  V30 21 1 19 22
M  V30 22 1 20 23
M  V30 23 1 21 24
M  V30 24 1 22 25
M  V30 25 1 24 26
M  V30 26 1 25 27
M  V30 27 2 26 28
M  V30 28 1 26 29
M  V30 29 2 27 30
M  V30 30 1 27 31
M  V30 31 1 28 32
M  V30 32 2 29 33
M  V30 33 2 31 34
M  V30 34 2 32 35
M  V30 35 1 7 9
M  V30 36 1 12 16
M  V30 37 1 18 21
M  V30 38 1 23 25
M  V30 39 1 33 35
M  V30 END BOND
M  V30 BEGIN COLLECTION
M  V30 MDLV30/STEABS ATOMS=(1 11)
M  V30 END COLLECTION
M  V30 END CTAB
M  END
>  <Molecule Name>
Compound 1076

>  <Molecule Name 2>
Compound 1076

>  <Compound ID>
342

>  <Name>
Zanubrutinib

>  <Uniprot>
Q06187

>  <Target>
BTK

>  <Smiles>
C=CC(=O)N1CCC([C@@H]2CCNC3=C(C(N)=O)C(C4=CC=C(OC5=CC=CC=C5)C=C4)=NN32)CC1

>  <Kd (nM)>


>  <Assay (Kd)>


>  <Ki (nM)>


>  <Assay (Ki)>


>  <IC50 (nM)>
2

>  <Assay (IC50)>
IC50 was assessed by the TR-FRET Binding Assay

>  <EC50 (nM)>


>  <Assay (EC50)>


>  <Article DOI>


>  <Molecular Weight>
471.561

>  <Exact Mass>
471.2270398

>  <XLogP3>
3.55

>  <Heavy Atom Count>
35

>  <Ring Count>
5

>  <Hydrogen Bond Acceptor Count>
6

>  <Hydrogen Bond Donor Count>
2

>  <Rotatable Bond Count>
6

>  <Topological Polar Surface Area>
102.48

>  <Molecular Formula>
C27H29N5O3

>  <InChI>
InChI=1S/C27H29N5O3/c1-2-23(33)31-16-13-18(14-17-31)22-12-15-29-27-24(26(28)34)25(30-32(22)27)19-8-10-21(11-9-19)35-20-6-4-3-5-7-20/h2-11,18,22,29H,1,12-17H2,(H2,28,34)/t22-/m0/s1

>  <InChI Key>
RNOAOAWBMHREKO-QFIPXVFZSA-N

>  <BindingDB>
250082

>  <PubChem>
135565884

>  <ChEMBL>
CHEMBL3936761

$$$$
343
Actelion Java MolfileCreator 2.0

  0  0  0  0  0  0              0 V3000
M  V30 BEGIN CTAB
M  V30 COUNTS 21 22 0 0 0
M  V30 BEGIN ATOM
M  V30 1 O 10.3923 2.2499 0.0 0
M  V30 2 C 9.0932 1.4999 0.0 0
M  V30 3 N 7.7942 2.25 0.0 0
M  V30 4 C 9.0932 0.0 0.0 0
M  V30 5 C 6.4951 1.5 0.0 0
M  V30 6 C 7.7942 3.75 0.0 0
M  V30 7 C 7.7942 -0.7499 0.0 0
M  V30 8 C 10.3923 -0.75 0.0 0
M  V30 9 C 6.4951 0.0 0.0 0
M  V30 10 C 7.7942 -2.2499 0.0 0
M  V30 11 C 5.1961 -0.75 0.0 0
M  V30 12 C 3.8971 0.0 0.0 0
M  V30 13 C 5.1961 -2.2499 0.0 0
M  V30 14 C 2.598 -0.75 0.0 0
M  V30 15 C 3.8971 -3.0 0.0 0
M  V30 16 O 1.299 0.0 0.0 0
M  V30 17 C 2.598 -2.25 0.0 0
M  V30 18 O 3.8971 -4.5 0.0 0
M  V30 19 C 0.0 -0.75 0.0 0
M  V30 20 C 1.299 -2.9999 0.0 0
M  V30 21 C 5.1961 -5.25 0.0 0
M  V30 END ATOM
M  V30 BEGIN BOND
M  V30 1 2 1 2
M  V30 2 1 2 3
M  V30 3 1 2 4
M  V30 4 1 3 5
M  V30 5 1 3 6
M  V30 6 2 4 7
M  V30 7 1 4 8
M  V30 8 2 5 9
M  V30 9 1 7 10
M  V30 10 1 9 11
M  V30 11 2 11 12
M  V30 12 1 11 13
M  V30 13 1 12 14
M  V30 14 2 13 15
M  V30 15 1 14 16
M  V30 16 2 14 17
M  V30 17 1 15 18
M  V30 18 1 16 19
M  V30 19 1 17 20
M  V30 20 1 18 21
M  V30 21 1 7 9
M  V30 22 1 15 17
M  V30 END BOND
M  V30 END CTAB
M  END
>  <Molecule Name>
Compound 1077

>  <Molecule Name 2>
Compound 1077

>  <Compound ID>
343

>  <Name>


>  <Uniprot>
Q9H8M2

>  <Target>
BRD9

>  <Smiles>
COC1=CC(C2=CN(C)C(=O)C(C)=C2C)=CC(OC)=C1C

>  <Kd (nM)>


>  <Assay (Kd)>


>  <Ki (nM)>


>  <Assay (Ki)>


>  <IC50 (nM)>


>  <Assay (IC50)>


>  <EC50 (nM)>


>  <Assay (EC50)>


>  <Article DOI>


>  <Molecular Weight>
287.359

>  <Exact Mass>
287.1521435

>  <XLogP3>
2.16

>  <Heavy Atom Count>
21

>  <Ring Count>
2

>  <Hydrogen Bond Acceptor Count>
4

>  <Hydrogen Bond Donor Count>
0

>  <Rotatable Bond Count>
3

>  <Topological Polar Surface Area>
40.46

>  <Molecular Formula>
C17H21NO3

>  <InChI>
InChI=1S/C17H21NO3/c1-10-11(2)17(19)18(4)9-14(10)13-7-15(20-5)12(3)16(8-13)21-6/h7-9H,1-6H3

>  <InChI Key>
YFKVCZBWAMMQLU-UHFFFAOYSA-N

>  <BindingDB>


>  <PubChem>
156187758

>  <ChEMBL>


$$$$
344
Actelion Java MolfileCreator 2.0

  0  0  0  0  0  0              0 V3000
M  V30 BEGIN CTAB
M  V30 COUNTS 24 26 0 0 0
M  V30 BEGIN ATOM
M  V30 1 O 4.3301 0.9999 0.0 0
M  V30 2 C 4.3301 0.0 0.0 0
M  V30 3 N 3.4641 -0.5 0.0 0
M  V30 4 C 5.1961 -0.5 0.0 0
M  V30 5 C 3.4641 -1.5 0.0 0
M  V30 6 C 2.598 0.0 0.0 0
M  V30 7 C 5.1961 -1.5 0.0 0
M  V30 8 C 6.0621 0.0 0.0 0
M  V30 9 C 4.3301 -2.0 0.0 0
M  V30 10 C 1.732 -0.5 0.0 0
M  V30 11 C 6.0621 -2.0 0.0 0
M  V30 12 N 6.9282 -0.5 0.0 0
M  V30 13 C 4.3301 -3.0 0.0 0
M  V30 14 C 0.866 0.0 0.0 0
M  V30 15 C 6.9282 -1.5 0.0 0
M  V30 16 C 3.4641 -3.4999 0.0 0
M  V30 17 C 5.1961 -3.5 0.0 0
M  V30 18 C 0.0 -0.5 0.0 0
M  V30 19 C 3.4641 -4.4999 0.0 0
M  V30 20 C 5.1961 -4.5 0.0 0
M  V30 21 O 2.598 -4.9999 0.0 0
M  V30 22 C 4.3301 -5.0 0.0 0
M  V30 23 C 2.598 -5.9999 0.0 0
M  V30 24 O 4.3301 -6.0 0.0 0
M  V30 END ATOM
M  V30 BEGIN BOND
M  V30 1 2 1 2
M  V30 2 1 2 3
M  V30 3 1 2 4
M  V30 4 1 3 5
M  V30 5 1 3 6
M  V30 6 2 4 7
M  V30 7 1 4 8
M  V30 8 2 5 9
M  V30 9 1 6 10
M  V30 10 1 7 11
M  V30 11 2 8 12
M  V30 12 1 9 13
M  V30 13 1 10 14
M  V30 14 2 11 15
M  V30 15 2 13 16
M  V30 16 1 13 17
M  V30 17 1 14 18
M  V30 18 1 16 19
M  V30 19 2 17 20
M  V30 20 1 19 21
M  V30 21 2 19 22
M  V30 22 1 21 23
M  V30 23 1 22 24
M  V30 24 1 7 9
M  V30 25 1 12 15
M  V30 26 1 20 22
M  V30 END BOND
M  V30 END CTAB
M  END
>  <Molecule Name>
Compound 1078

>  <Molecule Name 2>
Compound 1078

>  <Compound ID>
344

>  <Name>


>  <Uniprot>
Q9H8M2

>  <Target>
BRD9

>  <Smiles>
CCCCN1C=C(C2=CC=C(O)C(OC)=C2)C2=CC=NC=C2C1=O

>  <Kd (nM)>


>  <Assay (Kd)>


>  <Ki (nM)>


>  <Assay (Ki)>


>  <IC50 (nM)>


>  <Assay (IC50)>


>  <EC50 (nM)>


>  <Assay (EC50)>


>  <Article DOI>
10.1021/acsmedchemlett.1c00580

>  <Molecular Weight>
324.38

>  <Exact Mass>
324.1473925

>  <XLogP3>
2.49

>  <Heavy Atom Count>
24

>  <Ring Count>
3

>  <Hydrogen Bond Acceptor Count>
5

>  <Hydrogen Bond Donor Count>
1

>  <Rotatable Bond Count>
5

>  <Topological Polar Surface Area>
64.35

>  <Molecular Formula>
C19H20N2O3

>  <InChI>
InChI=1S/C19H20N2O3/c1-3-4-9-21-12-16(13-5-6-17(22)18(10-13)24-2)14-7-8-20-11-15(14)19(21)23/h5-8,10-12,22H,3-4,9H2,1-2H3

>  <InChI Key>
ZNCWJZMLWNQROM-UHFFFAOYSA-N

>  <BindingDB>


>  <PubChem>
156707485

>  <ChEMBL>


$$$$
345
Actelion Java MolfileCreator 2.0

  0  0  0  0  0  0              0 V3000
M  V30 BEGIN CTAB
M  V30 COUNTS 26 28 0 0 0
M  V30 BEGIN ATOM
M  V30 1 O 4.3301 0.9999 0.0 0
M  V30 2 C 4.3301 0.0 0.0 0
M  V30 3 N 3.4641 -0.5 0.0 0
M  V30 4 C 5.1961 -0.5 0.0 0
M  V30 5 C 3.4641 -1.5 0.0 0
M  V30 6 C 2.598 0.0 0.0 0
M  V30 7 C 5.1961 -1.5 0.0 0
M  V30 8 C 6.0621 0.0 0.0 0
M  V30 9 C 4.3301 -2.0 0.0 0
M  V30 10 C 1.732 -0.5 0.0 0
M  V30 11 C 6.0621 -2.0 0.0 0
M  V30 12 N 6.9282 -0.5 0.0 0
M  V30 13 C 4.3301 -3.0 0.0 0
M  V30 14 C 0.866 0.0 0.0 0
M  V30 15 C 6.9282 -1.5 0.0 0
M  V30 16 C 3.4641 -3.4999 0.0 0
M  V30 17 C 5.1961 -3.5 0.0 0
M  V30 18 C 0.0 -0.5 0.0 0
M  V30 19 C 3.4641 -4.4999 0.0 0
M  V30 20 C 5.1961 -4.5 0.0 0
M  V30 21 O 2.598 -4.9999 0.0 0
M  V30 22 C 4.3301 -5.0 0.0 0
M  V30 23 O 6.0621 -5.0 0.0 0
M  V30 24 C 2.598 -5.9999 0.0 0
M  V30 25 C 4.3301 -6.0 0.0 0
M  V30 26 C 6.9282 -4.5 0.0 0
M  V30 END ATOM
M  V30 BEGIN BOND
M  V30 1 2 1 2
M  V30 2 1 2 3
M  V30 3 1 2 4
M  V30 4 1 3 5
M  V30 5 1 3 6
M  V30 6 2 4 7
M  V30 7 1 4 8
M  V30 8 2 5 9
M  V30 9 1 6 10
M  V30 10 1 7 11
M  V30 11 2 8 12
M  V30 12 1 9 13
M  V30 13 1 10 14
M  V30 14 2 11 15
M  V30 15 2 13 16
M  V30 16 1 13 17
M  V30 17 1 14 18
M  V30 18 1 16 19
M  V30 19 2 17 20
M  V30 20 1 19 21
M  V30 21 2 19 22
M  V30 22 1 20 23
M  V30 23 1 21 24
M  V30 24 1 22 25
M  V30 25 1 23 26
M  V30 26 1 7 9
M  V30 27 1 12 15
M  V30 28 1 20 22
M  V30 END BOND
M  V30 END CTAB
M  END
>  <Molecule Name>
Compound 1079

>  <Molecule Name 2>
Compound 1079

>  <Compound ID>
345

>  <Name>


>  <Uniprot>
Q9H8M2

>  <Target>
BRD9

>  <Smiles>
CCCCN1C=C(C2=CC(OC)=C(C)C(OC)=C2)C2=CC=NC=C2C1=O

>  <Kd (nM)>


>  <Assay (Kd)>


>  <Ki (nM)>


>  <Assay (Ki)>


>  <IC50 (nM)>


>  <Assay (IC50)>


>  <EC50 (nM)>


>  <Assay (EC50)>


>  <Article DOI>


>  <Molecular Weight>
352.434

>  <Exact Mass>
352.1786926

>  <XLogP3>
3.18

>  <Heavy Atom Count>
26

>  <Ring Count>
3

>  <Hydrogen Bond Acceptor Count>
5

>  <Hydrogen Bond Donor Count>
0

>  <Rotatable Bond Count>
6

>  <Topological Polar Surface Area>
53.35

>  <Molecular Formula>
C21H24N2O3

>  <InChI>
InChI=1S/C21H24N2O3/c1-5-6-9-23-13-18(16-7-8-22-12-17(16)21(23)24)15-10-19(25-3)14(2)20(11-15)26-4/h7-8,10-13H,5-6,9H2,1-4H3

>  <InChI Key>
FWBLIZCCLZTRMH-UHFFFAOYSA-N

>  <BindingDB>


>  <PubChem>
156187666

>  <ChEMBL>


$$$$
346
Actelion Java MolfileCreator 2.0

  0  0  0  0  0  0              0 V3000
M  V30 BEGIN CTAB
M  V30 COUNTS 24 26 0 0 0
M  V30 BEGIN ATOM
M  V30 1 F 3.8971 -7.4999 0.0 0
M  V30 2 C 5.1961 -6.7499 0.0 0
M  V30 3 C 6.4951 -7.5 0.0 0
M  V30 4 C 5.1961 -5.2499 0.0 0
M  V30 5 O 6.4951 -9.0 0.0 0
M  V30 6 C 7.7942 -6.75 0.0 0
M  V30 7 C 6.4951 -4.5 0.0 0
M  V30 8 F 9.0932 -7.5 0.0 0
M  V30 9 C 7.7942 -5.2499 0.0 0
M  V30 10 C 6.4951 -3.0 0.0 0
M  V30 11 C 7.7942 -2.25 0.0 0
M  V30 12 C 5.1961 -2.25 0.0 0
M  V30 13 C 7.7942 -0.75 0.0 0
M  V30 14 C 9.0932 -3.0 0.0 0
M  V30 15 N 5.1961 -0.75 0.0 0
M  V30 16 C 6.4951 0.0 0.0 0
M  V30 17 C 9.0932 0.0 0.0 0
M  V30 18 C 10.3923 -2.25 0.0 0
M  V30 19 C 3.8971 0.0 0.0 0
M  V30 20 O 6.4951 1.5 0.0 0
M  V30 21 N 10.3923 -0.75 0.0 0
M  V30 22 C 2.598 -0.75 0.0 0
M  V30 23 C 1.299 0.0 0.0 0
M  V30 24 C 0.0 -0.75 0.0 0
M  V30 END ATOM
M  V30 BEGIN BOND
M  V30 1 1 1 2
M  V30 2 2 2 3
M  V30 3 1 2 4
M  V30 4 1 3 5
M  V30 5 1 3 6
M  V30 6 2 4 7
M  V30 7 1 6 8
M  V30 8 2 6 9
M  V30 9 1 7 10
M  V30 10 1 10 11
M  V30 11 2 10 12
M  V30 12 2 11 13
M  V30 13 1 11 14
M  V30 14 1 12 15
M  V30 15 1 13 16
M  V30 16 1 13 17
M  V30 17 2 14 18
M  V30 18 1 15 19
M  V30 19 2 16 20
M  V30 20 2 17 21
M  V30 21 1 19 22
M  V30 22 1 22 23
M  V30 23 1 23 24
M  V30 24 1 7 9
M  V30 25 1 15 16
M  V30 26 1 18 21
M  V30 END BOND
M  V30 END CTAB
M  END
>  <Molecule Name>
Compound 1080

>  <Molecule Name 2>
Compound 1080

>  <Compound ID>
346

>  <Name>


>  <Uniprot>
Q9H8M2

>  <Target>
BRD9

>  <Smiles>
CCCCN1C=C(C2=CC(F)=C(O)C(F)=C2)C2=CC=NC=C2C1=O

>  <Kd (nM)>


>  <Assay (Kd)>


>  <Ki (nM)>


>  <Assay (Ki)>


>  <IC50 (nM)>


>  <Assay (IC50)>


>  <EC50 (nM)>


>  <Assay (EC50)>


>  <Article DOI>


>  <Molecular Weight>
330.334

>  <Exact Mass>
330.1179842

>  <XLogP3>
2.72

>  <Heavy Atom Count>
24

>  <Ring Count>
3

>  <Hydrogen Bond Acceptor Count>
4

>  <Hydrogen Bond Donor Count>
1

>  <Rotatable Bond Count>
4

>  <Topological Polar Surface Area>
55.12

>  <Molecular Formula>
C18H16F2N2O2

>  <InChI>
InChI=1S/C18H16F2N2O2/c1-2-3-6-22-10-14(11-7-15(19)17(23)16(20)8-11)12-4-5-21-9-13(12)18(22)24/h4-5,7-10,23H,2-3,6H2,1H3

>  <InChI Key>
GGBMVUMNFQFRRX-UHFFFAOYSA-N

>  <BindingDB>


>  <PubChem>
156177726

>  <ChEMBL>


$$$$
347
Actelion Java MolfileCreator 2.0

  0  0  0  0  0  0              0 V3000
M  V30 BEGIN CTAB
M  V30 COUNTS 22 25 0 0 0
M  V30 BEGIN ATOM
M  V30 1 O 0.866 0.0 0.0 0
M  V30 2 C 0.0 -0.5 0.0 0
M  V30 3 C -0.866 0.0 0.0 0
M  V30 4 C 0.0 -1.4999 0.0 0
M  V30 5 C -0.866 1.0 0.0 0
M  V30 6 C -1.732 -0.4999 0.0 0
M  V30 7 C -0.866 -1.9999 0.0 0
M  V30 8 N 0.0 1.4999 0.0 0
M  V30 9 C -1.732 1.5 0.0 0
M  V30 10 C -1.732 -1.4999 0.0 0
M  V30 11 N 0.0 2.4999 0.0 0
M  V30 12 C -1.732 2.5 0.0 0
M  V30 13 C -0.866 3.0 0.0 0
M  V30 14 N -2.598 3.0 0.0 0
M  V30 15 N -0.866 4.0 0.0 0
M  V30 16 C -2.598 4.0 0.0 0
M  V30 17 C -3.4641 2.5 0.0 0
M  V30 18 C -3.4641 4.5 0.0 0
M  V30 19 C -4.3301 3.0 0.0 0
M  V30 20 N -4.3301 4.0 0.0 0
M  V30 21 C -2.9641 5.366 0.0 0
M  V30 22 C -3.9641 5.366 0.0 0
M  V30 END ATOM
M  V30 BEGIN BOND
M  V30 1 1 1 2
M  V30 2 2 2 3
M  V30 3 1 2 4
M  V30 4 1 3 5
M  V30 5 1 3 6
M  V30 6 2 4 7
M  V30 7 2 5 8
M  V30 8 1 5 9
M  V30 9 2 6 10
M  V30 10 1 8 11
M  V30 11 2 9 12
M  V30 12 2 11 13
M  V30 13 1 12 14
M  V30 14 1 13 15
M  V30 15 1 14 16
M  V30 16 1 14 17
M  V30 17 1 16 18
M  V30 18 1 17 19
M  V30 19 1 18 20
M  V30 20 1 18 21
M  V30 21 1 18 22
M  V30 22 1 7 10
M  V30 23 1 12 13
M  V30 24 1 19 20
M  V30 25 1 21 22
M  V30 END BOND
M  V30 END CTAB
M  END
>  <Molecule Name>
Compound 1081

>  <Molecule Name 2>
Compound 1081

>  <Compound ID>
347

>  <Name>


>  <Uniprot>
P51531

>  <Target>
SMARCA2

>  <Smiles>
NC1=NN=C(C2=CC=CC=C2O)C=C1N1CCNC2(CC2)C1

>  <Kd (nM)>


>  <Assay (Kd)>


>  <Ki (nM)>


>  <Assay (Ki)>


>  <IC50 (nM)>


>  <Assay (IC50)>


>  <EC50 (nM)>


>  <Assay (EC50)>


>  <Article DOI>


>  <Molecular Weight>
297.362

>  <Exact Mass>
297.1589602

>  <XLogP3>
0.64

>  <Heavy Atom Count>
22

>  <Ring Count>
4

>  <Hydrogen Bond Acceptor Count>
6

>  <Hydrogen Bond Donor Count>
3

>  <Rotatable Bond Count>
2

>  <Topological Polar Surface Area>
87.3

>  <Molecular Formula>
C16H19N5O

>  <InChI>
InChI=1S/C16H19N5O/c17-15-13(21-8-7-18-16(10-21)5-6-16)9-12(19-20-15)11-3-1-2-4-14(11)22/h1-4,9,18,22H,5-8,10H2,(H2,17,20)

>  <InChI Key>
JBOBILJJMXEQDL-UHFFFAOYSA-N

>  <BindingDB>


>  <PubChem>
156319115

>  <ChEMBL>


$$$$
348
Actelion Java MolfileCreator 2.0

  0  0  0  0  0  0              0 V3000
M  V30 BEGIN CTAB
M  V30 COUNTS 22 25 0 0 0
M  V30 BEGIN ATOM
M  V30 1 O 0.866 0.0 0.0 0
M  V30 2 C 0.0 -0.5 0.0 0
M  V30 3 C -0.866 0.0 0.0 0
M  V30 4 C 0.0 -1.4999 0.0 0
M  V30 5 C -0.866 1.0 0.0 0
M  V30 6 C -1.732 -0.4999 0.0 0
M  V30 7 C -0.866 -1.9999 0.0 0
M  V30 8 N 0.0 1.4999 0.0 0
M  V30 9 C -1.732 1.5 0.0 0
M  V30 10 C -1.732 -1.4999 0.0 0
M  V30 11 N 0.0 2.4999 0.0 0
M  V30 12 C -1.732 2.5 0.0 0
M  V30 13 C -0.866 3.0 0.0 0
M  V30 14 N -2.598 3.0 0.0 0
M  V30 15 N -0.866 4.0 0.0 0
M  V30 16 C -3.4641 2.5 0.0 0
M  V30 17 C -2.598 4.0 0.0 0
M  V30 18 C -4.6156 3.2306 0.0 0
M  V30 19 C -3.8066 4.6319 0.0 0
M  V30 20 N -3.702 3.6374 0.0 0
M  V30 21 C -5.2847 3.9738 0.0 0
M  V30 22 C -4.7847 4.8398 0.0 0
M  V30 END ATOM
M  V30 BEGIN BOND
M  V30 1 1 1 2
M  V30 2 2 2 3
M  V30 3 1 2 4
M  V30 4 1 3 5
M  V30 5 1 3 6
M  V30 6 2 4 7
M  V30 7 2 5 8
M  V30 8 1 5 9
M  V30 9 2 6 10
M  V30 10 1 8 11
M  V30 11 2 9 12
M  V30 12 2 11 13
M  V30 13 1 12 14
M  V30 14 1 13 15
M  V30 15 1 14 16
M  V30 16 1 14 17
M  V30 17 1 16 18
M  V30 18 1 17 19
M  V30 19 1 18 20
M  V30 20 1 18 21
M  V30 21 1 19 22
M  V30 22 1 7 10
M  V30 23 1 12 13
M  V30 24 1 19 20
M  V30 25 1 21 22
M  V30 END BOND
M  V30 END CTAB
M  END
>  <Molecule Name>
Compound 1082

>  <Molecule Name 2>
Compound 1082

>  <Compound ID>
348

>  <Name>


>  <Uniprot>
P51531

>  <Target>
SMARCA2

>  <Smiles>
NC1=NN=C(C2=CC=CC=C2O)C=C1N1CC2CCC(C1)N2

>  <Kd (nM)>


>  <Assay (Kd)>


>  <Ki (nM)>


>  <Assay (Ki)>


>  <IC50 (nM)>


>  <Assay (IC50)>


>  <EC50 (nM)>


>  <Assay (EC50)>


>  <Article DOI>


>  <Molecular Weight>
297.362

>  <Exact Mass>
297.1589602

>  <XLogP3>
0.89

>  <Heavy Atom Count>
22

>  <Ring Count>
4

>  <Hydrogen Bond Acceptor Count>
6

>  <Hydrogen Bond Donor Count>
3

>  <Rotatable Bond Count>
2

>  <Topological Polar Surface Area>
87.3

>  <Molecular Formula>
C16H19N5O

>  <InChI>
InChI=1S/C16H19N5O/c17-16-14(21-8-10-5-6-11(9-21)18-10)7-13(19-20-16)12-3-1-2-4-15(12)22/h1-4,7,10-11,18,22H,5-6,8-9H2,(H2,17,20)

>  <InChI Key>
BGGAPIKREKZNIF-UHFFFAOYSA-N

>  <BindingDB>


>  <PubChem>
139530773

>  <ChEMBL>


$$$$
349
Actelion Java MolfileCreator 2.0

  0  0  0  0  0  0              0 V3000
M  V30 BEGIN CTAB
M  V30 COUNTS 25 28 0 0 0
M  V30 BEGIN ATOM
M  V30 1 O 0.866 0.0 0.0 0
M  V30 2 C 1.732 -0.5 0.0 0
M  V30 3 C 0.0 -0.5 0.0 0
M  V30 4 C 1.732 -1.5 0.0 0
M  V30 5 C 2.598 0.0 0.0 0
M  V30 6 C -0.9659 -0.2411 0.0 0
M  V30 7 C -0.2588 -1.4659 0.0 0
M  V30 8 C 2.598 -2.0 0.0 0
M  V30 9 C 3.4641 -0.5 0.0 0
M  V30 10 N -1.2247 -1.2071 0.0 0
M  V30 11 C 3.4641 -1.5 0.0 0
M  V30 12 C -2.0907 -1.7071 0.0 0
M  V30 13 C -2.9567 -1.2071 0.0 0
M  V30 14 C -2.0907 -2.7071 0.0 0
M  V30 15 N -3.8228 -1.7071 0.0 0
M  V30 16 N -2.9567 -0.2071 0.0 0
M  V30 17 C -2.9567 -3.2071 0.0 0
M  V30 18 N -3.8228 -2.7071 0.0 0
M  V30 19 C -2.9567 -4.2071 0.0 0
M  V30 20 C -3.8228 -4.7071 0.0 0
M  V30 21 C -2.0907 -4.7071 0.0 0
M  V30 22 O -4.6888 -4.2071 0.0 0
M  V30 23 C -3.8228 -5.7071 0.0 0
M  V30 24 C -2.0907 -5.7071 0.0 0
M  V30 25 C -2.9567 -6.2071 0.0 0
M  V30 END ATOM
M  V30 BEGIN BOND
M  V30 1 1 1 2
M  V30 2 1 1 3
M  V30 3 2 2 4
M  V30 4 1 2 5
M  V30 5 1 3 6
M  V30 6 1 3 7
M  V30 7 1 4 8
M  V30 8 2 5 9
M  V30 9 1 6 10
M  V30 10 2 8 11
M  V30 11 1 10 12
M  V30 12 2 12 13
M  V30 13 1 12 14
M  V30 14 1 13 15
M  V30 15 1 13 16
M  V30 16 2 14 17
M  V30 17 2 15 18
M  V30 18 1 17 19
M  V30 19 2 19 20
M  V30 20 1 19 21
M  V30 21 1 20 22
M  V30 22 1 20 23
M  V30 23 2 21 24
M  V30 24 2 23 25
M  V30 25 1 7 10
M  V30 26 1 9 11
M  V30 27 1 17 18
M  V30 28 1 24 25
M  V30 END BOND
M  V30 END CTAB
M  END
>  <Molecule Name>
Compound 1083

>  <Molecule Name 2>
Compound 1083

>  <Compound ID>
349

>  <Name>


>  <Uniprot>
P51531

>  <Target>
SMARCA2

>  <Smiles>
NC1=NN=C(C2=CC=CC=C2O)C=C1N1CC(OC2=CC=CC=C2)C1

>  <Kd (nM)>


>  <Assay (Kd)>


>  <Ki (nM)>


>  <Assay (Ki)>


>  <IC50 (nM)>
35.6

>  <Assay (IC50)>
IC50 was assessed by the TR-FRET Binding Assay

>  <EC50 (nM)>


>  <Assay (EC50)>


>  <Article DOI>


>  <Molecular Weight>
334.379

>  <Exact Mass>
334.1429758

>  <XLogP3>
2.43

>  <Heavy Atom Count>
25

>  <Ring Count>
4

>  <Hydrogen Bond Acceptor Count>
6

>  <Hydrogen Bond Donor Count>
2

>  <Rotatable Bond Count>
4

>  <Topological Polar Surface Area>
84.5

>  <Molecular Formula>
C19H18N4O2

>  <InChI>
InChI=1S/C19H18N4O2/c20-19-17(10-16(21-22-19)15-8-4-5-9-18(15)24)23-11-14(12-23)25-13-6-2-1-3-7-13/h1-10,14,24H,11-12H2,(H2,20,22)

>  <InChI Key>
SFMYKATXFFQSND-UHFFFAOYSA-N

>  <BindingDB>
394456

>  <PubChem>
137029437

>  <ChEMBL>


$$$$
350
Actelion Java MolfileCreator 2.0

  0  0  0  0  0  0              0 V3000
M  V30 BEGIN CTAB
M  V30 COUNTS 26 29 0 0 0
M  V30 BEGIN ATOM
M  V30 1 O 0.866 0.0 0.0 0
M  V30 2 C 0.0 -0.5 0.0 0
M  V30 3 C -0.866 0.0 0.0 0
M  V30 4 C 0.0 -1.4999 0.0 0
M  V30 5 C -0.866 1.0 0.0 0
M  V30 6 C -1.732 -0.4999 0.0 0
M  V30 7 C -0.866 -1.9999 0.0 0
M  V30 8 N 0.0 1.4999 0.0 0
M  V30 9 C -1.732 1.5 0.0 0
M  V30 10 C -1.732 -1.4999 0.0 0
M  V30 11 N 0.0 2.4999 0.0 0
M  V30 12 C -1.732 2.5 0.0 0
M  V30 13 C -0.866 3.0 0.0 0
M  V30 14 N -2.598 3.0 0.0 0
M  V30 15 N -0.866 4.0 0.0 0
M  V30 16 C -2.598 4.0 0.0 0
M  V30 17 C -3.4641 2.5 0.0 0
M  V30 18 C -3.4641 4.5 0.0 0
M  V30 19 C -4.3301 3.0 0.0 0
M  V30 20 C -4.3301 4.0 0.0 0
M  V30 21 C -5.1961 4.5 0.0 0
M  V30 22 C -5.1961 5.5 0.0 0
M  V30 23 C -6.0621 4.0 0.0 0
M  V30 24 C -6.0621 6.0 0.0 0
M  V30 25 C -6.9282 4.5 0.0 0
M  V30 26 C -6.9282 5.5 0.0 0
M  V30 END ATOM
M  V30 BEGIN BOND
M  V30 1 1 1 2
M  V30 2 2 2 3
M  V30 3 1 2 4
M  V30 4 1 3 5
M  V30 5 1 3 6
M  V30 6 2 4 7
M  V30 7 2 5 8
M  V30 8 1 5 9
M  V30 9 2 6 10
M  V30 10 1 8 11
M  V30 11 2 9 12
M  V30 12 2 11 13
M  V30 13 1 12 14
M  V30 14 1 13 15
M  V30 15 1 14 16
M  V30 16 1 14 17
M  V30 17 1 16 18
M  V30 18 1 17 19
M  V30 19 1 18 20
M  V30 20 1 20 21
M  V30 21 2 21 22
M  V30 22 1 21 23
M  V30 23 1 22 24
M  V30 24 2 23 25
M  V30 25 2 24 26
M  V30 26 1 7 10
M  V30 27 1 12 13
M  V30 28 1 19 20
M  V30 29 1 25 26
M  V30 END BOND
M  V30 END CTAB
M  END
>  <Molecule Name>
Compound 1084

>  <Molecule Name 2>
Compound 1084

>  <Compound ID>
350

>  <Name>


>  <Uniprot>
P51531

>  <Target>
SMARCA2

>  <Smiles>
NC1=NN=C(C2=CC=CC=C2O)C=C1N1CCC(C2=CC=CC=C2)CC1

>  <Kd (nM)>


>  <Assay (Kd)>


>  <Ki (nM)>


>  <Assay (Ki)>


>  <IC50 (nM)>


>  <Assay (IC50)>


>  <EC50 (nM)>


>  <Assay (EC50)>


>  <Article DOI>


>  <Molecular Weight>
346.434

>  <Exact Mass>
346.1793613

>  <XLogP3>
3.16

>  <Heavy Atom Count>
26

>  <Ring Count>
4

>  <Hydrogen Bond Acceptor Count>
5

>  <Hydrogen Bond Donor Count>
2

>  <Rotatable Bond Count>
3

>  <Topological Polar Surface Area>
75.27

>  <Molecular Formula>
C21H22N4O

>  <InChI>
InChI=1S/C21H22N4O/c22-21-19(14-18(23-24-21)17-8-4-5-9-20(17)26)25-12-10-16(11-13-25)15-6-2-1-3-7-15/h1-9,14,16,26H,10-13H2,(H2,22,24)

>  <InChI Key>
JTBGUMSOPXOHEX-UHFFFAOYSA-N

>  <BindingDB>
394417

>  <PubChem>
137029533

>  <ChEMBL>


$$$$
351
Actelion Java MolfileCreator 2.0

  0  0  0  0  0  0              0 V3000
M  V30 BEGIN CTAB
M  V30 COUNTS 36 40 0 0 0
M  V30 BEGIN ATOM
M  V30 1 S 3.8971 0.0 0.0 0
M  V30 2 O 4.6471 1.299 0.0 0
M  V30 3 O 3.1471 1.299 0.0 0
M  V30 4 N 2.598 -0.75 0.0 0
M  V30 5 N 5.1961 -0.75 0.0 0
M  V30 6 C 1.299 0.0 0.0 0
M  V30 7 C 2.598 -2.25 0.0 0
M  V30 8 C 6.4951 0.0 0.0 0
M  V30 9 C 0.0 -0.75 0.0 0
M  V30 10 C 7.7942 -0.75 0.0 0
M  V30 11 C 6.4951 1.5 0.0 0
M  V30 12 F 7.7942 -2.25 0.0 0
M  V30 13 C 9.0932 0.0 0.0 0
M  V30 14 C 7.7942 2.25 0.0 0
M  V30 15 C 9.0932 1.5 0.0 0
M  V30 16 C 10.3923 -0.75 0.0 0
M  V30 17 F 10.3923 2.25 0.0 0
M  V30 18 O 10.3923 -2.25 0.0 0
M  V30 19 C 11.6913 0.0 0.0 0
M  V30 20 C 13.0616 -0.6101 0.0 0
M  V30 21 C 11.8481 1.4917 0.0 0
M  V30 22 C 14.0653 0.5046 0.0 0
M  V30 23 C 13.5252 -2.0366 0.0 0
M  V30 24 N 13.3153 1.8036 0.0 0
M  V30 25 N 15.5325 0.1927 0.0 0
M  V30 26 C 14.9924 -2.3485 0.0 0
M  V30 27 C 15.9961 -1.2338 0.0 0
M  V30 28 C 15.4559 -3.7751 0.0 0
M  V30 29 C 14.4522 -4.8898 0.0 0
M  V30 30 C 16.9231 -4.087 0.0 0
M  V30 31 N 14.9157 -6.3164 0.0 0
M  V30 32 N 17.3866 -5.5136 0.0 0
M  V30 33 C 16.383 -6.6283 0.0 0
M  V30 34 C 16.8465 -8.0549 0.0 0
M  V30 35 C 16.5346 -9.5221 0.0 0
M  V30 36 C 17.9612 -9.0586 0.0 0
M  V30 END ATOM
M  V30 BEGIN BOND
M  V30 1 2 1 2
M  V30 2 2 1 3
M  V30 3 1 1 4
M  V30 4 1 1 5
M  V30 5 1 4 6
M  V30 6 1 4 7
M  V30 7 1 5 8
M  V30 8 1 6 9
M  V30 9 2 8 10
M  V30 10 1 8 11
M  V30 11 1 10 12
M  V30 12 1 10 13
M  V30 13 2 11 14
M  V30 14 2 13 15
M  V30 15 1 13 16
M  V30 16 1 15 17
M  V30 17 2 16 18
M  V30 18 1 16 19
M  V30 19 1 19 20
M  V30 20 2 19 21
M  V30 21 2 20 22
M  V30 22 1 20 23
M  V30 23 1 21 24
M  V30 24 1 22 25
M  V30 25 2 23 26
M  V30 26 2 25 27
M  V30 27 1 26 28
M  V30 28 2 28 29
M  V30 29 1 28 30
M  V30 30 1 29 31
M  V30 31 2 30 32
M  V30 32 2 31 33
M  V30 33 1 33 34
M  V30 34 1 34 35
M  V30 35 1 34 36
M  V30 36 1 14 15
M  V30 37 1 22 24
M  V30 38 1 26 27
M  V30 39 1 32 33
M  V30 40 1 35 36
M  V30 END BOND
M  V30 END CTAB
M  END
>  <Molecule Name>
Compound 1085

>  <Molecule Name 2>
Compound 1085

>  <Compound ID>
351

>  <Name>
PLX7904

>  <Uniprot>
P15056

>  <Target>
BRAF V600E

>  <Smiles>
CCN(C)S(=O)(=O)NC1=CC=C(F)C(C(=O)C2=C[NH]C3=NC=C(C4=CN=C(C5CC5)N=C4)C=C23)=C1F

>  <Kd (nM)>


>  <Assay (Kd)>


>  <Ki (nM)>


>  <Assay (Ki)>


>  <IC50 (nM)>
16

>  <Assay (IC50)>
IC50 was assessed by AlphaScreen assay

>  <EC50 (nM)>


>  <Assay (EC50)>


>  <Article DOI>
10.1021/acs.jmedchem.7b01306

>  <Molecular Weight>
512.542

>  <Exact Mass>
512.144216

>  <XLogP3>
2.58

>  <Heavy Atom Count>
36

>  <Ring Count>
5

>  <Hydrogen Bond Acceptor Count>
6

>  <Hydrogen Bond Donor Count>
2

>  <Rotatable Bond Count>
8

>  <Topological Polar Surface Area>
120.94

>  <Molecular Formula>
C24H22F2N6O3S

>  <InChI>
InChI=1S/C24H22F2N6O3S/c1-3-32(2)36(34,35)31-19-7-6-18(25)20(21(19)26)22(33)17-12-30-24-16(17)8-14(9-29-24)15-10-27-23(28-11-15)13-4-5-13/h6-13,31H,3-5H2,1-2H3,(H,29,30)

>  <InChI Key>
DKNZQPXIIHLUHU-UHFFFAOYSA-N

>  <BindingDB>
317744

>  <PubChem>
90116945

>  <ChEMBL>
CHEMBL4206836

$$$$
352
Actelion Java MolfileCreator 2.0

  0  0  0  0  0  0              0 V3000
M  V30 BEGIN CTAB
M  V30 COUNTS 40 44 0 0 0
M  V30 BEGIN ATOM
M  V30 1 Cl -5.7525 2.1309 0.0 0
M  V30 2 C -4.2583 2.288 0.0 0
M  V30 3 C -3.3751 1.0724 0.0 0
M  V30 4 C -3.6472 3.6606 0.0 0
M  V30 5 C -1.8809 1.2295 0.0 0
M  V30 6 C -2.1529 3.8176 0.0 0
M  V30 7 C -1.2698 2.6021 0.0 0
M  V30 8 C 0.2244 2.7591 0.0 0
M  V30 9 N 1.2297 1.6426 0.0 0
M  V30 10 C 0.9756 4.0603 0.0 0
M  V30 11 C 2.6023 2.2537 0.0 0
M  V30 12 N 2.4453 3.7479 0.0 0
M  V30 13 C 0.3645 5.4329 0.0 0
M  V30 14 C 3.9035 1.5024 0.0 0
M  V30 15 C 3.5618 4.7533 0.0 0
M  V30 16 C 1.2035 6.6455 0.0 0
M  V30 17 C -1.1296 5.59 0.0 0
M  V30 18 C 3.9035 0.0 0.0 0
M  V30 19 C 5.2047 2.2537 0.0 0
M  V30 20 O 4.9908 4.289 0.0 0
M  V30 21 N 3.2495 6.2229 0.0 0
M  V30 22 C 0.6365 8.021 0.0 0
M  V30 23 C -1.7408 6.9625 0.0 0
M  V30 24 O 2.6023 -0.7512 0.0 0
M  V30 25 C 5.2047 -0.7512 0.0 0
M  V30 26 C 6.5059 1.5024 0.0 0
M  V30 27 C 4.366 7.2283 0.0 0
M  V30 28 C 1.9088 6.6932 0.0 0
M  V30 29 C -0.8576 8.1781 0.0 0
M  V30 30 C 2.6023 -2.2537 0.0 0
M  V30 31 C 6.5059 0.0 0.0 0
M  V30 32 C 4.0536 8.698 0.0 0
M  V30 33 C 1.5081 8.1569 0.0 0
M  V30 34 Cl -1.4687 9.5507 0.0 0
M  V30 35 C 3.9035 -3.0049 0.0 0
M  V30 36 C 1.3011 -3.0049 0.0 0
M  V30 37 O 7.8071 -0.7512 0.0 0
M  V30 38 O 5.1702 9.7033 0.0 0
M  V30 39 N 2.6247 9.1623 0.0 0
M  V30 40 C 9.1083 0.0 0.0 0
M  V30 END ATOM
M  V30 BEGIN BOND
M  V30 1 1 1 2
M  V30 2 2 2 3
M  V30 3 1 2 4
M  V30 4 1 3 5
M  V30 5 2 4 6
M  V30 6 2 5 7
M  V30 7 1 7 8
M  V30 8 1 8 9
M  V30 9 1 8 10
M  V30 10 2 9 11
M  V30 11 1 10 12
M  V30 12 1 10 13
M  V30 13 1 11 14
M  V30 14 1 12 15
M  V30 15 2 13 16
M  V30 16 1 13 17
M  V30 17 2 14 18
M  V30 18 1 14 19
M  V30 19 2 15 20
M  V30 20 1 15 21
M  V30 21 1 16 22
M  V30 22 2 17 23
M  V30 23 1 18 24
M  V30 24 1 18 25
M  V30 25 2 19 26
M  V30 26 1 21 27
M  V30 27 1 21 28
M  V30 28 2 22 29
M  V30 29 1 24 30
M  V30 30 2 25 31
M  V30 31 1 27 32
M  V30 32 1 28 33
M  V30 33 1 29 34
M  V30 34 1 30 35
M  V30 35 1 30 36
M  V30 36 1 31 37
M  V30 37 2 32 38
M  V30 38 1 32 39
M  V30 39 1 37 40
M  V30 40 1 6 7
M  V30 41 1 11 12
M  V30 42 1 23 29
M  V30 43 1 26 31
M  V30 44 1 33 39
M  V30 END BOND
M  V30 END CTAB
M  END
>  <Molecule Name>
Compound 1086

>  <Molecule Name 2>
Compound 1086

>  <Compound ID>
352

>  <Name>
Nutlin-3

>  <Uniprot>
Q00987

>  <Target>
MDM2

>  <Smiles>
COC1=CC=C(C2=NC(C3=CC=C(Cl)C=C3)C(C3=CC=C(Cl)C=C3)N2C(=O)N2CCNC(=O)C2)C(OC(C)C)=C1

>  <Kd (nM)>


>  <Assay (Kd)>


>  <Ki (nM)>


>  <Assay (Ki)>
700

>  <IC50 (nM)>
ITC

>  <Assay (IC50)>


>  <EC50 (nM)>


>  <Assay (EC50)>


>  <Article DOI>
10.1021/jm8002813

>  <Molecular Weight>
581.5

>  <Exact Mass>
580.1644108

>  <XLogP3>
5.2

>  <Heavy Atom Count>
40

>  <Ring Count>
5

>  <Hydrogen Bond Acceptor Count>
5

>  <Hydrogen Bond Donor Count>
1

>  <Rotatable Bond Count>
6

>  <Topological Polar Surface Area>
83.47

>  <Molecular Formula>
C30H30Cl2N4O4

>  <InChI>
InChI=1S/C30H30Cl2N4O4/c1-18(2)40-25-16-23(39-3)12-13-24(25)29-34-27(19-4-8-21(31)9-5-19)28(20-6-10-22(32)11-7-20)36(29)30(38)35-15-14-33-26(37)17-35/h4-13,16,18,27-28H,14-15,17H2,1-3H3,(H,33,37)

>  <InChI Key>
BDUHCSBCVGXTJM-UHFFFAOYSA-N

>  <BindingDB>
50229787

>  <PubChem>
216345

>  <ChEMBL>
CHEMBL211045

$$$$
353
Actelion Java MolfileCreator 2.0

  0  0  0  0  0  0              0 V3000
M  V30 BEGIN CTAB
M  V30 COUNTS 40 44 0 0 0
M  V30 BEGIN ATOM
M  V30 1 Cl -5.7525 2.1309 0.0 0
M  V30 2 C -4.2583 2.288 0.0 0
M  V30 3 C -3.3751 1.0724 0.0 0
M  V30 4 C -3.6472 3.6606 0.0 0
M  V30 5 C -1.8809 1.2295 0.0 0
M  V30 6 C -2.1529 3.8176 0.0 0
M  V30 7 C -1.2698 2.6021 0.0 0
M  V30 8 C 0.2244 2.7591 0.0 0 CFG=2
M  V30 9 N 1.2297 1.6426 0.0 0
M  V30 10 C 0.9756 4.0603 0.0 0 CFG=2
M  V30 11 C 2.6023 2.2537 0.0 0
M  V30 12 N 2.4453 3.7479 0.0 0
M  V30 13 C 0.3645 5.4329 0.0 0
M  V30 14 C 3.9035 1.5024 0.0 0
M  V30 15 C 3.5618 4.7533 0.0 0
M  V30 16 C 1.2035 6.6455 0.0 0
M  V30 17 C -1.1296 5.59 0.0 0
M  V30 18 C 3.9035 0.0 0.0 0
M  V30 19 C 5.2047 2.2537 0.0 0
M  V30 20 O 4.9908 4.289 0.0 0
M  V30 21 N 3.2495 6.2229 0.0 0
M  V30 22 C 0.6365 8.021 0.0 0
M  V30 23 C -1.7408 6.9625 0.0 0
M  V30 24 O 2.6023 -0.7512 0.0 0
M  V30 25 C 5.2047 -0.7512 0.0 0
M  V30 26 C 6.5059 1.5024 0.0 0
M  V30 27 C 4.366 7.2283 0.0 0
M  V30 28 C 1.9088 6.6932 0.0 0
M  V30 29 C -0.8576 8.1781 0.0 0
M  V30 30 C 2.6023 -2.2537 0.0 0
M  V30 31 C 6.5059 0.0 0.0 0
M  V30 32 C 4.0536 8.698 0.0 0
M  V30 33 C 1.5081 8.1569 0.0 0
M  V30 34 Cl -1.4687 9.5507 0.0 0
M  V30 35 C 3.9035 -3.0049 0.0 0
M  V30 36 C 1.3011 -3.0049 0.0 0
M  V30 37 O 7.8071 -0.7512 0.0 0
M  V30 38 O 5.1702 9.7033 0.0 0
M  V30 39 N 2.6247 9.1623 0.0 0
M  V30 40 C 9.1083 0.0 0.0 0
M  V30 END ATOM
M  V30 BEGIN BOND
M  V30 1 1 1 2
M  V30 2 2 2 3
M  V30 3 1 2 4
M  V30 4 1 3 5
M  V30 5 2 4 6
M  V30 6 2 5 7
M  V30 7 1 8 7 CFG=1
M  V30 8 1 8 9
M  V30 9 1 10 8
M  V30 10 2 9 11
M  V30 11 1 10 12
M  V30 12 1 10 13 CFG=1
M  V30 13 1 11 14
M  V30 14 1 12 15
M  V30 15 2 13 16
M  V30 16 1 13 17
M  V30 17 2 14 18
M  V30 18 1 14 19
M  V30 19 2 15 20
M  V30 20 1 15 21
M  V30 21 1 16 22
M  V30 22 2 17 23
M  V30 23 1 18 24
M  V30 24 1 18 25
M  V30 25 2 19 26
M  V30 26 1 21 27
M  V30 27 1 21 28
M  V30 28 2 22 29
M  V30 29 1 24 30
M  V30 30 2 25 31
M  V30 31 1 27 32
M  V30 32 1 28 33
M  V30 33 1 29 34
M  V30 34 1 30 35
M  V30 35 1 30 36
M  V30 36 1 31 37
M  V30 37 2 32 38
M  V30 38 1 32 39
M  V30 39 1 37 40
M  V30 40 1 6 7
M  V30 41 1 11 12
M  V30 42 1 23 29
M  V30 43 1 26 31
M  V30 44 1 33 39
M  V30 END BOND
M  V30 BEGIN COLLECTION
M  V30 MDLV30/STEABS ATOMS=(2 8 10)
M  V30 END COLLECTION
M  V30 END CTAB
M  END
>  <Molecule Name>
Compound 1087

>  <Molecule Name 2>
Compound 1087

>  <Compound ID>
353

>  <Name>
Nutlin-3A

>  <Uniprot>
Q00987

>  <Target>
MDM2

>  <Smiles>
COC1=CC=C(C2=N[C@@H](C3=CC=C(Cl)C=C3)[C@@H](C3=CC=C(Cl)C=C3)N2C(=O)N2CCNC(=O)C2)C(OC(C)C)=C1

>  <Kd (nM)>


>  <Assay (Kd)>


>  <Ki (nM)>


>  <Assay (Ki)>


>  <IC50 (nM)>
90

>  <Assay (IC50)>
Inhibition of interaction between MDM2 and p53 on a Biacore S51

>  <EC50 (nM)>


>  <Assay (EC50)>


>  <Article DOI>
10.1126/science.1092472

>  <Molecular Weight>
581.5

>  <Exact Mass>
580.1644108

>  <XLogP3>
5.2

>  <Heavy Atom Count>
40

>  <Ring Count>
5

>  <Hydrogen Bond Acceptor Count>
5

>  <Hydrogen Bond Donor Count>
1

>  <Rotatable Bond Count>
6

>  <Topological Polar Surface Area>
83.47

>  <Molecular Formula>
C30H30Cl2N4O4

>  <InChI>
InChI=1S/C30H30Cl2N4O4/c1-18(2)40-25-16-23(39-3)12-13-24(25)29-34-27(19-4-8-21(31)9-5-19)28(20-6-10-22(32)11-7-20)36(29)30(38)35-15-14-33-26(37)17-35/h4-13,16,18,27-28H,14-15,17H2,1-3H3,(H,33,37)/t27-,28+/m0/s1

>  <InChI Key>
BDUHCSBCVGXTJM-WUFINQPMSA-N

>  <BindingDB>
50229787

>  <PubChem>
11433190

>  <ChEMBL>
CHEMBL191334

$$$$
354
Actelion Java MolfileCreator 2.0

  0  0  0  0  0  0              0 V3000
M  V30 BEGIN CTAB
M  V30 COUNTS 40 44 0 0 0
M  V30 BEGIN ATOM
M  V30 1 Cl -5.7525 2.1309 0.0 0
M  V30 2 C -4.2583 2.288 0.0 0
M  V30 3 C -3.3751 1.0724 0.0 0
M  V30 4 C -3.6472 3.6606 0.0 0
M  V30 5 C -1.8809 1.2295 0.0 0
M  V30 6 C -2.1529 3.8176 0.0 0
M  V30 7 C -1.2698 2.6021 0.0 0
M  V30 8 C 0.2244 2.7591 0.0 0 CFG=1
M  V30 9 N 1.2297 1.6426 0.0 0
M  V30 10 C 0.9756 4.0603 0.0 0 CFG=1
M  V30 11 C 2.6023 2.2537 0.0 0
M  V30 12 N 2.4453 3.7479 0.0 0
M  V30 13 C 0.3645 5.4329 0.0 0
M  V30 14 C 3.9035 1.5024 0.0 0
M  V30 15 C 3.5618 4.7533 0.0 0
M  V30 16 C 1.2035 6.6455 0.0 0
M  V30 17 C -1.1296 5.59 0.0 0
M  V30 18 C 3.9035 0.0 0.0 0
M  V30 19 C 5.2047 2.2537 0.0 0
M  V30 20 O 4.9908 4.289 0.0 0
M  V30 21 N 3.2495 6.2229 0.0 0
M  V30 22 C 0.6365 8.021 0.0 0
M  V30 23 C -1.7408 6.9625 0.0 0
M  V30 24 O 2.6023 -0.7512 0.0 0
M  V30 25 C 5.2047 -0.7512 0.0 0
M  V30 26 C 6.5059 1.5024 0.0 0
M  V30 27 C 4.366 7.2283 0.0 0
M  V30 28 C 1.9088 6.6932 0.0 0
M  V30 29 C -0.8576 8.1781 0.0 0
M  V30 30 C 2.6023 -2.2537 0.0 0
M  V30 31 C 6.5059 0.0 0.0 0
M  V30 32 C 4.0536 8.698 0.0 0
M  V30 33 C 1.5081 8.1569 0.0 0
M  V30 34 Cl -1.4687 9.5507 0.0 0
M  V30 35 C 3.9035 -3.0049 0.0 0
M  V30 36 C 1.3011 -3.0049 0.0 0
M  V30 37 O 7.8071 -0.7512 0.0 0
M  V30 38 O 5.1702 9.7033 0.0 0
M  V30 39 N 2.6247 9.1623 0.0 0
M  V30 40 C 9.1083 0.0 0.0 0
M  V30 END ATOM
M  V30 BEGIN BOND
M  V30 1 1 1 2
M  V30 2 2 2 3
M  V30 3 1 2 4
M  V30 4 1 3 5
M  V30 5 2 4 6
M  V30 6 2 5 7
M  V30 7 1 8 7 CFG=3
M  V30 8 1 8 9
M  V30 9 1 10 8
M  V30 10 2 9 11
M  V30 11 1 10 12
M  V30 12 1 10 13 CFG=3
M  V30 13 1 11 14
M  V30 14 1 12 15
M  V30 15 2 13 16
M  V30 16 1 13 17
M  V30 17 2 14 18
M  V30 18 1 14 19
M  V30 19 2 15 20
M  V30 20 1 15 21
M  V30 21 1 16 22
M  V30 22 2 17 23
M  V30 23 1 18 24
M  V30 24 1 18 25
M  V30 25 2 19 26
M  V30 26 1 21 27
M  V30 27 1 21 28
M  V30 28 2 22 29
M  V30 29 1 24 30
M  V30 30 2 25 31
M  V30 31 1 27 32
M  V30 32 1 28 33
M  V30 33 1 29 34
M  V30 34 1 30 35
M  V30 35 1 30 36
M  V30 36 1 31 37
M  V30 37 2 32 38
M  V30 38 1 32 39
M  V30 39 1 37 40
M  V30 40 1 6 7
M  V30 41 1 11 12
M  V30 42 1 23 29
M  V30 43 1 26 31
M  V30 44 1 33 39
M  V30 END BOND
M  V30 BEGIN COLLECTION
M  V30 MDLV30/STEABS ATOMS=(2 8 10)
M  V30 END COLLECTION
M  V30 END CTAB
M  END
>  <Molecule Name>
Compound 1088

>  <Molecule Name 2>
Compound 1088

>  <Compound ID>
354

>  <Name>
Nutlin-3B

>  <Uniprot>
Q00987

>  <Target>
MDM2

>  <Smiles>
COC1=CC=C(C2=N[C@H](C3=CC=C(Cl)C=C3)[C@H](C3=CC=C(Cl)C=C3)N2C(=O)N2CCNC(=O)C2)C(OC(C)C)=C1

>  <Kd (nM)>


>  <Assay (Kd)>


>  <Ki (nM)>


>  <Assay (Ki)>


>  <IC50 (nM)>
13600

>  <Assay (IC50)>
Inhibition of interaction between MDM2 and p53 on a Biacore S51

>  <EC50 (nM)>


>  <Assay (EC50)>


>  <Article DOI>
10.1126/science.1092472

>  <Molecular Weight>
581.5

>  <Exact Mass>
580.1644108

>  <XLogP3>
5.2

>  <Heavy Atom Count>
40

>  <Ring Count>
5

>  <Hydrogen Bond Acceptor Count>
5

>  <Hydrogen Bond Donor Count>
1

>  <Rotatable Bond Count>
6

>  <Topological Polar Surface Area>
83.47

>  <Molecular Formula>
C30H30Cl2N4O4

>  <InChI>
InChI=1S/C30H30Cl2N4O4/c1-18(2)40-25-16-23(39-3)12-13-24(25)29-34-27(19-4-8-21(31)9-5-19)28(20-6-10-22(32)11-7-20)36(29)30(38)35-15-14-33-26(37)17-35/h4-13,16,18,27-28H,14-15,17H2,1-3H3,(H,33,37)/t27-,28+/m1/s1

>  <InChI Key>
BDUHCSBCVGXTJM-IZLXSDGUSA-N

>  <BindingDB>
50392532

>  <PubChem>
16755649

>  <ChEMBL>
CHEMBL2152332

$$$$
355
Actelion Java MolfileCreator 2.0

  0  0  0  0  0  0              0 V3000
M  V30 BEGIN CTAB
M  V30 COUNTS 39 43 0 0 0
M  V30 BEGIN ATOM
M  V30 1 F 8.5442 0.549 0.0 0
M  V30 2 C 7.7942 -0.75 0.0 0
M  V30 3 F 9.0932 -1.5 0.0 0
M  V30 4 F 7.0442 -2.049 0.0 0
M  V30 5 C 6.4951 0.0 0.0 0
M  V30 6 C 6.4951 1.5 0.0 0
M  V30 7 C 5.1961 -0.7499 0.0 0
M  V30 8 C 5.1961 2.25 0.0 0
M  V30 9 C 7.7942 2.25 0.0 0
M  V30 10 C 3.8971 0.0 0.0 0
M  V30 11 C 3.8971 1.5 0.0 0
M  V30 12 N 7.7942 3.75 0.0 0
M  V30 13 N 2.598 -0.75 0.0 0
M  V30 14 C 9.0932 4.5 0.0 0
M  V30 15 C 6.4951 4.5 0.0 0
M  V30 16 C 1.299 0.0 0.0 0
M  V30 17 C 9.0932 5.9999 0.0 0
M  V30 18 C 6.4951 6.0 0.0 0
M  V30 19 O 1.299 1.5 0.0 0
M  V30 20 C 0.0 -0.75 0.0 0
M  V30 21 N 7.7942 6.75 0.0 0
M  V30 22 C -1.299 0.0 0.0 0
M  V30 23 C 0.0 -2.2499 0.0 0
M  V30 24 C 7.7942 8.25 0.0 0
M  V30 25 C -2.598 -0.7499 0.0 0
M  V30 26 C -1.299 -3.0 0.0 0
M  V30 27 C -3.8971 0.0 0.0 0
M  V30 28 C -2.598 -2.2499 0.0 0
M  V30 29 C -5.1961 0.75 0.0 0
M  V30 30 C -3.8971 -2.9999 0.0 0
M  V30 31 C -6.4951 1.5 0.0 0
M  V30 32 C -6.4951 3.0 0.0 0
M  V30 33 C -7.7942 0.75 0.0 0
M  V30 34 N -7.7942 3.75 0.0 0
M  V30 35 C -9.0932 1.5 0.0 0
M  V30 36 C -9.0932 3.0 0.0 0
M  V30 37 C -10.5198 1.0364 0.0 0
M  V30 38 N -10.5198 3.4635 0.0 0
M  V30 39 N -11.4015 2.25 0.0 0
M  V30 END ATOM
M  V30 BEGIN BOND
M  V30 1 1 1 2
M  V30 2 1 2 3
M  V30 3 1 2 4
M  V30 4 1 2 5
M  V30 5 2 5 6
M  V30 6 1 5 7
M  V30 7 1 6 8
M  V30 8 1 6 9
M  V30 9 2 7 10
M  V30 10 2 8 11
M  V30 11 1 9 12
M  V30 12 1 10 13
M  V30 13 1 12 14
M  V30 14 1 12 15
M  V30 15 1 13 16
M  V30 16 1 14 17
M  V30 17 1 15 18
M  V30 18 2 16 19
M  V30 19 1 16 20
M  V30 20 1 17 21
M  V30 21 2 20 22
M  V30 22 1 20 23
M  V30 23 1 21 24
M  V30 24 1 22 25
M  V30 25 2 23 26
M  V30 26 1 25 27
M  V30 27 2 25 28
M  V30 28 3 27 29
M  V30 29 1 28 30
M  V30 30 1 29 31
M  V30 31 2 31 32
M  V30 32 1 31 33
M  V30 33 1 32 34
M  V30 34 2 33 35
M  V30 35 2 34 36
M  V30 36 1 35 37
M  V30 37 1 36 38
M  V30 38 2 37 39
M  V30 39 1 10 11
M  V30 40 1 18 21
M  V30 41 1 26 28
M  V30 42 1 35 36
M  V30 43 1 38 39
M  V30 END BOND
M  V30 END CTAB
M  END
>  <Molecule Name>
Compound 1089

>  <Molecule Name 2>
Compound 1089

>  <Compound ID>
355

>  <Name>
GZD824

>  <Uniprot>


>  <Target>
BCR-ABL T315I

>  <Smiles>
CC1=CC=C(C(=O)NC2=CC=C(CN3CCN(C)CC3)C(C(F)(F)F)=C2)C=C1C#CC1=CN=C2[NH]N=CC2=C1

>  <Kd (nM)>


>  <Assay (Kd)>


>  <Ki (nM)>


>  <Assay (Ki)>


>  <IC50 (nM)>
0.68

>  <Assay (IC50)>
IC50 was assessed by FRET-based Z'-Lyte assay

>  <EC50 (nM)>


>  <Assay (EC50)>


>  <Article DOI>
10.1021/jm301581y

>  <Molecular Weight>
532.57

>  <Exact Mass>
532.2198441

>  <XLogP3>
4.57

>  <Heavy Atom Count>
39

>  <Ring Count>
5

>  <Hydrogen Bond Acceptor Count>
5

>  <Hydrogen Bond Donor Count>
2

>  <Rotatable Bond Count>
4

>  <Topological Polar Surface Area>
77.15

>  <Molecular Formula>
C29H27F3N6O

>  <InChI>
InChI=1S/C29H27F3N6O/c1-19-3-5-22(14-21(19)6-4-20-13-24-17-34-36-27(24)33-16-20)28(39)35-25-8-7-23(26(15-25)29(30,31)32)18-38-11-9-37(2)10-12-38/h3,5,7-8,13-17H,9-12,18H2,1-2H3,(H,35,39)(H,33,34,36)

>  <InChI Key>
TZKBVRDEOITLRB-UHFFFAOYSA-N

>  <BindingDB>
50425780

>  <PubChem>
51038269

>  <ChEMBL>
CHEMBL2316582

$$$$
356
Actelion Java MolfileCreator 2.0

  0  0  0  0  0  0              0 V3000
M  V30 BEGIN CTAB
M  V30 COUNTS 29 31 0 0 0
M  V30 BEGIN ATOM
M  V30 1 O 0.0 -2.25 0.0 0
M  V30 2 C 0.0 -0.75 0.0 0
M  V30 3 O 1.299 0.0 0.0 0
M  V30 4 C -1.299 0.0 0.0 0
M  V30 5 C 1.299 1.5 0.0 0 CFG=1
M  V30 6 C -1.299 1.4999 0.0 0 CFG=1
M  V30 7 C 0.0 2.2499 0.0 0
M  V30 8 C 2.598 2.2499 0.0 0
M  V30 9 O -2.598 2.2499 0.0 0
M  V30 10 C 3.8971 1.4999 0.0 0
M  V30 11 C 5.1961 2.2499 0.0 0 CFG=2
M  V30 12 C 6.4951 1.4999 0.0 0 CFG=2
M  V30 13 C 5.1961 3.7499 0.0 0 CFG=2
M  V30 14 C 7.7942 2.2499 0.0 0
M  V30 15 C 6.4951 0.0 0.0 0 CFG=1
M  V30 16 C 6.4951 4.4999 0.0 0
M  V30 17 C 3.8971 4.5 0.0 0
M  V30 18 C 7.7942 3.7499 0.0 0
M  V30 19 C 9.0932 1.4999 0.0 0
M  V30 20 O 5.1961 -0.75 0.0 0
M  V30 21 C 7.7942 -0.75 0.0 0
M  V30 22 C 9.0932 0.0 0.0 0 CFG=1
M  V30 23 C 5.1961 -2.25 0.0 0
M  V30 24 C 10.3923 -0.75 0.0 0
M  V30 25 O 6.4951 -3.0 0.0 0
M  V30 26 C 3.8971 -2.9999 0.0 0 CFG=2
M  V30 27 C 3.8971 -4.5 0.0 0
M  V30 28 C 2.598 -2.2499 0.0 0
M  V30 29 C 2.598 -5.25 0.0 0
M  V30 END ATOM
M  V30 BEGIN BOND
M  V30 1 2 1 2
M  V30 2 1 2 3
M  V30 3 1 2 4
M  V30 4 1 5 3
M  V30 5 1 6 4
M  V30 6 1 5 7
M  V30 7 1 5 8 CFG=1
M  V30 8 1 6 9 CFG=3
M  V30 9 1 8 10
M  V30 10 1 11 10 CFG=1
M  V30 11 1 12 11
M  V30 12 1 13 11
M  V30 13 1 12 14 CFG=3
M  V30 14 1 15 12
M  V30 15 1 13 16
M  V30 16 1 13 17 CFG=1
M  V30 17 1 14 18
M  V30 18 2 14 19
M  V30 19 1 15 20 CFG=3
M  V30 20 1 15 21
M  V30 21 1 22 19
M  V30 22 1 20 23
M  V30 23 1 22 24 CFG=3
M  V30 24 2 23 25
M  V30 25 1 26 23
M  V30 26 1 26 27
M  V30 27 1 26 28 CFG=3
M  V30 28 1 27 29
M  V30 29 1 6 7
M  V30 30 2 16 18
M  V30 31 1 21 22
M  V30 END BOND
M  V30 BEGIN COLLECTION
M  V30 MDLV30/STEABS ATOMS=(8 5 6 11 12 13 15 22 26)
M  V30 END COLLECTION
M  V30 END CTAB
M  END
>  <Molecule Name>
Compound 1090

>  <Molecule Name 2>
Compound 1090

>  <Compound ID>
356

>  <Name>
Lovastatin

>  <Uniprot>
P04035

>  <Target>
HMGCR

>  <Smiles>
CC[C@H](C)C(=O)O[C@H]1C[C@@H](C)C=C2C=C[C@H](C)[C@H](CC[C@@H]3C[C@@H](O)CC(=O)O3)[C@H]21

>  <Kd (nM)>


>  <Assay (Kd)>


>  <Ki (nM)>


>  <Assay (Ki)>


>  <IC50 (nM)>
30

>  <Assay (IC50)>
Inhibition of HMGCR by spectrophotometric analysis

>  <EC50 (nM)>


>  <Assay (EC50)>


>  <Article DOI>
10.1021/jm400179b

>  <Molecular Weight>
404.547

>  <Exact Mass>
404.2562743

>  <XLogP3>
4.26

>  <Heavy Atom Count>
29

>  <Ring Count>
3

>  <Hydrogen Bond Acceptor Count>
5

>  <Hydrogen Bond Donor Count>
1

>  <Rotatable Bond Count>
6

>  <Topological Polar Surface Area>
72.83

>  <Molecular Formula>
C24H36O5

>  <InChI>
InChI=1S/C24H36O5/c1-5-15(3)24(27)29-21-11-14(2)10-17-7-6-16(4)20(23(17)21)9-8-19-12-18(25)13-22(26)28-19/h6-7,10,14-16,18-21,23,25H,5,8-9,11-13H2,1-4H3/t14-,15-,16-,18+,19+,20-,21-,23-/m0/s1

>  <InChI Key>
PCZOHLXUXFIOCF-BXMDZJJMSA-N

>  <BindingDB>
34168

>  <PubChem>
53232

>  <ChEMBL>
CHEMBL503

$$$$
357
Actelion Java MolfileCreator 2.0

  0  0  0  0  0  0              0 V3000
M  V30 BEGIN CTAB
M  V30 COUNTS 18 19 0 0 0
M  V30 BEGIN ATOM
M  V30 1 Cl 2.6023 -5.852 0.0 0
M  V30 2 C 3.1901 -5.043 0.0 0
M  V30 3 C 4.1846 -5.1475 0.0 0
M  V30 4 C 2.7834 -4.1294 0.0 0
M  V30 5 C 4.7724 -4.3385 0.0 0
M  V30 6 C 3.3712 -3.3204 0.0 0
M  V30 7 C 4.3657 -3.4249 0.0 0
M  V30 8 N 4.9535 -2.6159 0.0 0
M  V30 9 C 4.5467 -1.7024 0.0 0
M  V30 10 S 5.0467 -0.8364 0.0 0
M  V30 11 N 3.5686 -1.4945 0.0 0
M  V30 12 C 4.3776 -0.0932 0.0 0
M  V30 13 C 3.4641 -0.5 0.0 0
M  V30 14 C 2.598 0.0 0.0 0
M  V30 15 O 2.598 1.0 0.0 0
M  V30 16 O 1.732 -0.5 0.0 0
M  V30 17 C 0.866 0.0 0.0 0
M  V30 18 C 0.0 -0.5 0.0 0
M  V30 END ATOM
M  V30 BEGIN BOND
M  V30 1 1 1 2
M  V30 2 2 2 3
M  V30 3 1 2 4
M  V30 4 1 3 5
M  V30 5 2 4 6
M  V30 6 2 5 7
M  V30 7 1 7 8
M  V30 8 1 8 9
M  V30 9 1 9 10
M  V30 10 2 9 11
M  V30 11 1 10 12
M  V30 12 1 11 13
M  V30 13 1 13 14
M  V30 14 2 14 15
M  V30 15 1 14 16
M  V30 16 1 16 17
M  V30 17 1 17 18
M  V30 18 1 6 7
M  V30 19 2 12 13
M  V30 END BOND
M  V30 END CTAB
M  END
>  <Molecule Name>
Compound 1091

>  <Molecule Name 2>
Compound 1091

>  <Compound ID>
357

>  <Name>
O4I2

>  <Uniprot>
O75533

>  <Target>
SF3B1

>  <Smiles>
CCOC(=O)C1=CSC(NC2=CC=C(Cl)C=C2)=N1

>  <Kd (nM)>


>  <Assay (Kd)>


>  <Ki (nM)>


>  <Assay (Ki)>


>  <IC50 (nM)>


>  <Assay (IC50)>


>  <EC50 (nM)>


>  <Assay (EC50)>


>  <Article DOI>
10.1021/acs.jmedchem.5b00226

>  <Molecular Weight>
282.752

>  <Exact Mass>
282.0229763

>  <XLogP3>
4.01

>  <Heavy Atom Count>
18

>  <Ring Count>
2

>  <Hydrogen Bond Acceptor Count>
5

>  <Hydrogen Bond Donor Count>
1

>  <Rotatable Bond Count>
4

>  <Topological Polar Surface Area>
51.22

>  <Molecular Formula>
C12H11ClN2O2S

>  <InChI>
InChI=1S/C12H11ClN2O2S/c1-2-17-11(16)10-7-18-12(15-10)14-9-5-3-8(13)4-6-9/h3-7H,2H2,1H3,(H,14,15)

>  <InChI Key>
ULUBAPWNHROTEU-UHFFFAOYSA-N

>  <BindingDB>


>  <PubChem>
53428670

>  <ChEMBL>
CHEMBL3593861

$$$$
358
Actelion Java MolfileCreator 2.0

  0  0  0  0  0  0              0 V3000
M  V30 BEGIN CTAB
M  V30 COUNTS 23 25 0 0 0
M  V30 BEGIN ATOM
M  V30 1 S 1.732 -0.5 0.0 0
M  V30 2 C 2.598 0.0 0.0 0
M  V30 3 C 0.866 0.0 0.0 0
M  V30 4 C 3.4641 -0.4999 0.0 0
M  V30 5 C 2.598 0.9999 0.0 0
M  V30 6 C 0.0 -0.5 0.0 0
M  V30 7 C 4.3301 0.0 0.0 0
M  V30 8 C 3.4641 1.5 0.0 0
M  V30 9 N -0.9135 -0.0932 0.0 0
M  V30 10 C -0.1045 -1.4945 0.0 0
M  V30 11 C 4.3301 1.0 0.0 0
M  V30 12 N -1.5826 -0.8364 0.0 0
M  V30 13 N -1.0826 -1.7024 0.0 0
M  V30 14 C -1.4894 -2.6159 0.0 0
M  V30 15 C -2.4839 -2.7205 0.0 0
M  V30 16 C -0.9016 -3.4249 0.0 0
M  V30 17 C -2.8906 -3.634 0.0 0
M  V30 18 C -1.3083 -4.3385 0.0 0
M  V30 19 C -3.8851 -3.7385 0.0 0
M  V30 20 C -2.3028 -4.443 0.0 0
M  V30 21 O -4.2919 -4.6521 0.0 0
M  V30 22 N -4.4729 -2.9295 0.0 0
M  V30 23 O -5.4675 -3.034 0.0 0
M  V30 END ATOM
M  V30 BEGIN BOND
M  V30 1 1 1 2
M  V30 2 1 1 3
M  V30 3 2 2 4
M  V30 4 1 2 5
M  V30 5 1 3 6
M  V30 6 1 4 7
M  V30 7 2 5 8
M  V30 8 1 6 9
M  V30 9 2 6 10
M  V30 10 2 7 11
M  V30 11 2 9 12
M  V30 12 1 10 13
M  V30 13 1 13 14
M  V30 14 2 14 15
M  V30 15 1 14 16
M  V30 16 1 15 17
M  V30 17 2 16 18
M  V30 18 1 17 19
M  V30 19 2 17 20
M  V30 20 2 19 21
M  V30 21 1 19 22
M  V30 22 1 22 23
M  V30 23 1 8 11
M  V30 24 1 12 13
M  V30 25 1 18 20
M  V30 END BOND
M  V30 END CTAB
M  END
>  <Molecule Name>
Compound 1092

>  <Molecule Name 2>
Compound 1092

>  <Compound ID>
358

>  <Name>


>  <Uniprot>
Q9BY41

>  <Target>
HDAC8

>  <Smiles>
O=C(NO)C1=CC=CC(N2C=C(CSC3=CC=CC=C3)N=N2)=C1

>  <Kd (nM)>


>  <Assay (Kd)>


>  <Ki (nM)>


>  <Assay (Ki)>


>  <IC50 (nM)>
53

>  <Assay (IC50)>
IC50 was assessed by an HDACs/HDAC8 deacetylase fluorimetric assay kit

>  <EC50 (nM)>


>  <Assay (EC50)>


>  <Article DOI>
10.1002/cmdc.201300414

>  <Molecular Weight>
326.381

>  <Exact Mass>
326.0837467

>  <XLogP3>
2.18

>  <Heavy Atom Count>
23

>  <Ring Count>
3

>  <Hydrogen Bond Acceptor Count>
6

>  <Hydrogen Bond Donor Count>
2

>  <Rotatable Bond Count>
5

>  <Topological Polar Surface Area>
80.04

>  <Molecular Formula>
C16H14N4O2S

>  <InChI>
InChI=1S/C16H14N4O2S/c21-16(18-22)12-5-4-6-14(9-12)20-10-13(17-19-20)11-23-15-7-2-1-3-8-15/h1-10,22H,11H2,(H,18,21)

>  <InChI Key>
OFSHXPSPXVRDMH-UHFFFAOYSA-N

>  <BindingDB>


>  <PubChem>
136237948

>  <ChEMBL>


$$$$
359
Actelion Java MolfileCreator 2.0

  0  0  0  0  0  0              0 V3000
M  V30 BEGIN CTAB
M  V30 COUNTS 41 44 0 0 0
M  V30 BEGIN ATOM
M  V30 1 Cl 4.3301 2.9999 0.0 0
M  V30 2 C 5.1961 2.4999 0.0 0
M  V30 3 C 6.0621 2.9999 0.0 0
M  V30 4 C 5.1961 1.4999 0.0 0
M  V30 5 C 6.9282 2.4999 0.0 0
M  V30 6 C 6.0621 3.9999 0.0 0
M  V30 7 C 6.0621 0.9999 0.0 0
M  V30 8 C 4.3301 0.9999 0.0 0
M  V30 9 C 6.9282 1.4999 0.0 0
M  V30 10 F 7.0621 3.9999 0.0 0
M  V30 11 F 6.0621 4.9999 0.0 0
M  V30 12 F 5.0621 3.9999 0.0 0
M  V30 13 N 4.3301 0.0 0.0 0
M  V30 14 C 5.1961 -0.5 0.0 0
M  V30 15 C 3.4641 -0.5 0.0 0
M  V30 16 C 5.1961 -1.5 0.0 0
M  V30 17 C 2.598 0.0 0.0 0
M  V30 18 C 6.0621 -2.0 0.0 0
M  V30 19 C 4.3301 -2.0 0.0 0
M  V30 20 C 1.732 -0.5 0.0 0
M  V30 21 C 6.9282 -1.5 0.0 0
M  V30 22 C 6.0621 -3.0 0.0 0
M  V30 23 C 4.3301 -3.0 0.0 0
M  V30 24 C 3.4641 -1.5 0.0 0
M  V30 25 O 0.866 0.0 0.0 0
M  V30 26 C 7.7942 -2.0 0.0 0
M  V30 27 C 6.9282 -3.5 0.0 0
M  V30 28 C 3.4641 -3.5 0.0 0
M  V30 29 C 2.598 -2.0 0.0 0
M  V30 30 C 0.0 -0.5 0.0 0
M  V30 31 C 7.7942 -3.0 0.0 0
M  V30 32 C 2.598 -3.0 0.0 0
M  V30 33 C -0.866 0.0 0.0 0
M  V30 34 C 0.0 -1.4999 0.0 0
M  V30 35 C -1.732 -0.4999 0.0 0
M  V30 36 C -0.866 -1.9999 0.0 0
M  V30 37 C -1.732 -1.4999 0.0 0
M  V30 38 C -2.598 0.0 0.0 0
M  V30 39 C -2.598 1.0 0.0 0
M  V30 40 O -1.732 1.5 0.0 0
M  V30 41 O -3.4641 1.5 0.0 0
M  V30 END ATOM
M  V30 BEGIN BOND
M  V30 1 1 1 2
M  V30 2 2 2 3
M  V30 3 1 2 4
M  V30 4 1 3 5
M  V30 5 1 3 6
M  V30 6 2 4 7
M  V30 7 1 4 8
M  V30 8 2 5 9
M  V30 9 1 6 10
M  V30 10 1 6 11
M  V30 11 1 6 12
M  V30 12 1 8 13
M  V30 13 1 13 14
M  V30 14 1 13 15
M  V30 15 1 14 16
M  V30 16 1 15 17
M  V30 17 1 16 18
M  V30 18 1 16 19
M  V30 19 1 17 20
M  V30 20 2 18 21
M  V30 21 1 18 22
M  V30 22 2 19 23
M  V30 23 1 19 24
M  V30 24 1 20 25
M  V30 25 1 21 26
M  V30 26 2 22 27
M  V30 27 1 23 28
M  V30 28 2 24 29
M  V30 29 1 25 30
M  V30 30 2 26 31
M  V30 31 2 28 32
M  V30 32 2 30 33
M  V30 33 1 30 34
M  V30 34 1 33 35
M  V30 35 2 34 36
M  V30 36 2 35 37
M  V30 37 1 35 38
M  V30 38 1 38 39
M  V30 39 2 39 40
M  V30 40 1 39 41
M  V30 41 1 7 9
M  V30 42 1 27 31
M  V30 43 1 29 32
M  V30 44 1 36 37
M  V30 END BOND
M  V30 END CTAB
M  END
>  <Molecule Name>
Compound 1093

>  <Molecule Name 2>
Compound 1093

>  <Compound ID>
359

>  <Name>
GW3965

>  <Uniprot>
Q13133

>  <Target>
LXRA

>  <Smiles>
O=C(O)CC1=CC=CC(OCCCN(CC2=CC=CC(C(F)(F)F)=C2Cl)CC(C2=CC=CC=C2)C2=CC=CC=C2)=C1

>  <Kd (nM)>


>  <Assay (Kd)>


>  <Ki (nM)>


>  <Assay (Ki)>


>  <IC50 (nM)>


>  <Assay (IC50)>


>  <EC50 (nM)>
367

>  <Assay (EC50)>
EC50 was tested by HTRF

>  <Article DOI>
10.1016/j.bmcl.2007.06.017

>  <Molecular Weight>
582.062

>  <Exact Mass>
581.1944562

>  <XLogP3>
5.89

>  <Heavy Atom Count>
41

>  <Ring Count>
4

>  <Hydrogen Bond Acceptor Count>
3

>  <Hydrogen Bond Donor Count>
1

>  <Rotatable Bond Count>
13

>  <Topological Polar Surface Area>
49.77

>  <Molecular Formula>
C33H31ClF3NO3

>  <InChI>
InChI=1S/C33H31ClF3NO3/c34-32-27(15-8-17-30(32)33(35,36)37)22-38(18-9-19-41-28-16-7-10-24(20-28)21-31(39)40)23-29(25-11-3-1-4-12-25)26-13-5-2-6-14-26/h1-8,10-17,20,29H,9,18-19,21-23H2,(H,39,40)

>  <InChI Key>
NAXSRXHZFIBFMI-UHFFFAOYSA-N

>  <BindingDB>
19992

>  <PubChem>
447905

>  <ChEMBL>
CHEMBL59030

$$$$
359
Actelion Java MolfileCreator 2.0

  0  0  0  0  0  0              0 V3000
M  V30 BEGIN CTAB
M  V30 COUNTS 41 44 0 0 0
M  V30 BEGIN ATOM
M  V30 1 Cl 4.3301 2.9999 0.0 0
M  V30 2 C 5.1961 2.4999 0.0 0
M  V30 3 C 6.0621 2.9999 0.0 0
M  V30 4 C 5.1961 1.4999 0.0 0
M  V30 5 C 6.9282 2.4999 0.0 0
M  V30 6 C 6.0621 3.9999 0.0 0
M  V30 7 C 6.0621 0.9999 0.0 0
M  V30 8 C 4.3301 0.9999 0.0 0
M  V30 9 C 6.9282 1.4999 0.0 0
M  V30 10 F 7.0621 3.9999 0.0 0
M  V30 11 F 6.0621 4.9999 0.0 0
M  V30 12 F 5.0621 3.9999 0.0 0
M  V30 13 N 4.3301 0.0 0.0 0
M  V30 14 C 5.1961 -0.5 0.0 0
M  V30 15 C 3.4641 -0.5 0.0 0
M  V30 16 C 5.1961 -1.5 0.0 0
M  V30 17 C 2.598 0.0 0.0 0
M  V30 18 C 6.0621 -2.0 0.0 0
M  V30 19 C 4.3301 -2.0 0.0 0
M  V30 20 C 1.732 -0.5 0.0 0
M  V30 21 C 6.9282 -1.5 0.0 0
M  V30 22 C 6.0621 -3.0 0.0 0
M  V30 23 C 4.3301 -3.0 0.0 0
M  V30 24 C 3.4641 -1.5 0.0 0
M  V30 25 O 0.866 0.0 0.0 0
M  V30 26 C 7.7942 -2.0 0.0 0
M  V30 27 C 6.9282 -3.5 0.0 0
M  V30 28 C 3.4641 -3.5 0.0 0
M  V30 29 C 2.598 -2.0 0.0 0
M  V30 30 C 0.0 -0.5 0.0 0
M  V30 31 C 7.7942 -3.0 0.0 0
M  V30 32 C 2.598 -3.0 0.0 0
M  V30 33 C -0.866 0.0 0.0 0
M  V30 34 C 0.0 -1.4999 0.0 0
M  V30 35 C -1.732 -0.4999 0.0 0
M  V30 36 C -0.866 -1.9999 0.0 0
M  V30 37 C -1.732 -1.4999 0.0 0
M  V30 38 C -2.598 0.0 0.0 0
M  V30 39 C -2.598 1.0 0.0 0
M  V30 40 O -1.732 1.5 0.0 0
M  V30 41 O -3.4641 1.5 0.0 0
M  V30 END ATOM
M  V30 BEGIN BOND
M  V30 1 1 1 2
M  V30 2 2 2 3
M  V30 3 1 2 4
M  V30 4 1 3 5
M  V30 5 1 3 6
M  V30 6 2 4 7
M  V30 7 1 4 8
M  V30 8 2 5 9
M  V30 9 1 6 10
M  V30 10 1 6 11
M  V30 11 1 6 12
M  V30 12 1 8 13
M  V30 13 1 13 14
M  V30 14 1 13 15
M  V30 15 1 14 16
M  V30 16 1 15 17
M  V30 17 1 16 18
M  V30 18 1 16 19
M  V30 19 1 17 20
M  V30 20 2 18 21
M  V30 21 1 18 22
M  V30 22 2 19 23
M  V30 23 1 19 24
M  V30 24 1 20 25
M  V30 25 1 21 26
M  V30 26 2 22 27
M  V30 27 1 23 28
M  V30 28 2 24 29
M  V30 29 1 25 30
M  V30 30 2 26 31
M  V30 31 2 28 32
M  V30 32 2 30 33
M  V30 33 1 30 34
M  V30 34 1 33 35
M  V30 35 2 34 36
M  V30 36 2 35 37
M  V30 37 1 35 38
M  V30 38 1 38 39
M  V30 39 2 39 40
M  V30 40 1 39 41
M  V30 41 1 7 9
M  V30 42 1 27 31
M  V30 43 1 29 32
M  V30 44 1 36 37
M  V30 END BOND
M  V30 END CTAB
M  END
>  <Molecule Name>
Compound 1094

>  <Molecule Name 2>
Compound 1094

>  <Compound ID>
359

>  <Name>
GW3965

>  <Uniprot>
P55055

>  <Target>
LXRB

>  <Smiles>
O=C(O)CC1=CC=CC(OCCCN(CC2=CC=CC(C(F)(F)F)=C2Cl)CC(C2=CC=CC=C2)C2=CC=CC=C2)=C1

>  <Kd (nM)>


>  <Assay (Kd)>


>  <Ki (nM)>


>  <Assay (Ki)>


>  <IC50 (nM)>


>  <Assay (IC50)>


>  <EC50 (nM)>
35

>  <Assay (EC50)>
EC50 was tested by HTRF

>  <Article DOI>
10.1016/j.bmcl.2007.06.017

>  <Molecular Weight>
582.062

>  <Exact Mass>
581.1944562

>  <XLogP3>
5.89

>  <Heavy Atom Count>
41

>  <Ring Count>
4

>  <Hydrogen Bond Acceptor Count>
3

>  <Hydrogen Bond Donor Count>
1

>  <Rotatable Bond Count>
13

>  <Topological Polar Surface Area>
49.77

>  <Molecular Formula>
C33H31ClF3NO3

>  <InChI>
InChI=1S/C33H31ClF3NO3/c34-32-27(15-8-17-30(32)33(35,36)37)22-38(18-9-19-41-28-16-7-10-24(20-28)21-31(39)40)23-29(25-11-3-1-4-12-25)26-13-5-2-6-14-26/h1-8,10-17,20,29H,9,18-19,21-23H2,(H,39,40)

>  <InChI Key>
NAXSRXHZFIBFMI-UHFFFAOYSA-N

>  <BindingDB>
19992

>  <PubChem>
447905

>  <ChEMBL>
CHEMBL59030

$$$$
360
Actelion Java MolfileCreator 2.0

  0  0  0  0  0  0              0 V3000
M  V30 BEGIN CTAB
M  V30 COUNTS 4 3 0 0 0
M  V30 BEGIN ATOM
M  V30 1 O 2.598 0.0 0.0 0
M  V30 2 C 1.732 -0.5 0.0 0
M  V30 3 N 0.866 0.0 0.0 0
M  V30 4 O 0.0 -0.5 0.0 0
M  V30 END ATOM
M  V30 BEGIN BOND
M  V30 1 2 1 2
M  V30 2 1 2 3
M  V30 3 1 3 4
M  V30 END BOND
M  V30 END CTAB
M  END
>  <Molecule Name>
Compound 1095

>  <Molecule Name 2>
Compound 1095

>  <Compound ID>
360

>  <Name>
hydroxamic acid

>  <Uniprot>
Q13547

>  <Target>
HDAC1

>  <Smiles>
O=CNO

>  <Kd (nM)>


>  <Assay (Kd)>


>  <Ki (nM)>


>  <Assay (Ki)>


>  <IC50 (nM)>


>  <Assay (IC50)>


>  <EC50 (nM)>


>  <Assay (EC50)>


>  <Article DOI>
10.3390/molecules26237241

>  <Molecular Weight>
61.04

>  <Exact Mass>
61.01637834

>  <XLogP3>
-0.35

>  <Heavy Atom Count>
4

>  <Ring Count>
0

>  <Hydrogen Bond Acceptor Count>
2

>  <Hydrogen Bond Donor Count>
2

>  <Rotatable Bond Count>
1

>  <Topological Polar Surface Area>
49.33

>  <Molecular Formula>
CH3NO2

>  <InChI>
InChI=1S/CH3NO2/c3-1-2-4/h1,4H,(H,2,3)

>  <InChI Key>
KDGKTJGPFXIBEB-UHFFFAOYSA-N

>  <BindingDB>


>  <PubChem>
265520

>  <ChEMBL>


$$$$
360
Actelion Java MolfileCreator 2.0

  0  0  0  0  0  0              0 V3000
M  V30 BEGIN CTAB
M  V30 COUNTS 4 3 0 0 0
M  V30 BEGIN ATOM
M  V30 1 O 2.598 0.0 0.0 0
M  V30 2 C 1.732 -0.5 0.0 0
M  V30 3 N 0.866 0.0 0.0 0
M  V30 4 O 0.0 -0.5 0.0 0
M  V30 END ATOM
M  V30 BEGIN BOND
M  V30 1 2 1 2
M  V30 2 1 2 3
M  V30 3 1 3 4
M  V30 END BOND
M  V30 END CTAB
M  END
>  <Molecule Name>
Compound 1096

>  <Molecule Name 2>
Compound 1096

>  <Compound ID>
360

>  <Name>
hydroxamic acid

>  <Uniprot>
O15379

>  <Target>
HDAC3

>  <Smiles>
O=CNO

>  <Kd (nM)>


>  <Assay (Kd)>


>  <Ki (nM)>


>  <Assay (Ki)>


>  <IC50 (nM)>


>  <Assay (IC50)>


>  <EC50 (nM)>


>  <Assay (EC50)>


>  <Article DOI>
10.3390/molecules26237241

>  <Molecular Weight>
61.04

>  <Exact Mass>
61.01637834

>  <XLogP3>
-0.35

>  <Heavy Atom Count>
4

>  <Ring Count>
0

>  <Hydrogen Bond Acceptor Count>
2

>  <Hydrogen Bond Donor Count>
2

>  <Rotatable Bond Count>
1

>  <Topological Polar Surface Area>
49.33

>  <Molecular Formula>
CH3NO2

>  <InChI>
InChI=1S/CH3NO2/c3-1-2-4/h1,4H,(H,2,3)

>  <InChI Key>
KDGKTJGPFXIBEB-UHFFFAOYSA-N

>  <BindingDB>


>  <PubChem>
265520

>  <ChEMBL>


$$$$
360
Actelion Java MolfileCreator 2.0

  0  0  0  0  0  0              0 V3000
M  V30 BEGIN CTAB
M  V30 COUNTS 4 3 0 0 0
M  V30 BEGIN ATOM
M  V30 1 O 2.598 0.0 0.0 0
M  V30 2 C 1.732 -0.5 0.0 0
M  V30 3 N 0.866 0.0 0.0 0
M  V30 4 O 0.0 -0.5 0.0 0
M  V30 END ATOM
M  V30 BEGIN BOND
M  V30 1 2 1 2
M  V30 2 1 2 3
M  V30 3 1 3 4
M  V30 END BOND
M  V30 END CTAB
M  END
>  <Molecule Name>
Compound 1097

>  <Molecule Name 2>
Compound 1097

>  <Compound ID>
360

>  <Name>
hydroxamic acid

>  <Uniprot>
Q9UBN7

>  <Target>
HDAC6

>  <Smiles>
O=CNO

>  <Kd (nM)>


>  <Assay (Kd)>


>  <Ki (nM)>


>  <Assay (Ki)>


>  <IC50 (nM)>


>  <Assay (IC50)>


>  <EC50 (nM)>


>  <Assay (EC50)>


>  <Article DOI>
10.3390/molecules26237241

>  <Molecular Weight>
61.04

>  <Exact Mass>
61.01637834

>  <XLogP3>
-0.35

>  <Heavy Atom Count>
4

>  <Ring Count>
0

>  <Hydrogen Bond Acceptor Count>
2

>  <Hydrogen Bond Donor Count>
2

>  <Rotatable Bond Count>
1

>  <Topological Polar Surface Area>
49.33

>  <Molecular Formula>
CH3NO2

>  <InChI>
InChI=1S/CH3NO2/c3-1-2-4/h1,4H,(H,2,3)

>  <InChI Key>
KDGKTJGPFXIBEB-UHFFFAOYSA-N

>  <BindingDB>


>  <PubChem>
265520

>  <ChEMBL>


$$$$
361
Actelion Java MolfileCreator 2.0

  0  0  0  0  0  0              0 V3000
M  V30 BEGIN CTAB
M  V30 COUNTS 10 10 0 0 0
M  V30 BEGIN ATOM
M  V30 1 O 3.8971 0.0 0.0 0
M  V30 2 C 2.598 -0.75 0.0 0
M  V30 3 N 1.299 0.0 0.0 0
M  V30 4 C 0.0 -0.75 0.0 0
M  V30 5 C -1.299 0.0 0.0 0
M  V30 6 C 0.0 -2.25 0.0 0
M  V30 7 N -1.299 1.5 0.0 0
M  V30 8 C -2.598 -0.7499 0.0 0
M  V30 9 C -1.299 -2.9999 0.0 0
M  V30 10 C -2.598 -2.2499 0.0 0
M  V30 END ATOM
M  V30 BEGIN BOND
M  V30 1 2 1 2
M  V30 2 1 2 3
M  V30 3 1 3 4
M  V30 4 2 4 5
M  V30 5 1 4 6
M  V30 6 1 5 7
M  V30 7 1 5 8
M  V30 8 2 6 9
M  V30 9 2 8 10
M  V30 10 1 9 10
M  V30 END BOND
M  V30 END CTAB
M  END
>  <Molecule Name>
Compound 1098

>  <Molecule Name 2>
Compound 1098

>  <Compound ID>
361

>  <Name>
benzamide

>  <Uniprot>
Q13547

>  <Target>
HDAC1

>  <Smiles>
NC1=CC=CC=C1NC=O

>  <Kd (nM)>


>  <Assay (Kd)>


>  <Ki (nM)>


>  <Assay (Ki)>


>  <IC50 (nM)>


>  <Assay (IC50)>


>  <EC50 (nM)>


>  <Assay (EC50)>


>  <Article DOI>
10.3390/molecules26237241

>  <Molecular Weight>
136.154

>  <Exact Mass>
136.0636629

>  <XLogP3>
1.02

>  <Heavy Atom Count>
10

>  <Ring Count>
1

>  <Hydrogen Bond Acceptor Count>
2

>  <Hydrogen Bond Donor Count>
2

>  <Rotatable Bond Count>
2

>  <Topological Polar Surface Area>
55.12

>  <Molecular Formula>
C7H8N2O

>  <InChI>
InChI=1S/C7H8N2O/c8-6-3-1-2-4-7(6)9-5-10/h1-5H,8H2,(H,9,10)

>  <InChI Key>
PFKINQXINHRVLL-UHFFFAOYSA-N

>  <BindingDB>


>  <PubChem>
576700

>  <ChEMBL>


$$$$
361
Actelion Java MolfileCreator 2.0

  0  0  0  0  0  0              0 V3000
M  V30 BEGIN CTAB
M  V30 COUNTS 10 10 0 0 0
M  V30 BEGIN ATOM
M  V30 1 O 3.8971 0.0 0.0 0
M  V30 2 C 2.598 -0.75 0.0 0
M  V30 3 N 1.299 0.0 0.0 0
M  V30 4 C 0.0 -0.75 0.0 0
M  V30 5 C -1.299 0.0 0.0 0
M  V30 6 C 0.0 -2.25 0.0 0
M  V30 7 N -1.299 1.5 0.0 0
M  V30 8 C -2.598 -0.7499 0.0 0
M  V30 9 C -1.299 -2.9999 0.0 0
M  V30 10 C -2.598 -2.2499 0.0 0
M  V30 END ATOM
M  V30 BEGIN BOND
M  V30 1 2 1 2
M  V30 2 1 2 3
M  V30 3 1 3 4
M  V30 4 2 4 5
M  V30 5 1 4 6
M  V30 6 1 5 7
M  V30 7 1 5 8
M  V30 8 2 6 9
M  V30 9 2 8 10
M  V30 10 1 9 10
M  V30 END BOND
M  V30 END CTAB
M  END
>  <Molecule Name>
Compound 1099

>  <Molecule Name 2>
Compound 1099

>  <Compound ID>
361

>  <Name>
benzamide

>  <Uniprot>
O15379

>  <Target>
HDAC3

>  <Smiles>
NC1=CC=CC=C1NC=O

>  <Kd (nM)>


>  <Assay (Kd)>


>  <Ki (nM)>


>  <Assay (Ki)>


>  <IC50 (nM)>


>  <Assay (IC50)>


>  <EC50 (nM)>


>  <Assay (EC50)>


>  <Article DOI>
10.3390/molecules26237241

>  <Molecular Weight>
136.154

>  <Exact Mass>
136.0636629

>  <XLogP3>
1.02

>  <Heavy Atom Count>
10

>  <Ring Count>
1

>  <Hydrogen Bond Acceptor Count>
2

>  <Hydrogen Bond Donor Count>
2

>  <Rotatable Bond Count>
2

>  <Topological Polar Surface Area>
55.12

>  <Molecular Formula>
C7H8N2O

>  <InChI>
InChI=1S/C7H8N2O/c8-6-3-1-2-4-7(6)9-5-10/h1-5H,8H2,(H,9,10)

>  <InChI Key>
PFKINQXINHRVLL-UHFFFAOYSA-N

>  <BindingDB>


>  <PubChem>
576700

>  <ChEMBL>


$$$$
361
Actelion Java MolfileCreator 2.0

  0  0  0  0  0  0              0 V3000
M  V30 BEGIN CTAB
M  V30 COUNTS 10 10 0 0 0
M  V30 BEGIN ATOM
M  V30 1 O 3.8971 0.0 0.0 0
M  V30 2 C 2.598 -0.75 0.0 0
M  V30 3 N 1.299 0.0 0.0 0
M  V30 4 C 0.0 -0.75 0.0 0
M  V30 5 C -1.299 0.0 0.0 0
M  V30 6 C 0.0 -2.25 0.0 0
M  V30 7 N -1.299 1.5 0.0 0
M  V30 8 C -2.598 -0.7499 0.0 0
M  V30 9 C -1.299 -2.9999 0.0 0
M  V30 10 C -2.598 -2.2499 0.0 0
M  V30 END ATOM
M  V30 BEGIN BOND
M  V30 1 2 1 2
M  V30 2 1 2 3
M  V30 3 1 3 4
M  V30 4 2 4 5
M  V30 5 1 4 6
M  V30 6 1 5 7
M  V30 7 1 5 8
M  V30 8 2 6 9
M  V30 9 2 8 10
M  V30 10 1 9 10
M  V30 END BOND
M  V30 END CTAB
M  END
>  <Molecule Name>
Compound 1100

>  <Molecule Name 2>
Compound 1100

>  <Compound ID>
361

>  <Name>
benzamide

>  <Uniprot>
Q9UBN7

>  <Target>
HDAC6

>  <Smiles>
NC1=CC=CC=C1NC=O

>  <Kd (nM)>


>  <Assay (Kd)>


>  <Ki (nM)>


>  <Assay (Ki)>


>  <IC50 (nM)>


>  <Assay (IC50)>


>  <EC50 (nM)>


>  <Assay (EC50)>


>  <Article DOI>
10.3390/molecules26237241

>  <Molecular Weight>
136.154

>  <Exact Mass>
136.0636629

>  <XLogP3>
1.02

>  <Heavy Atom Count>
10

>  <Ring Count>
1

>  <Hydrogen Bond Acceptor Count>
2

>  <Hydrogen Bond Donor Count>
2

>  <Rotatable Bond Count>
2

>  <Topological Polar Surface Area>
55.12

>  <Molecular Formula>
C7H8N2O

>  <InChI>
InChI=1S/C7H8N2O/c8-6-3-1-2-4-7(6)9-5-10/h1-5H,8H2,(H,9,10)

>  <InChI Key>
PFKINQXINHRVLL-UHFFFAOYSA-N

>  <BindingDB>


>  <PubChem>
576700

>  <ChEMBL>


$$$$
362
Actelion Java MolfileCreator 2.0

  0  0  0  0  0  0              0 V3000
M  V30 BEGIN CTAB
M  V30 COUNTS 21 23 0 0 0
M  V30 BEGIN ATOM
M  V30 1 O 1.732 -0.5 0.0 0
M  V30 2 N 0.866 0.0 0.0 0 CHG=1
M  V30 3 O 0.866 1.0 0.0 0 CHG=-1
M  V30 4 C 0.0 -0.5 0.0 0
M  V30 5 C -0.866 0.0 0.0 0
M  V30 6 C 0.0 -1.4999 0.0 0
M  V30 7 N -1.732 -0.4999 0.0 0
M  V30 8 N -0.866 1.0 0.0 0
M  V30 9 C -0.866 -1.9999 0.0 0
M  V30 10 C -1.732 -1.4999 0.0 0
M  V30 11 C -1.732 1.5 0.0 0
M  V30 12 N -2.598 -1.9999 0.0 0
M  V30 13 C -2.598 1.0 0.0 0
M  V30 14 C -1.732 2.5 0.0 0
M  V30 15 C -2.598 -2.9999 0.0 0
M  V30 16 C -3.4641 1.5 0.0 0
M  V30 17 C -2.598 3.0 0.0 0
M  V30 18 C -3.4641 2.5 0.0 0
M  V30 19 C -4.4151 1.1909 0.0 0
M  V30 20 N -4.4151 2.809 0.0 0
M  V30 21 N -5.0029 2.0 0.0 0
M  V30 END ATOM
M  V30 BEGIN BOND
M  V30 1 2 1 2
M  V30 2 1 2 3
M  V30 3 1 2 4
M  V30 4 2 4 5
M  V30 5 1 4 6
M  V30 6 1 5 7
M  V30 7 1 5 8
M  V30 8 2 6 9
M  V30 9 2 7 10
M  V30 10 1 8 11
M  V30 11 1 10 12
M  V30 12 2 11 13
M  V30 13 1 11 14
M  V30 14 1 12 15
M  V30 15 1 13 16
M  V30 16 2 14 17
M  V30 17 2 16 18
M  V30 18 1 16 19
M  V30 19 1 18 20
M  V30 20 2 19 21
M  V30 21 1 9 10
M  V30 22 1 17 18
M  V30 23 1 20 21
M  V30 END BOND
M  V30 END CTAB
M  END
>  <Molecule Name>
Compound 1101

>  <Molecule Name 2>
Compound 1101

>  <Compound ID>
362

>  <Name>
KRIBB11

>  <Uniprot>
Q00613

>  <Target>
HSF1

>  <Smiles>
CNC1=CC=C([N+](=O)[O-])C(NC2=CC=C3[NH]N=CC3=C2)=N1

>  <Kd (nM)>


>  <Assay (Kd)>


>  <Ki (nM)>


>  <Assay (Ki)>


>  <IC50 (nM)>
1200

>  <Assay (IC50)>
Inhibition of HSF1

>  <EC50 (nM)>


>  <Assay (EC50)>


>  <Article DOI>
10.1016/j.bmcl.2015.06.052

>  <Molecular Weight>
284.279

>  <Exact Mass>
284.1021736

>  <XLogP3>
3.06

>  <Heavy Atom Count>
21

>  <Ring Count>
3

>  <Hydrogen Bond Acceptor Count>
6

>  <Hydrogen Bond Donor Count>
3

>  <Rotatable Bond Count>
4

>  <Topological Polar Surface Area>
108.77

>  <Molecular Formula>
C13H12N6O2

>  <InChI>
InChI=1S/C13H12N6O2/c1-14-12-5-4-11(19(20)21)13(17-12)16-9-2-3-10-8(6-9)7-15-18-10/h2-7H,1H3,(H,15,18)(H2,14,16,17)

>  <InChI Key>
NDJJEQIMIJJCLL-UHFFFAOYSA-N

>  <BindingDB>
50114871

>  <PubChem>
69894253

>  <ChEMBL>
CHEMBL3609826

$$$$
363
Actelion Java MolfileCreator 2.0

  0  0  0  0  0  0              0 V3000
M  V30 BEGIN CTAB
M  V30 COUNTS 30 32 0 0 0
M  V30 BEGIN ATOM
M  V30 1 S 4.3776 -0.0932 0.0 0
M  V30 2 C 3.4641 -0.5 0.0 0
M  V30 3 C 5.0467 -0.8364 0.0 0
M  V30 4 C 3.5686 -1.4945 0.0 0
M  V30 5 C 2.598 0.0 0.0 0
M  V30 6 C 4.5467 -1.7024 0.0 0
M  V30 7 C 1.732 -0.5 0.0 0
M  V30 8 N 0.866 0.0 0.0 0
M  V30 9 C 0.0 -0.5 0.0 0
M  V30 10 N -0.866 0.0 0.0 0
M  V30 11 N 0.0 -1.4999 0.0 0
M  V30 12 C -1.732 -0.4999 0.0 0
M  V30 13 C -0.866 -1.9999 0.0 0
M  V30 14 N -1.732 -1.4999 0.0 0
M  V30 15 N -2.598 0.0 0.0 0
M  V30 16 N -0.866 -2.9999 0.0 0
M  V30 17 C -2.5233 0.9972 0.0 0
M  V30 18 C -3.4243 -0.5633 0.0 0
M  V30 19 C 0.0 -3.4999 0.0 0
M  V30 20 C -1.732 -3.4999 0.0 0
M  V30 21 C -3.2563 1.6773 0.0 0
M  V30 22 C -4.3798 -0.2685 0.0 0
M  V30 23 C 0.0 -4.4999 0.0 0
M  V30 24 N -4.2452 1.5283 0.0 0
M  V30 25 C -4.7452 0.6623 0.0 0
M  V30 26 O -0.866 -4.9999 0.0 0
M  V30 27 O 0.866 -5.0 0.0 0
M  V30 28 C -4.8085 2.3545 0.0 0
M  V30 29 O -4.3746 3.2555 0.0 0
M  V30 30 C -5.8057 2.2798 0.0 0
M  V30 END ATOM
M  V30 BEGIN BOND
M  V30 1 1 1 2
M  V30 2 1 1 3
M  V30 3 2 2 4
M  V30 4 1 2 5
M  V30 5 2 3 6
M  V30 6 1 5 7
M  V30 7 1 7 8
M  V30 8 1 8 9
M  V30 9 2 9 10
M  V30 10 1 9 11
M  V30 11 1 10 12
M  V30 12 2 11 13
M  V30 13 2 12 14
M  V30 14 1 12 15
M  V30 15 1 13 16
M  V30 16 1 15 17
M  V30 17 1 15 18
M  V30 18 1 16 19
M  V30 19 1 16 20
M  V30 20 1 17 21
M  V30 21 1 18 22
M  V30 22 1 19 23
M  V30 23 1 21 24
M  V30 24 1 22 25
M  V30 25 2 23 26
M  V30 26 1 23 27
M  V30 27 1 24 28
M  V30 28 2 28 29
M  V30 29 1 28 30
M  V30 30 1 4 6
M  V30 31 1 13 14
M  V30 32 1 24 25
M  V30 END BOND
M  V30 END CTAB
M  END
>  <Molecule Name>
Compound 1102

>  <Molecule Name 2>
Compound 1102

>  <Compound ID>
363

>  <Name>


>  <Uniprot>
P10636

>  <Target>
Tau

>  <Smiles>
CC(=O)N1CCCN(C2=NC(NCCC3=CC=CS3)=NC(N(C)CC(=O)O)=N2)CC1

>  <Kd (nM)>


>  <Assay (Kd)>


>  <Ki (nM)>


>  <Assay (Ki)>


>  <IC50 (nM)>


>  <Assay (IC50)>


>  <EC50 (nM)>


>  <Assay (EC50)>


>  <Article DOI>
10.7150/thno.55680

>  <Molecular Weight>
433.538

>  <Exact Mass>
433.1896087

>  <XLogP3>
2.1

>  <Heavy Atom Count>
30

>  <Ring Count>
3

>  <Hydrogen Bond Acceptor Count>
9

>  <Hydrogen Bond Donor Count>
2

>  <Rotatable Bond Count>
8

>  <Topological Polar Surface Area>
114.79

>  <Molecular Formula>
C19H27N7O3S

>  <InChI>
InChI=1S/C19H27N7O3S/c1-14(27)25-8-4-9-26(11-10-25)19-22-17(20-7-6-15-5-3-12-30-15)21-18(23-19)24(2)13-16(28)29/h3,5,12H,4,6-11,13H2,1-2H3,(H,28,29)(H,20,21,22,23)

>  <InChI Key>
QYUIOYXDVXTREL-UHFFFAOYSA-N

>  <BindingDB>


>  <PubChem>
162425113

>  <ChEMBL>


$$$$
364
Actelion Java MolfileCreator 2.0

  0  0  0  0  0  0              0 V3000
M  V30 BEGIN CTAB
M  V30 COUNTS 29 33 0 0 0
M  V30 BEGIN ATOM
M  V30 1 O 2.598 0.0 0.0 0
M  V30 2 C 1.732 -0.5 0.0 0
M  V30 3 N 0.866 0.0 0.0 0
M  V30 4 C 1.732 -1.5 0.0 0
M  V30 5 C 0.0 -0.5 0.0 0
M  V30 6 C 2.598 -2.0 0.0 0
M  V30 7 C 0.866 -2.0 0.0 0
M  V30 8 C -0.866 0.0 0.0 0
M  V30 9 C 0.0 -1.4999 0.0 0
M  V30 10 C 2.598 -2.9999 0.0 0
M  V30 11 C 0.866 -3.0 0.0 0
M  V30 12 C -1.732 -0.4999 0.0 0
M  V30 13 C -0.866 -1.9999 0.0 0
M  V30 14 C 1.732 -3.5 0.0 0
M  V30 15 C 3.3412 -3.6691 0.0 0
M  V30 16 N -2.6831 -0.1909 0.0 0
M  V30 17 C -1.732 -1.4999 0.0 0
M  V30 18 N 1.9399 -4.4781 0.0 0
M  V30 19 N 2.9344 -4.5826 0.0 0
M  V30 20 C -3.2708 -0.9999 0.0 0
M  V30 21 N -2.6831 -1.809 0.0 0
M  V30 22 C 1.2708 -5.2212 0.0 0
M  V30 23 C -4.2708 -1.0 0.0 0
M  V30 24 N -4.7708 -1.866 0.0 0
M  V30 25 C -5.7654 -1.9705 0.0 0 CFG=2
M  V30 26 C -4.3641 -2.7795 0.0 0
M  V30 27 C -5.9733 -2.9487 0.0 0
M  V30 28 C -6.4345 -1.2274 0.0 0
M  V30 29 C -5.1073 -3.4487 0.0 0
M  V30 END ATOM
M  V30 BEGIN BOND
M  V30 1 2 1 2
M  V30 2 1 2 3
M  V30 3 1 2 4
M  V30 4 1 3 5
M  V30 5 2 4 6
M  V30 6 1 4 7
M  V30 7 2 5 8
M  V30 8 1 5 9
M  V30 9 1 6 10
M  V30 10 2 7 11
M  V30 11 1 8 12
M  V30 12 2 9 13
M  V30 13 2 10 14
M  V30 14 1 10 15
M  V30 15 1 12 16
M  V30 16 2 12 17
M  V30 17 1 14 18
M  V30 18 2 15 19
M  V30 19 1 16 20
M  V30 20 1 17 21
M  V30 21 1 18 22
M  V30 22 1 20 23
M  V30 23 1 23 24
M  V30 24 1 25 24
M  V30 25 1 24 26
M  V30 26 1 25 27
M  V30 27 1 25 28 CFG=3
M  V30 28 1 26 29
M  V30 29 1 11 14
M  V30 30 1 13 17
M  V30 31 1 18 19
M  V30 32 2 20 21
M  V30 33 1 27 29
M  V30 END BOND
M  V30 BEGIN COLLECTION
M  V30 MDLV30/STEABS ATOMS=(1 25)
M  V30 END COLLECTION
M  V30 END CTAB
M  END
>  <Molecule Name>
Compound 1103

>  <Molecule Name 2>
Compound 1103

>  <Compound ID>
364

>  <Name>
SGC-iMLLT

>  <Uniprot>
Q03111

>  <Target>
MLLT1

>  <Smiles>
C[C@H]1CCCN1CC1=NC2=CC=C(NC(=O)C3=CC=C4C(=C3)C=NN4C)C=C2[NH]1

>  <Kd (nM)>
113

>  <Assay (Kd)>
Kd was assessed by ITC

>  <Ki (nM)>


>  <Assay (Ki)>


>  <IC50 (nM)>


>  <Assay (IC50)>


>  <EC50 (nM)>


>  <Assay (EC50)>


>  <Article DOI>
10.1021/acsmedchemlett.9b00460

>  <Molecular Weight>
388.475

>  <Exact Mass>
388.2011594

>  <XLogP3>
2.76

>  <Heavy Atom Count>
29

>  <Ring Count>
5

>  <Hydrogen Bond Acceptor Count>
5

>  <Hydrogen Bond Donor Count>
2

>  <Rotatable Bond Count>
4

>  <Topological Polar Surface Area>
78.84

>  <Molecular Formula>
C22H24N6O

>  <InChI>
InChI=1S/C22H24N6O/c1-14-4-3-9-28(14)13-21-25-18-7-6-17(11-19(18)26-21)24-22(29)15-5-8-20-16(10-15)12-23-27(20)2/h5-8,10-12,14H,3-4,9,13H2,1-2H3,(H,24,29)(H,25,26)/t14-/m0/s1

>  <InChI Key>
QGNDVASWIHEXCL-AWEZNQCLSA-N

>  <BindingDB>
50529556

>  <PubChem>
134820948

>  <ChEMBL>
CHEMBL4552313

$$$$
365
Actelion Java MolfileCreator 2.0

  0  0  0  0  0  0              0 V3000
M  V30 BEGIN CTAB
M  V30 COUNTS 25 27 0 0 0
M  V30 BEGIN ATOM
M  V30 1 Cl 6.9282 -1.4999 0.0 0
M  V30 2 C 6.9282 -0.4999 0.0 0
M  V30 3 C 7.7942 0.0 0.0 0
M  V30 4 C 6.0621 0.0 0.0 0
M  V30 5 C 8.6602 -0.4999 0.0 0
M  V30 6 C 7.7942 1.0 0.0 0
M  V30 7 C 6.0621 1.0 0.0 0
M  V30 8 N 9.5262 -0.9999 0.0 0
M  V30 9 C 6.9282 1.5 0.0 0
M  V30 10 O 5.1961 1.5 0.0 0
M  V30 11 C 4.3301 1.0 0.0 0 CFG=1
M  V30 12 C 3.4641 1.5 0.0 0
M  V30 13 C 4.3301 0.0 0.0 0
M  V30 14 C 2.598 0.9999 0.0 0
M  V30 15 C 3.4641 -0.4999 0.0 0
M  V30 16 C 2.598 0.0 0.0 0 CFG=1
M  V30 17 N 1.732 -0.5 0.0 0
M  V30 18 C 0.866 0.0 0.0 0
M  V30 19 O 0.866 1.0 0.0 0
M  V30 20 C 0.0 -0.5 0.0 0
M  V30 21 N -0.866 0.0 0.0 0
M  V30 22 C 0.0 -1.4999 0.0 0
M  V30 23 N -1.732 -0.4999 0.0 0
M  V30 24 C -0.866 -1.9999 0.0 0
M  V30 25 C -1.732 -1.4999 0.0 0
M  V30 END ATOM
M  V30 BEGIN BOND
M  V30 1 1 1 2
M  V30 2 2 2 3
M  V30 3 1 2 4
M  V30 4 1 3 5
M  V30 5 1 3 6
M  V30 6 2 4 7
M  V30 7 3 5 8
M  V30 8 2 6 9
M  V30 9 1 7 10
M  V30 10 1 11 10 CFG=3
M  V30 11 1 11 12
M  V30 12 1 11 13
M  V30 13 1 12 14
M  V30 14 1 13 15
M  V30 15 1 16 14
M  V30 16 1 16 17 CFG=1
M  V30 17 1 17 18
M  V30 18 2 18 19
M  V30 19 1 18 20
M  V30 20 2 20 21
M  V30 21 1 20 22
M  V30 22 1 21 23
M  V30 23 2 22 24
M  V30 24 2 23 25
M  V30 25 1 7 9
M  V30 26 1 15 16
M  V30 27 1 24 25
M  V30 END BOND
M  V30 BEGIN COLLECTION
M  V30 MDLV30/STEABS ATOMS=(2 11 16)
M  V30 END COLLECTION
M  V30 END CTAB
M  END
>  <Molecule Name>
Compound 1104

>  <Molecule Name 2>
Compound 1104

>  <Compound ID>
365

>  <Name>


>  <Uniprot>
P10275

>  <Target>
AR

>  <Smiles>
N#CC1=CC=C(O[C@H]2CC[C@H](NC(=O)C3=CC=CN=N3)CC2)C=C1Cl

>  <Kd (nM)>


>  <Assay (Kd)>


>  <Ki (nM)>


>  <Assay (Ki)>


>  <IC50 (nM)>


>  <Assay (IC50)>


>  <EC50 (nM)>


>  <Assay (EC50)>


>  <Article DOI>


>  <Molecular Weight>
356.813

>  <Exact Mass>
356.1040035

>  <XLogP3>
2.8

>  <Heavy Atom Count>
25

>  <Ring Count>
3

>  <Hydrogen Bond Acceptor Count>
5

>  <Hydrogen Bond Donor Count>
1

>  <Rotatable Bond Count>
4

>  <Topological Polar Surface Area>
87.9

>  <Molecular Formula>
C18H17ClN4O2

>  <InChI>
InChI=1S/C18H17ClN4O2/c19-16-10-15(6-3-12(16)11-20)25-14-7-4-13(5-8-14)22-18(24)17-2-1-9-21-23-17/h1-3,6,9-10,13-14H,4-5,7-8H2,(H,22,24)/t13-,14-

>  <InChI Key>
ZFDCNJSVTLALHX-HDJSIYSDSA-N

>  <BindingDB>


>  <PubChem>
155218480

>  <ChEMBL>


$$$$
366
Actelion Java MolfileCreator 2.0

  0  0  0  0  0  0              0 V3000
M  V30 BEGIN CTAB
M  V30 COUNTS 33 37 0 0 0
M  V30 BEGIN ATOM
M  V30 1 O 1.732 1.4999 0.0 0
M  V30 2 C 2.598 1.0 0.0 0
M  V30 3 N 2.598 0.0 0.0 0
M  V30 4 C 3.4641 1.4999 0.0 0
M  V30 5 C 3.4641 -0.5 0.0 0
M  V30 6 C 1.732 -0.5 0.0 0
M  V30 7 C 4.3301 1.0 0.0 0
M  V30 8 C 3.4641 2.4999 0.0 0
M  V30 9 O 3.4641 -1.5 0.0 0
M  V30 10 C 4.3301 0.0 0.0 0
M  V30 11 C 0.866 0.0 0.0 0
M  V30 12 C 5.1961 1.5 0.0 0
M  V30 13 C 4.3301 3.0 0.0 0
M  V30 14 C 5.1961 -0.4999 0.0 0
M  V30 15 N 0.0 -0.5 0.0 0
M  V30 16 C 5.1961 2.4999 0.0 0
M  V30 17 C 6.0621 1.0 0.0 0
M  V30 18 C 6.0621 0.0 0.0 0
M  V30 19 C -0.866 0.0 0.0 0
M  V30 20 C 0.0 -1.4999 0.0 0
M  V30 21 C -1.732 -0.4999 0.0 0
M  V30 22 C -0.866 -1.9999 0.0 0
M  V30 23 N -1.732 -1.4999 0.0 0
M  V30 24 C -2.598 -1.9999 0.0 0
M  V30 25 O -3.4641 -1.4999 0.0 0
M  V30 26 C -2.598 -2.9999 0.0 0
M  V30 27 C -3.4641 -3.4999 0.0 0
M  V30 28 C -1.732 -3.4999 0.0 0
M  V30 29 C -3.4641 -4.4999 0.0 0
M  V30 30 C -1.732 -4.4999 0.0 0
M  V30 31 C -2.598 -4.9999 0.0 0
M  V30 32 C -2.598 -5.9999 0.0 0
M  V30 33 O -1.732 -6.4999 0.0 0
M  V30 END ATOM
M  V30 BEGIN BOND
M  V30 1 2 1 2
M  V30 2 1 2 3
M  V30 3 1 2 4
M  V30 4 1 3 5
M  V30 5 1 3 6
M  V30 6 1 4 7
M  V30 7 2 4 8
M  V30 8 2 5 9
M  V30 9 1 5 10
M  V30 10 1 6 11
M  V30 11 1 7 12
M  V30 12 1 8 13
M  V30 13 1 10 14
M  V30 14 1 11 15
M  V30 15 1 12 16
M  V30 16 2 12 17
M  V30 17 2 14 18
M  V30 18 1 15 19
M  V30 19 1 15 20
M  V30 20 1 19 21
M  V30 21 1 20 22
M  V30 22 1 21 23
M  V30 23 1 23 24
M  V30 24 2 24 25
M  V30 25 1 24 26
M  V30 26 2 26 27
M  V30 27 1 26 28
M  V30 28 1 27 29
M  V30 29 2 28 30
M  V30 30 2 29 31
M  V30 31 1 31 32
M  V30 32 2 32 33
M  V30 33 2 7 10
M  V30 34 2 13 16
M  V30 35 1 17 18
M  V30 36 1 22 23
M  V30 37 1 30 31
M  V30 END BOND
M  V30 END CTAB
M  END
>  <Molecule Name>
Compound 1105

>  <Molecule Name 2>
Compound 1105

>  <Compound ID>
366

>  <Name>
PR006_warhead

>  <Uniprot>


>  <Target>
beta-catenin

>  <Smiles>
O=Cc(cc1)ccc1C(N1CCN(CCN(C(c2c3c4cccc3ccc2)=O)C4=O)CC1)=O

>  <Kd (nM)>


>  <Assay (Kd)>


>  <Ki (nM)>


>  <Assay (Ki)>


>  <IC50 (nM)>


>  <Assay (IC50)>


>  <EC50 (nM)>


>  <Assay (EC50)>


>  <Article DOI>


>  <Molecular Weight>


>  <Exact Mass>


>  <XLogP3>


>  <Heavy Atom Count>


>  <Ring Count>


>  <Hydrogen Bond Acceptor Count>


>  <Hydrogen Bond Donor Count>


>  <Rotatable Bond Count>


>  <Topological Polar Surface Area>


>  <Molecular Formula>


>  <InChI>


>  <InChI Key>


>  <BindingDB>


>  <PubChem>


>  <ChEMBL>


$$$$
367
Actelion Java MolfileCreator 2.0

  0  0  0  0  0  0              0 V3000
M  V30 BEGIN CTAB
M  V30 COUNTS 28 30 0 0 0
M  V30 BEGIN ATOM
M  V30 1 O 2.598 -2.25 0.0 0
M  V30 2 C 2.598 -0.75 0.0 0
M  V30 3 N 1.299 0.0 0.0 0
M  V30 4 C 3.8971 0.0 0.0 0
M  V30 5 C 0.0 -0.75 0.0 0 CFG=1
M  V30 6 C 3.8971 1.5 0.0 0
M  V30 7 C 5.1961 -0.75 0.0 0
M  V30 8 C -1.4488 -0.3617 0.0 0
M  V30 9 C -0.3882 -2.1988 0.0 0
M  V30 10 C 5.1961 2.25 0.0 0
M  V30 11 C 6.4952 0.0 0.0 0
M  V30 12 C -1.8371 -1.8106 0.0 0 CFG=1
M  V30 13 C -1.4488 1.1381 0.0 0
M  V30 14 C -2.7479 0.3881 0.0 0
M  V30 15 C -0.3882 -3.6988 0.0 0
M  V30 16 C 0.9107 -2.9488 0.0 0
M  V30 17 C 6.4952 1.5 0.0 0
M  V30 18 O -3.1361 -2.5606 0.0 0
M  V30 19 C -3.1361 -4.0606 0.0 0
M  V30 20 C -4.4352 -4.8106 0.0 0
M  V30 21 C -1.8371 -4.8106 0.0 0
M  V30 22 C -4.4352 -6.3106 0.0 0
M  V30 23 C -1.8371 -6.3106 0.0 0
M  V30 24 O -5.7342 -7.0606 0.0 0
M  V30 25 C -3.1361 -7.0606 0.0 0
M  V30 26 C -5.7342 -8.5606 0.0 0
M  V30 27 C -3.1361 -8.5606 0.0 0
M  V30 28 N -3.1361 -10.0606 0.0 0
M  V30 END ATOM
M  V30 BEGIN BOND
M  V30 1 2 1 2
M  V30 2 1 2 3
M  V30 3 1 2 4
M  V30 4 1 5 3 CFG=3
M  V30 5 2 4 6
M  V30 6 1 4 7
M  V30 7 1 5 8
M  V30 8 1 5 9
M  V30 9 1 6 10
M  V30 10 2 7 11
M  V30 11 1 12 8
M  V30 12 1 8 13
M  V30 13 1 8 14
M  V30 14 1 9 15
M  V30 15 1 9 16
M  V30 16 2 10 17
M  V30 17 1 12 18 CFG=1
M  V30 18 1 18 19
M  V30 19 2 19 20
M  V30 20 1 19 21
M  V30 21 1 20 22
M  V30 22 2 21 23
M  V30 23 1 22 24
M  V30 24 2 22 25
M  V30 25 1 24 26
M  V30 26 1 25 27
M  V30 27 3 27 28
M  V30 28 1 9 12
M  V30 29 1 11 17
M  V30 30 1 23 25
M  V30 END BOND
M  V30 BEGIN COLLECTION
M  V30 MDLV30/STEABS ATOMS=(2 5 12)
M  V30 END COLLECTION
M  V30 END CTAB
M  END
>  <Molecule Name>
Compound 1106

>  <Molecule Name 2>
Compound 1106

>  <Compound ID>
367

>  <Name>
ARV-110

>  <Uniprot>


>  <Target>


>  <Smiles>
CC(C)([C@H](C1(C)C)NC(c2ccccc2)=O)[C@H]1Oc(cc1)cc(OC)c1C#N

>  <Kd (nM)>


>  <Assay (Kd)>


>  <Ki (nM)>


>  <Assay (Ki)>


>  <IC50 (nM)>


>  <Assay (IC50)>


>  <EC50 (nM)>


>  <Assay (EC50)>


>  <Article DOI>


>  <Molecular Weight>


>  <Exact Mass>


>  <XLogP3>


>  <Heavy Atom Count>


>  <Ring Count>


>  <Hydrogen Bond Acceptor Count>


>  <Hydrogen Bond Donor Count>


>  <Rotatable Bond Count>


>  <Topological Polar Surface Area>


>  <Molecular Formula>


>  <InChI>


>  <InChI Key>


>  <BindingDB>


>  <PubChem>


>  <ChEMBL>


$$$$
368
Actelion Java MolfileCreator 2.0

  0  0  0  0  0  0              0 V3000
M  V30 BEGIN CTAB
M  V30 COUNTS 28 30 0 0 0
M  V30 BEGIN ATOM
M  V30 1 Cl 6.0621 5.9999 0.0 0
M  V30 2 C 6.9282 5.4999 0.0 0
M  V30 3 C 6.9282 4.4999 0.0 0
M  V30 4 C 7.7942 5.9999 0.0 0
M  V30 5 N 7.7942 3.9999 0.0 0
M  V30 6 N 6.0621 3.9999 0.0 0
M  V30 7 N 8.6602 5.5 0.0 0
M  V30 8 C 8.6602 4.4999 0.0 0
M  V30 9 C 6.0621 2.9999 0.0 0
M  V30 10 C 5.1961 2.4999 0.0 0
M  V30 11 C 6.9282 2.4999 0.0 0
M  V30 12 C 5.1961 1.4999 0.0 0
M  V30 13 C 6.9282 1.4999 0.0 0
M  V30 14 C 6.0621 0.9999 0.0 0
M  V30 15 C 4.3301 1.0 0.0 0
M  V30 16 N 6.0621 0.0 0.0 0
M  V30 17 C 4.3301 0.0 0.0 0
M  V30 18 C 5.1961 -0.5 0.0 0
M  V30 19 C 6.9282 -0.5 0.0 0
M  V30 20 O 3.4641 -0.5 0.0 0
M  V30 21 O 5.1961 -1.5 0.0 0
M  V30 22 C 6.9282 -1.5 0.0 0
M  V30 23 C 7.7942 0.0 0.0 0
M  V30 24 C 2.598 0.0 0.0 0
M  V30 25 C 1.732 -0.5 0.0 0
M  V30 26 O 1.732 -1.5 0.0 0
M  V30 27 N 0.866 0.0 0.0 0
M  V30 28 C 0.0 -0.5 0.0 0
M  V30 END ATOM
M  V30 BEGIN BOND
M  V30 1 1 1 2
M  V30 2 2 2 3
M  V30 3 1 2 4
M  V30 4 1 3 5
M  V30 5 1 3 6
M  V30 6 2 4 7
M  V30 7 2 5 8
M  V30 8 1 6 9
M  V30 9 2 9 10
M  V30 10 1 9 11
M  V30 11 1 10 12
M  V30 12 2 11 13
M  V30 13 2 12 14
M  V30 14 1 12 15
M  V30 15 1 14 16
M  V30 16 2 15 17
M  V30 17 1 16 18
M  V30 18 1 16 19
M  V30 19 1 17 20
M  V30 20 2 18 21
M  V30 21 1 19 22
M  V30 22 1 19 23
M  V30 23 1 20 24
M  V30 24 1 24 25
M  V30 25 2 25 26
M  V30 26 1 25 27
M  V30 27 1 27 28
M  V30 28 1 7 8
M  V30 29 1 13 14
M  V30 30 1 17 18
M  V30 END BOND
M  V30 END CTAB
M  END
>  <Molecule Name>
Compound 1107

>  <Molecule Name 2>
Compound 1107

>  <Compound ID>
368

>  <Name>
ARV-393

>  <Uniprot>


>  <Target>


>  <Smiles>
CC(C)N(c(ccc(Nc(ncnc1)c1Cl)c1)c1C=C1OCC(NC)=O)C1=O

>  <Kd (nM)>


>  <Assay (Kd)>


>  <Ki (nM)>


>  <Assay (Ki)>


>  <IC50 (nM)>


>  <Assay (IC50)>


>  <EC50 (nM)>


>  <Assay (EC50)>


>  <Article DOI>


>  <Molecular Weight>


>  <Exact Mass>


>  <XLogP3>


>  <Heavy Atom Count>


>  <Ring Count>


>  <Hydrogen Bond Acceptor Count>


>  <Hydrogen Bond Donor Count>


>  <Rotatable Bond Count>


>  <Topological Polar Surface Area>


>  <Molecular Formula>


>  <InChI>


>  <InChI Key>


>  <BindingDB>


>  <PubChem>


>  <ChEMBL>


$$$$
369
Actelion Java MolfileCreator 2.0

  0  0  0  0  0  0              0 V3000
M  V30 BEGIN CTAB
M  V30 COUNTS 23 26 0 0 0
M  V30 BEGIN ATOM
M  V30 1 O 0.866 0.0 0.0 0
M  V30 2 C 0.0 -0.5 0.0 0
M  V30 3 C -0.866 0.0 0.0 0
M  V30 4 C 0.0 -1.4999 0.0 0
M  V30 5 C -1.732 -0.4999 0.0 0
M  V30 6 C -0.866 -1.9999 0.0 0
M  V30 7 C -1.732 -1.4999 0.0 0
M  V30 8 C -2.598 0.0 0.0 0
M  V30 9 C -2.598 -1.9999 0.0 0 CFG=1
M  V30 10 C -3.4641 -0.4999 0.0 0
M  V30 11 C -2.598 -2.9999 0.0 0
M  V30 12 C -3.4641 -1.4999 0.0 0 CFG=2
M  V30 13 C -3.4641 -3.4999 0.0 0
M  V30 14 C -1.732 -3.5 0.0 0
M  V30 15 C -4.3301 -1.9999 0.0 0
M  V30 16 C -3.4641 -4.4999 0.0 0
M  V30 17 C -1.732 -4.5 0.0 0
M  V30 18 C -5.1961 -1.4999 0.0 0
M  V30 19 C -4.3301 -2.9999 0.0 0
M  V30 20 C -2.598 -4.9999 0.0 0
M  V30 21 C -6.0621 -1.9999 0.0 0
M  V30 22 C -5.1961 -3.4999 0.0 0
M  V30 23 C -6.0621 -2.9999 0.0 0
M  V30 END ATOM
M  V30 BEGIN BOND
M  V30 1 1 1 2
M  V30 2 2 2 3
M  V30 3 1 2 4
M  V30 4 1 3 5
M  V30 5 2 4 6
M  V30 6 2 5 7
M  V30 7 1 5 8
M  V30 8 1 9 7
M  V30 9 1 8 10
M  V30 10 1 9 11 CFG=1
M  V30 11 1 12 9
M  V30 12 2 11 13
M  V30 13 1 11 14
M  V30 14 1 12 15 CFG=1
M  V30 15 1 13 16
M  V30 16 2 14 17
M  V30 17 2 15 18
M  V30 18 1 15 19
M  V30 19 2 16 20
M  V30 20 1 18 21
M  V30 21 2 19 22
M  V30 22 2 21 23
M  V30 23 1 6 7
M  V30 24 1 10 12
M  V30 25 1 17 20
M  V30 26 1 22 23
M  V30 END BOND
M  V30 BEGIN COLLECTION
M  V30 MDLV30/STEABS ATOMS=(2 9 12)
M  V30 END COLLECTION
M  V30 END CTAB
M  END
>  <Molecule Name>
Compound 1108

>  <Molecule Name 2>
Compound 1108

>  <Compound ID>
369

>  <Name>
ARV-471

>  <Uniprot>


>  <Target>


>  <Smiles>
Oc1cc(CC[C@@H]([C@@H]2c3ccccc3)c3ccccc3)c2cc1

>  <Kd (nM)>


>  <Assay (Kd)>


>  <Ki (nM)>


>  <Assay (Ki)>


>  <IC50 (nM)>


>  <Assay (IC50)>


>  <EC50 (nM)>


>  <Assay (EC50)>


>  <Article DOI>


>  <Molecular Weight>


>  <Exact Mass>


>  <XLogP3>


>  <Heavy Atom Count>


>  <Ring Count>


>  <Hydrogen Bond Acceptor Count>


>  <Hydrogen Bond Donor Count>


>  <Rotatable Bond Count>


>  <Topological Polar Surface Area>


>  <Molecular Formula>


>  <InChI>


>  <InChI Key>


>  <BindingDB>


>  <PubChem>


>  <ChEMBL>


$$$$
370
Actelion Java MolfileCreator 2.0

  0  0  0  0  0  0              0 V3000
M  V30 BEGIN CTAB
M  V30 COUNTS 22 23 0 0 0
M  V30 BEGIN ATOM
M  V30 1 O 3.8971 0.0 0.0 0
M  V30 2 C 2.598 -0.75 0.0 0
M  V30 3 N 1.299 0.0 0.0 0
M  V30 4 C 0.0 -0.75 0.0 0 CFG=1
M  V30 5 C -1.4488 -0.3617 0.0 0
M  V30 6 C -0.3882 -2.1988 0.0 0
M  V30 7 C -1.8371 -1.8106 0.0 0 CFG=1
M  V30 8 C -1.4488 1.1381 0.0 0
M  V30 9 C -2.7479 0.3881 0.0 0
M  V30 10 C -0.3882 -3.6988 0.0 0
M  V30 11 C 0.9107 -2.9488 0.0 0
M  V30 12 O -3.1361 -2.5606 0.0 0
M  V30 13 C -3.1361 -4.0606 0.0 0
M  V30 14 C -4.4352 -4.8106 0.0 0
M  V30 15 C -1.8371 -4.8106 0.0 0
M  V30 16 C -4.4352 -6.3106 0.0 0
M  V30 17 C -1.8371 -6.3106 0.0 0
M  V30 18 O -5.7342 -7.0606 0.0 0
M  V30 19 C -3.1361 -7.0606 0.0 0
M  V30 20 C -5.7342 -8.5606 0.0 0
M  V30 21 C -3.1361 -8.5606 0.0 0
M  V30 22 N -3.1361 -10.0606 0.0 0
M  V30 END ATOM
M  V30 BEGIN BOND
M  V30 1 2 1 2
M  V30 2 1 2 3
M  V30 3 1 4 3 CFG=3
M  V30 4 1 4 5
M  V30 5 1 4 6
M  V30 6 1 7 5
M  V30 7 1 5 8
M  V30 8 1 5 9
M  V30 9 1 6 10
M  V30 10 1 6 11
M  V30 11 1 7 12 CFG=1
M  V30 12 1 12 13
M  V30 13 2 13 14
M  V30 14 1 13 15
M  V30 15 1 14 16
M  V30 16 2 15 17
M  V30 17 1 16 18
M  V30 18 2 16 19
M  V30 19 1 18 20
M  V30 20 1 19 21
M  V30 21 3 21 22
M  V30 22 1 6 7
M  V30 23 1 17 19
M  V30 END BOND
M  V30 BEGIN COLLECTION
M  V30 MDLV30/STEABS ATOMS=(2 4 7)
M  V30 END COLLECTION
M  V30 END CTAB
M  END
>  <Molecule Name>
Compound 1109

>  <Molecule Name 2>
Compound 1109

>  <Compound ID>
370

>  <Name>
ARV-766

>  <Uniprot>


>  <Target>


>  <Smiles>
CC(C)([C@H](C1(C)C)NC=O)[C@H]1Oc(cc1)cc(OC)c1C#N

>  <Kd (nM)>


>  <Assay (Kd)>


>  <Ki (nM)>


>  <Assay (Ki)>


>  <IC50 (nM)>


>  <Assay (IC50)>


>  <EC50 (nM)>


>  <Assay (EC50)>


>  <Article DOI>


>  <Molecular Weight>


>  <Exact Mass>


>  <XLogP3>


>  <Heavy Atom Count>


>  <Ring Count>


>  <Hydrogen Bond Acceptor Count>


>  <Hydrogen Bond Donor Count>


>  <Rotatable Bond Count>


>  <Topological Polar Surface Area>


>  <Molecular Formula>


>  <InChI>


>  <InChI Key>


>  <BindingDB>


>  <PubChem>


>  <ChEMBL>


$$$$
371
Actelion Java MolfileCreator 2.0

  0  0  0  0  0  0              0 V3000
M  V30 BEGIN CTAB
M  V30 COUNTS 39 46 0 0 0
M  V30 BEGIN ATOM
M  V30 1 F 6.9282 2.5 0.0 0
M  V30 2 C 6.9282 1.4999 0.0 0
M  V30 3 C 6.0621 0.9999 0.0 0
M  V30 4 C 7.7942 1.0 0.0 0
M  V30 5 C 6.0621 0.0 0.0 0
M  V30 6 C 5.1961 1.4999 0.0 0
M  V30 7 C 7.7942 0.0 0.0 0
M  V30 8 C 5.1961 -0.5 0.0 0
M  V30 9 C 6.9282 -0.4999 0.0 0
M  V30 10 N 8.5373 -0.6691 0.0 0
M  V30 11 C 4.3301 0.0 0.0 0
M  V30 12 C 5.1961 -1.4999 0.0 0
M  V30 13 C 7.1361 -1.4781 0.0 0
M  V30 14 N 8.1306 -1.5826 0.0 0
M  V30 15 O 4.3301 0.9999 0.0 0
M  V30 16 C 3.4641 -0.5 0.0 0
M  V30 17 C 4.3301 -1.9999 0.0 0
M  V30 18 C 6.0621 -1.9999 0.0 0
M  V30 19 N 2.598 0.0 0.0 0
M  V30 20 C 3.4641 -1.4999 0.0 0
M  V30 21 C 6.5621 -2.866 0.0 0
M  V30 22 C 7.0621 -2.0 0.0 0
M  V30 23 C 1.732 -0.5 0.0 0
M  V30 24 C 2.598 -2.0 0.0 0
M  V30 25 O 0.866 0.0 0.0 0
M  V30 26 N 1.732 -1.5 0.0 0
M  V30 27 N 2.598 -3.0 0.0 0
M  V30 28 C 0.0 -0.5 0.0 0
M  V30 29 C 1.789 -3.5877 0.0 0 CFG=2
M  V30 30 C 3.407 -3.5877 0.0 0
M  V30 31 C -0.866 0.0 0.0 0
M  V30 32 C 0.0 -1.4999 0.0 0
M  V30 33 C 1.2497 -4.8558 0.0 0
M  V30 34 C 2.098 -4.5388 0.0 0
M  V30 35 C 3.098 -4.5388 0.0 0 CFG=2
M  V30 36 C -1.732 -0.4999 0.0 0
M  V30 37 C -0.866 -1.9999 0.0 0
M  V30 38 N 2.0587 -5.4436 0.0 0
M  V30 39 O -1.732 -1.4999 0.0 0
M  V30 END ATOM
M  V30 BEGIN BOND
M  V30 1 1 1 2
M  V30 2 2 2 3
M  V30 3 1 2 4
M  V30 4 1 3 5
M  V30 5 1 3 6
M  V30 6 2 4 7
M  V30 7 1 5 8
M  V30 8 2 5 9
M  V30 9 1 7 10
M  V30 10 2 8 11
M  V30 11 1 8 12
M  V30 12 1 9 13
M  V30 13 1 10 14
M  V30 14 1 11 15
M  V30 15 1 11 16
M  V30 16 2 12 17
M  V30 17 1 12 18
M  V30 18 2 16 19
M  V30 19 1 16 20
M  V30 20 1 18 21
M  V30 21 1 18 22
M  V30 22 1 19 23
M  V30 23 2 20 24
M  V30 24 1 23 25
M  V30 25 2 23 26
M  V30 26 1 24 27
M  V30 27 1 25 28
M  V30 28 1 29 27 CFG=1
M  V30 29 1 27 30
M  V30 30 1 28 31
M  V30 31 1 28 32
M  V30 32 1 29 33
M  V30 33 1 29 34
M  V30 34 1 35 30
M  V30 35 1 31 36
M  V30 36 1 32 37
M  V30 37 1 33 38
M  V30 38 1 36 39
M  V30 39 1 7 9
M  V30 40 2 13 14
M  V30 41 1 17 20
M  V30 42 1 21 22
M  V30 43 1 24 26
M  V30 44 1 34 35
M  V30 45 1 35 38 CFG=1
M  V30 46 1 37 39
M  V30 END BOND
M  V30 BEGIN COLLECTION
M  V30 MDLV30/STEABS ATOMS=(2 29 35)
M  V30 END COLLECTION
M  V30 END CTAB
M  END
>  <Molecule Name>
Compound 1110

>  <Molecule Name 2>
Compound 1110

>  <Compound ID>
371

>  <Name>
ASP-3082 (Setidegrasib)

>  <Uniprot>


>  <Target>


>  <Smiles>
Cc(c(-c(c(C1CC1)cc(c1n2)c(N3[C@@H](C4)CN[C@@H]4C3)nc2OC2CCOCC2)c1O)c(cn[nH]1)c1c1)c1F

>  <Kd (nM)>


>  <Assay (Kd)>


>  <Ki (nM)>


>  <Assay (Ki)>


>  <IC50 (nM)>


>  <Assay (IC50)>


>  <EC50 (nM)>


>  <Assay (EC50)>


>  <Article DOI>


>  <Molecular Weight>


>  <Exact Mass>


>  <XLogP3>


>  <Heavy Atom Count>


>  <Ring Count>


>  <Hydrogen Bond Acceptor Count>


>  <Hydrogen Bond Donor Count>


>  <Rotatable Bond Count>


>  <Topological Polar Surface Area>


>  <Molecular Formula>


>  <InChI>


>  <InChI Key>


>  <BindingDB>


>  <PubChem>


>  <ChEMBL>


$$$$
372
Actelion Java MolfileCreator 2.0

  0  0  0  0  0  0              0 V3000
M  V30 BEGIN CTAB
M  V30 COUNTS 21 22 0 0 0
M  V30 BEGIN ATOM
M  V30 1 O 3.4641 -0.5 0.0 0
M  V30 2 C 2.598 0.0 0.0 0
M  V30 3 N 1.732 -0.5 0.0 0
M  V30 4 C 2.598 1.0 0.0 0
M  V30 5 C 1.732 -1.5 0.0 0 CFG=1
M  V30 6 O 1.789 1.5877 0.0 0
M  V30 7 N 3.407 1.5877 0.0 0
M  V30 8 C 0.866 -2.0 0.0 0
M  V30 9 C 2.598 -2.0 0.0 0
M  V30 10 N 2.098 2.5388 0.0 0
M  V30 11 C 3.098 2.5388 0.0 0
M  V30 12 C 0.0 -1.4999 0.0 0
M  V30 13 C 0.866 -3.0 0.0 0
M  V30 14 C 3.6858 3.3478 0.0 0
M  V30 15 C -0.866 -2.0 0.0 0
M  V30 16 C 0.0 -0.4999 0.0 0
M  V30 17 C 0.0 -3.5 0.0 0
M  V30 18 C 4.4948 2.76 0.0 0
M  V30 19 C 4.2736 4.1568 0.0 0
M  V30 20 C 2.8768 3.9356 0.0 0
M  V30 21 C -0.866 -3.0 0.0 0
M  V30 END ATOM
M  V30 BEGIN BOND
M  V30 1 2 1 2
M  V30 2 1 2 3
M  V30 3 1 2 4
M  V30 4 1 5 3 CFG=3
M  V30 5 1 4 6
M  V30 6 2 4 7
M  V30 7 1 5 8
M  V30 8 1 5 9
M  V30 9 1 6 10
M  V30 10 1 7 11
M  V30 11 2 8 12
M  V30 12 1 8 13
M  V30 13 1 11 14
M  V30 14 1 12 15
M  V30 15 1 12 16
M  V30 16 2 13 17
M  V30 17 1 14 18
M  V30 18 1 14 19
M  V30 19 1 14 20
M  V30 20 2 15 21
M  V30 21 2 10 11
M  V30 22 1 17 21
M  V30 END BOND
M  V30 BEGIN COLLECTION
M  V30 MDLV30/STEABS ATOMS=(1 5)
M  V30 END COLLECTION
M  V30 END CTAB
M  END
>  <Molecule Name>
Compound 1111

>  <Molecule Name 2>
Compound 1111

>  <Compound ID>
372

>  <Name>
BGB-16673 (Catadegbrutinib)

>  <Uniprot>


>  <Target>


>  <Smiles>
C[C@H](c1c(C)cccc1)NC(c1nc(C(C)(C)C)no1)=O

>  <Kd (nM)>


>  <Assay (Kd)>


>  <Ki (nM)>


>  <Assay (Ki)>


>  <IC50 (nM)>


>  <Assay (IC50)>


>  <EC50 (nM)>


>  <Assay (EC50)>


>  <Article DOI>


>  <Molecular Weight>


>  <Exact Mass>


>  <XLogP3>


>  <Heavy Atom Count>


>  <Ring Count>


>  <Hydrogen Bond Acceptor Count>


>  <Hydrogen Bond Donor Count>


>  <Rotatable Bond Count>


>  <Topological Polar Surface Area>


>  <Molecular Formula>


>  <InChI>


>  <InChI Key>


>  <BindingDB>


>  <PubChem>


>  <ChEMBL>


$$$$
373
Actelion Java MolfileCreator 2.0

  0  0  0  0  0  0              0 V3000
M  V30 BEGIN CTAB
M  V30 COUNTS 19 21 0 0 0
M  V30 BEGIN ATOM
M  V30 1 Cl 2.598 1.0 0.0 0
M  V30 2 C 2.598 0.0 0.0 0
M  V30 3 C 1.732 -0.5 0.0 0
M  V30 4 C 3.4641 -0.4999 0.0 0
M  V30 5 N 1.732 -1.5 0.0 0
M  V30 6 N 0.866 0.0 0.0 0
M  V30 7 N 3.4641 -1.4999 0.0 0
M  V30 8 C 2.598 -1.9999 0.0 0
M  V30 9 C 0.0 -0.5 0.0 0
M  V30 10 C 0.0 -1.4999 0.0 0
M  V30 11 C -0.866 0.0 0.0 0
M  V30 12 C -0.866 -1.9999 0.0 0
M  V30 13 C -1.732 -0.4999 0.0 0
M  V30 14 C -1.732 -1.4999 0.0 0
M  V30 15 C -1.0739 -2.9781 0.0 0
M  V30 16 N -2.4751 -2.1691 0.0 0
M  V30 17 C -2.0684 -3.0826 0.0 0
M  V30 18 C -3.4533 -1.9612 0.0 0
M  V30 19 O -2.5684 -3.9487 0.0 0
M  V30 END ATOM
M  V30 BEGIN BOND
M  V30 1 1 1 2
M  V30 2 2 2 3
M  V30 3 1 2 4
M  V30 4 1 3 5
M  V30 5 1 3 6
M  V30 6 2 4 7
M  V30 7 2 5 8
M  V30 8 1 6 9
M  V30 9 2 9 10
M  V30 10 1 9 11
M  V30 11 1 10 12
M  V30 12 2 11 13
M  V30 13 2 12 14
M  V30 14 1 12 15
M  V30 15 1 14 16
M  V30 16 1 15 17
M  V30 17 1 16 18
M  V30 18 2 17 19
M  V30 19 1 7 8
M  V30 20 1 13 14
M  V30 21 1 16 17
M  V30 END BOND
M  V30 END CTAB
M  END
>  <Molecule Name>
Compound 1112

>  <Molecule Name 2>
Compound 1112

>  <Compound ID>
373

>  <Name>
BMS-986458

>  <Uniprot>


>  <Target>


>  <Smiles>
CN(C(C1)=O)c(cc2)c1cc2Nc(ncnc1)c1Cl

>  <Kd (nM)>


>  <Assay (Kd)>


>  <Ki (nM)>


>  <Assay (Ki)>


>  <IC50 (nM)>


>  <Assay (IC50)>


>  <EC50 (nM)>


>  <Assay (EC50)>


>  <Article DOI>


>  <Molecular Weight>


>  <Exact Mass>


>  <XLogP3>


>  <Heavy Atom Count>


>  <Ring Count>


>  <Hydrogen Bond Acceptor Count>


>  <Hydrogen Bond Donor Count>


>  <Rotatable Bond Count>


>  <Topological Polar Surface Area>


>  <Molecular Formula>


>  <InChI>


>  <InChI Key>


>  <BindingDB>


>  <PubChem>


>  <ChEMBL>


$$$$
374
Actelion Java MolfileCreator 2.0

  0  0  0  0  0  0              0 V3000
M  V30 BEGIN CTAB
M  V30 COUNTS 19 21 0 0 0
M  V30 BEGIN ATOM
M  V30 1 O 0.866 0.0 0.0 0
M  V30 2 C 0.0 -0.5 0.0 0
M  V30 3 N -0.866 0.0 0.0 0
M  V30 4 C 0.0 -1.4999 0.0 0
M  V30 5 C -1.732 -0.4999 0.0 0
M  V30 6 C -0.866 1.0 0.0 0
M  V30 7 C -0.866 -1.9999 0.0 0
M  V30 8 C -1.732 -1.4999 0.0 0
M  V30 9 C -2.598 0.0 0.0 0
M  V30 10 C -2.598 -1.9999 0.0 0
M  V30 11 C -3.4641 -0.4999 0.0 0
M  V30 12 C -3.4641 -1.4999 0.0 0
M  V30 13 C -4.3301 -1.9999 0.0 0
M  V30 14 C -5.1961 -1.4999 0.0 0
M  V30 15 C -4.3301 -2.9999 0.0 0
M  V30 16 C -6.0621 -1.9999 0.0 0
M  V30 17 C -5.1961 -3.4999 0.0 0
M  V30 18 N -6.0621 -2.9999 0.0 0
M  V30 19 C -6.9282 -1.4999 0.0 0
M  V30 END ATOM
M  V30 BEGIN BOND
M  V30 1 2 1 2
M  V30 2 1 2 3
M  V30 3 1 2 4
M  V30 4 1 3 5
M  V30 5 1 3 6
M  V30 6 1 4 7
M  V30 7 2 5 8
M  V30 8 1 5 9
M  V30 9 1 8 10
M  V30 10 2 9 11
M  V30 11 2 10 12
M  V30 12 1 12 13
M  V30 13 2 13 14
M  V30 14 1 13 15
M  V30 15 1 14 16
M  V30 16 2 15 17
M  V30 17 2 16 18
M  V30 18 1 16 19
M  V30 19 1 7 8
M  V30 20 1 11 12
M  V30 21 1 17 18
M  V30 END BOND
M  V30 END CTAB
M  END
>  <Molecule Name>
Compound 1113

>  <Molecule Name 2>
Compound 1113

>  <Compound ID>
374

>  <Name>
BMS-986470

>  <Uniprot>


>  <Target>


>  <Smiles>
Cc1nccc(-c(cc2)cc(CC3)c2N(C)C3=O)c1

>  <Kd (nM)>


>  <Assay (Kd)>


>  <Ki (nM)>


>  <Assay (Ki)>


>  <IC50 (nM)>


>  <Assay (IC50)>


>  <EC50 (nM)>


>  <Assay (EC50)>


>  <Article DOI>


>  <Molecular Weight>


>  <Exact Mass>


>  <XLogP3>


>  <Heavy Atom Count>


>  <Ring Count>


>  <Hydrogen Bond Acceptor Count>


>  <Hydrogen Bond Donor Count>


>  <Rotatable Bond Count>


>  <Topological Polar Surface Area>


>  <Molecular Formula>


>  <InChI>


>  <InChI Key>


>  <BindingDB>


>  <PubChem>


>  <ChEMBL>


$$$$
375
Actelion Java MolfileCreator 2.0

  0  0  0  0  0  0              0 V3000
M  V30 BEGIN CTAB
M  V30 COUNTS 32 34 0 0 0
M  V30 BEGIN ATOM
M  V30 1 S 9.4764 0.1726 0.0 0
M  V30 2 C 9.1645 1.6398 0.0 0
M  V30 3 N 10.1682 2.7546 0.0 0
M  V30 4 N 7.7942 2.25 0.0 0
M  V30 5 C 11.66 2.5978 0.0 0
M  V30 6 C 9.4182 4.0536 0.0 0
M  V30 7 C 6.4951 1.5 0.0 0
M  V30 8 C 7.951 3.7417 0.0 0
M  V30 9 C 12.2701 1.2275 0.0 0
M  V30 10 C 12.5417 3.8113 0.0 0
M  V30 11 O 10.0283 5.4239 0.0 0
M  V30 12 C 5.1961 2.25 0.0 0
M  V30 13 C 6.4951 0.0 0.0 0
M  V30 14 C 7.4875 5.1683 0.0 0
M  V30 15 C 6.4838 4.0536 0.0 0
M  V30 16 C 13.7619 1.0707 0.0 0
M  V30 17 C 14.0335 3.6545 0.0 0
M  V30 18 C 3.8971 1.5 0.0 0
M  V30 19 C 5.1961 -0.75 0.0 0
M  V30 20 C 14.6436 2.2842 0.0 0
M  V30 21 C 14.372 -0.2996 0.0 0
M  V30 22 C 3.8971 0.0 0.0 0
M  V30 23 C 2.598 2.25 0.0 0
M  V30 24 C 16.1353 2.1274 0.0 0
M  V30 25 F 15.7423 0.3104 0.0 0
M  V30 26 F 14.9821 -1.6699 0.0 0
M  V30 27 F 13.0017 -0.9097 0.0 0
M  V30 28 O 2.598 -0.75 0.0 0
M  V30 29 C 1.299 1.5 0.0 0
M  V30 30 N 17.6271 1.9706 0.0 0
M  V30 31 C 1.299 0.0 0.0 0
M  V30 32 C 0.0 -0.75 0.0 0
M  V30 END ATOM
M  V30 BEGIN BOND
M  V30 1 2 1 2
M  V30 2 1 2 3
M  V30 3 1 2 4
M  V30 4 1 3 5
M  V30 5 1 3 6
M  V30 6 1 4 7
M  V30 7 1 4 8
M  V30 8 2 5 9
M  V30 9 1 5 10
M  V30 10 2 6 11
M  V30 11 2 7 12
M  V30 12 1 7 13
M  V30 13 1 8 14
M  V30 14 1 8 15
M  V30 15 1 9 16
M  V30 16 2 10 17
M  V30 17 1 12 18
M  V30 18 2 13 19
M  V30 19 2 16 20
M  V30 20 1 16 21
M  V30 21 2 18 22
M  V30 22 1 18 23
M  V30 23 1 20 24
M  V30 24 1 21 25
M  V30 25 1 21 26
M  V30 26 1 21 27
M  V30 27 1 22 28
M  V30 28 1 23 29
M  V30 29 3 24 30
M  V30 30 1 28 31
M  V30 31 1 31 32
M  V30 32 1 6 8
M  V30 33 1 17 20
M  V30 34 1 19 22
M  V30 END BOND
M  V30 END CTAB
M  END
>  <Molecule Name>
Compound 1114

>  <Molecule Name 2>
Compound 1114

>  <Compound ID>
375

>  <Name>
CC-94676 (BMS-986365)

>  <Uniprot>


>  <Target>


>  <Smiles>
CCc(cc(cc1)N(C(C)(C)C(N2c(cc3)cc(C(F)(F)F)c3C#N)=O)C2=S)c1OCC

>  <Kd (nM)>


>  <Assay (Kd)>


>  <Ki (nM)>


>  <Assay (Ki)>


>  <IC50 (nM)>


>  <Assay (IC50)>


>  <EC50 (nM)>


>  <Assay (EC50)>


>  <Article DOI>


>  <Molecular Weight>


>  <Exact Mass>


>  <XLogP3>


>  <Heavy Atom Count>


>  <Ring Count>


>  <Hydrogen Bond Acceptor Count>


>  <Hydrogen Bond Donor Count>


>  <Rotatable Bond Count>


>  <Topological Polar Surface Area>


>  <Molecular Formula>


>  <InChI>


>  <InChI Key>


>  <BindingDB>


>  <PubChem>


>  <ChEMBL>


$$$$
376
Actelion Java MolfileCreator 2.0

  0  0  0  0  0  0              0 V3000
M  V30 BEGIN CTAB
M  V30 COUNTS 29 31 0 0 0
M  V30 BEGIN ATOM
M  V30 1 S 3.8971 0.0 0.0 0
M  V30 2 O 4.6471 1.299 0.0 0
M  V30 3 O 3.1471 1.299 0.0 0
M  V30 4 N 2.598 -0.75 0.0 0
M  V30 5 N 5.1961 -0.75 0.0 0
M  V30 6 C 1.299 0.0 0.0 0
M  V30 7 C 2.598 -2.25 0.0 0
M  V30 8 C 6.4951 0.0 0.0 0
M  V30 9 C 0.0 -0.75 0.0 0
M  V30 10 C 7.7942 -0.75 0.0 0
M  V30 11 C 6.4951 1.5 0.0 0
M  V30 12 C 7.7942 -2.25 0.0 0
M  V30 13 C 9.0932 0.0 0.0 0
M  V30 14 C 7.7942 2.25 0.0 0
M  V30 15 N 7.7942 -3.75 0.0 0
M  V30 16 O 10.3923 -0.75 0.0 0
M  V30 17 C 9.0932 1.5 0.0 0
M  V30 18 C 11.6913 0.0 0.0 0
M  V30 19 F 10.3923 2.25 0.0 0
M  V30 20 C 12.9903 -0.75 0.0 0
M  V30 21 C 11.6913 1.5 0.0 0
M  V30 22 C 14.2894 0.0 0.0 0
M  V30 23 C 12.9903 2.25 0.0 0
M  V30 24 C 15.5884 -0.75 0.0 0
M  V30 25 C 14.2894 1.5 0.0 0
M  V30 26 O 15.5884 -2.25 0.0 0
M  V30 27 N 16.8875 0.0 0.0 0
M  V30 28 N 15.5884 2.25 0.0 0
M  V30 29 C 16.8875 1.5 0.0 0
M  V30 END ATOM
M  V30 BEGIN BOND
M  V30 1 2 1 2
M  V30 2 2 1 3
M  V30 3 1 1 4
M  V30 4 1 1 5
M  V30 5 1 4 6
M  V30 6 1 4 7
M  V30 7 1 5 8
M  V30 8 1 6 9
M  V30 9 2 8 10
M  V30 10 1 8 11
M  V30 11 1 10 12
M  V30 12 1 10 13
M  V30 13 2 11 14
M  V30 14 3 12 15
M  V30 15 1 13 16
M  V30 16 2 13 17
M  V30 17 1 16 18
M  V30 18 1 17 19
M  V30 19 2 18 20
M  V30 20 1 18 21
M  V30 21 1 20 22
M  V30 22 2 21 23
M  V30 23 1 22 24
M  V30 24 2 22 25
M  V30 25 2 24 26
M  V30 26 1 24 27
M  V30 27 1 25 28
M  V30 28 1 27 29
M  V30 29 1 14 17
M  V30 30 1 23 25
M  V30 31 2 28 29
M  V30 END BOND
M  V30 END CTAB
M  END
>  <Molecule Name>
Compound 1115

>  <Molecule Name 2>
Compound 1115

>  <Compound ID>
376

>  <Name>
CFT1946

>  <Uniprot>


>  <Target>


>  <Smiles>
CCN(C)S(Nc(ccc(F)c1Oc(cc2)cc3c2N=CNC3=O)c1C#N)(=O)=O

>  <Kd (nM)>


>  <Assay (Kd)>


>  <Ki (nM)>


>  <Assay (Ki)>


>  <IC50 (nM)>


>  <Assay (IC50)>


>  <EC50 (nM)>


>  <Assay (EC50)>


>  <Article DOI>


>  <Molecular Weight>


>  <Exact Mass>


>  <XLogP3>


>  <Heavy Atom Count>


>  <Ring Count>


>  <Hydrogen Bond Acceptor Count>


>  <Hydrogen Bond Donor Count>


>  <Rotatable Bond Count>


>  <Topological Polar Surface Area>


>  <Molecular Formula>


>  <InChI>


>  <InChI Key>


>  <BindingDB>


>  <PubChem>


>  <ChEMBL>


$$$$
378
Actelion Java MolfileCreator 2.0

  0  0  0  0  0  0              0 V3000
M  V30 BEGIN CTAB
M  V30 COUNTS 21 22 0 0 0
M  V30 BEGIN ATOM
M  V30 1 O 10.3923 2.2499 0.0 0
M  V30 2 C 9.0932 1.4999 0.0 0
M  V30 3 N 7.7942 2.25 0.0 0
M  V30 4 C 9.0932 0.0 0.0 0
M  V30 5 C 6.4951 1.5 0.0 0
M  V30 6 C 7.7942 3.75 0.0 0
M  V30 7 C 7.7942 -0.7499 0.0 0
M  V30 8 C 10.3923 -0.75 0.0 0
M  V30 9 C 6.4951 0.0 0.0 0
M  V30 10 C 7.7942 -2.2499 0.0 0
M  V30 11 C 5.1961 -0.75 0.0 0
M  V30 12 C 3.8971 0.0 0.0 0
M  V30 13 C 5.1961 -2.2499 0.0 0
M  V30 14 C 2.598 -0.75 0.0 0
M  V30 15 C 3.8971 -3.0 0.0 0
M  V30 16 O 1.299 0.0 0.0 0
M  V30 17 C 2.598 -2.25 0.0 0
M  V30 18 O 3.8971 -4.5 0.0 0
M  V30 19 C 0.0 -0.75 0.0 0
M  V30 20 C 1.299 -2.9999 0.0 0
M  V30 21 C 5.1961 -5.25 0.0 0
M  V30 END ATOM
M  V30 BEGIN BOND
M  V30 1 2 1 2
M  V30 2 1 2 3
M  V30 3 1 2 4
M  V30 4 1 3 5
M  V30 5 1 3 6
M  V30 6 2 4 7
M  V30 7 1 4 8
M  V30 8 2 5 9
M  V30 9 1 7 10
M  V30 10 1 9 11
M  V30 11 2 11 12
M  V30 12 1 11 13
M  V30 13 1 12 14
M  V30 14 2 13 15
M  V30 15 1 14 16
M  V30 16 2 14 17
M  V30 17 1 15 18
M  V30 18 1 16 19
M  V30 19 1 17 20
M  V30 20 1 18 21
M  V30 21 1 7 9
M  V30 22 1 15 17
M  V30 END BOND
M  V30 END CTAB
M  END
>  <Molecule Name>
Compound 1117

>  <Molecule Name 2>
Compound 1117

>  <Compound ID>
378

>  <Name>
CFT8634

>  <Uniprot>


>  <Target>


>  <Smiles>
Cc(c(OC)cc(C(C(C)=C1C)=CN(C)C1=O)c1)c1OC

>  <Kd (nM)>


>  <Assay (Kd)>


>  <Ki (nM)>


>  <Assay (Ki)>


>  <IC50 (nM)>


>  <Assay (IC50)>


>  <EC50 (nM)>


>  <Assay (EC50)>


>  <Article DOI>


>  <Molecular Weight>


>  <Exact Mass>


>  <XLogP3>


>  <Heavy Atom Count>


>  <Ring Count>


>  <Hydrogen Bond Acceptor Count>


>  <Hydrogen Bond Donor Count>


>  <Rotatable Bond Count>


>  <Topological Polar Surface Area>


>  <Molecular Formula>


>  <InChI>


>  <InChI Key>


>  <BindingDB>


>  <PubChem>


>  <ChEMBL>


$$$$
379
Actelion Java MolfileCreator 2.0

  0  0  0  0  0  0              0 V3000
M  V30 BEGIN CTAB
M  V30 COUNTS 65 71 0 0 0
M  V30 BEGIN ATOM
M  V30 1 Cl 27.2798 0.0 0.0 0
M  V30 2 C 25.9808 -0.75 0.0 0
M  V30 3 C 24.6817 0.0 0.0 0
M  V30 4 C 25.9808 -2.25 0.0 0
M  V30 5 C 23.3827 -0.75 0.0 0
M  V30 6 C 24.6817 -3.0 0.0 0
M  V30 7 C 23.3827 -2.25 0.0 0
M  V30 8 C 22.0836 -3.0 0.0 0
M  V30 9 C 20.7846 -2.25 0.0 0
M  V30 10 C 22.0836 -4.5 0.0 0
M  V30 11 C 19.4856 -3.0 0.0 0
M  V30 12 C 20.7846 -0.75 0.0 0
M  V30 13 C 20.7846 -5.25 0.0 0
M  V30 14 C 19.4856 -4.5 0.0 0
M  V30 15 N 19.4856 0.0 0.0 0
M  V30 16 C 17.9856 -4.4999 0.0 0
M  V30 17 C 18.7356 -5.799 0.0 0
M  V30 18 C 19.4856 1.5 0.0 0
M  V30 19 C 18.1865 -0.75 0.0 0
M  V30 20 C 18.1865 2.25 0.0 0
M  V30 21 C 16.8875 0.0 0.0 0
M  V30 22 N 16.8875 1.5 0.0 0
M  V30 23 C 15.5884 2.25 0.0 0
M  V30 24 C 15.5884 3.75 0.0 0
M  V30 25 C 14.2894 1.5 0.0 0
M  V30 26 C 14.2894 4.5 0.0 0
M  V30 27 C 12.9904 2.25 0.0 0
M  V30 28 C 12.9904 3.75 0.0 0
M  V30 29 C 11.6913 4.5 0.0 0
M  V30 30 O 11.6913 6.0 0.0 0
M  V30 31 N 10.3923 3.75 0.0 0
M  V30 32 S 9.0932 4.5 0.0 0
M  V30 33 O 9.8432 5.799 0.0 0
M  V30 34 O 8.3432 5.799 0.0 0
M  V30 35 C 7.7942 3.75 0.0 0
M  V30 36 C 6.4952 4.5 0.0 0
M  V30 37 C 7.7942 2.25 0.0 0
M  V30 38 C 5.1961 3.75 0.0 0
M  V30 39 C 6.4952 1.5 0.0 0
M  V30 40 S 3.8971 4.5 0.0 0
M  V30 41 C 5.1961 2.25 0.0 0
M  V30 42 O 3.1471 3.2009 0.0 0
M  V30 43 O 2.3971 4.5 0.0 0
M  V30 44 C 3.8971 6.0 0.0 0
M  V30 45 N 3.8971 1.5 0.0 0
M  V30 46 F 5.3971 6.0 0.0 0
M  V30 47 F 3.8971 7.5 0.0 0
M  V30 48 F 2.3971 6.0 0.0 0
M  V30 49 C 3.8971 0.0 0.0 0 CFG=1
M  V30 50 C 5.1961 -0.75 0.0 0
M  V30 51 C 2.598 -0.75 0.0 0
M  V30 52 S 6.4952 0.0 0.0 0
M  V30 53 C 1.299 0.0 0.0 0
M  V30 54 C 7.7942 -0.75 0.0 0
M  V30 55 N 0.0 -0.75 0.0 0
M  V30 56 C 7.7942 -2.25 0.0 0
M  V30 57 C 9.0932 0.0 0.0 0
M  V30 58 C -1.299 0.0 0.0 0
M  V30 59 C 0.0 -2.25 0.0 0
M  V30 60 C 9.0932 -3.0 0.0 0
M  V30 61 C 10.3923 -0.75 0.0 0
M  V30 62 C -2.598 -0.75 0.0 0
M  V30 63 C -1.299 -3.0 0.0 0
M  V30 64 C 10.3923 -2.25 0.0 0
M  V30 65 N -2.598 -2.25 0.0 0
M  V30 END ATOM
M  V30 BEGIN BOND
M  V30 1 1 1 2
M  V30 2 2 2 3
M  V30 3 1 2 4
M  V30 4 1 3 5
M  V30 5 2 4 6
M  V30 6 2 5 7
M  V30 7 1 7 8
M  V30 8 2 8 9
M  V30 9 1 8 10
M  V30 10 1 9 11
M  V30 11 1 9 12
M  V30 12 1 10 13
M  V30 13 1 11 14
M  V30 14 1 12 15
M  V30 15 1 14 16
M  V30 16 1 14 17
M  V30 17 1 15 18
M  V30 18 1 15 19
M  V30 19 1 18 20
M  V30 20 1 19 21
M  V30 21 1 20 22
M  V30 22 1 22 23
M  V30 23 2 23 24
M  V30 24 1 23 25
M  V30 25 1 24 26
M  V30 26 2 25 27
M  V30 27 2 26 28
M  V30 28 1 28 29
M  V30 29 2 29 30
M  V30 30 1 29 31
M  V30 31 1 31 32
M  V30 32 2 32 33
M  V30 33 2 32 34
M  V30 34 1 32 35
M  V30 35 2 35 36
M  V30 36 1 35 37
M  V30 37 1 36 38
M  V30 38 2 37 39
M  V30 39 1 38 40
M  V30 40 2 38 41
M  V30 41 2 40 42
M  V30 42 2 40 43
M  V30 43 1 40 44
M  V30 44 1 41 45
M  V30 45 1 44 46
M  V30 46 1 44 47
M  V30 47 1 44 48
M  V30 48 1 49 45 CFG=1
M  V30 49 1 49 50
M  V30 50 1 49 51
M  V30 51 1 50 52
M  V30 52 1 51 53
M  V30 53 1 52 54
M  V30 54 1 53 55
M  V30 55 2 54 56
M  V30 56 1 54 57
M  V30 57 1 55 58
M  V30 58 1 55 59
M  V30 59 1 56 60
M  V30 60 2 57 61
M  V30 61 1 58 62
M  V30 62 1 59 63
M  V30 63 2 60 64
M  V30 64 1 62 65
M  V30 65 1 6 7
M  V30 66 1 13 14
M  V30 67 1 21 22
M  V30 68 1 27 28
M  V30 69 1 39 41
M  V30 70 1 61 64
M  V30 71 1 63 65
M  V30 END BOND
M  V30 BEGIN COLLECTION
M  V30 MDLV30/STEABS ATOMS=(1 49)
M  V30 END COLLECTION
M  V30 END CTAB
M  END
>  <Molecule Name>
Compound 1118

>  <Molecule Name 2>
Compound 1118

>  <Compound ID>
379

>  <Name>
DT-2216

>  <Uniprot>


>  <Target>


>  <Smiles>
CC(C)(CC1)CC(CN(CC2)CCN2c(cc2)ccc2C(NS(c(cc2)cc(S(C(F)(F)F)(=O)=O)c2N[C@H](CCN2CCNCC2)CSc2ccccc2)(=O)=O)=O)=C1c(cc1)ccc1Cl

>  <Kd (nM)>


>  <Assay (Kd)>


>  <Ki (nM)>


>  <Assay (Ki)>


>  <IC50 (nM)>


>  <Assay (IC50)>


>  <EC50 (nM)>


>  <Assay (EC50)>


>  <Article DOI>


>  <Molecular Weight>


>  <Exact Mass>


>  <XLogP3>


>  <Heavy Atom Count>


>  <Ring Count>


>  <Hydrogen Bond Acceptor Count>


>  <Hydrogen Bond Donor Count>


>  <Rotatable Bond Count>


>  <Topological Polar Surface Area>


>  <Molecular Formula>


>  <InChI>


>  <InChI Key>


>  <BindingDB>


>  <PubChem>


>  <ChEMBL>


$$$$
380
Actelion Java MolfileCreator 2.0

  0  0  0  0  0  0              0 V3000
M  V30 BEGIN CTAB
M  V30 COUNTS 26 29 0 0 0
M  V30 BEGIN ATOM
M  V30 1 O 6.9282 1.4999 0.0 0
M  V30 2 C 6.0621 0.9999 0.0 0
M  V30 3 N 5.1961 1.5 0.0 0
M  V30 4 C 6.0621 0.0 0.0 0
M  V30 5 C 4.3301 0.9999 0.0 0
M  V30 6 C 5.1961 2.5 0.0 0
M  V30 7 C 5.1961 -0.5 0.0 0
M  V30 8 C 6.9282 -0.5 0.0 0
M  V30 9 C 4.3301 0.0 0.0 0
M  V30 10 C 5.1961 -1.5 0.0 0
M  V30 11 N 6.9282 -1.4999 0.0 0
M  V30 12 C 3.4641 -0.5 0.0 0
M  V30 13 C 6.0621 -1.9999 0.0 0
M  V30 14 C 2.598 0.0 0.0 0
M  V30 15 C 3.4641 -1.4999 0.0 0
M  V30 16 N 6.0621 -3.0 0.0 0
M  V30 17 C 1.732 -0.5 0.0 0
M  V30 18 C 2.598 -2.0 0.0 0
M  V30 19 C 5.355 -3.7071 0.0 0
M  V30 20 C 6.7692 -3.7071 0.0 0
M  V30 21 O 0.866 0.0 0.0 0
M  V30 22 C 1.732 -1.5 0.0 0
M  V30 23 O 2.598 -3.0 0.0 0
M  V30 24 C 6.0621 -4.4142 0.0 0
M  V30 25 C 0.0 -0.5 0.0 0
M  V30 26 C 3.4641 -3.5 0.0 0
M  V30 END ATOM
M  V30 BEGIN BOND
M  V30 1 2 1 2
M  V30 2 1 2 3
M  V30 3 1 2 4
M  V30 4 1 3 5
M  V30 5 1 3 6
M  V30 6 2 4 7
M  V30 7 1 4 8
M  V30 8 2 5 9
M  V30 9 1 7 10
M  V30 10 2 8 11
M  V30 11 1 9 12
M  V30 12 2 10 13
M  V30 13 2 12 14
M  V30 14 1 12 15
M  V30 15 1 13 16
M  V30 16 1 14 17
M  V30 17 2 15 18
M  V30 18 1 16 19
M  V30 19 1 16 20
M  V30 20 1 17 21
M  V30 21 2 17 22
M  V30 22 1 18 23
M  V30 23 1 19 24
M  V30 24 1 21 25
M  V30 25 1 23 26
M  V30 26 1 7 9
M  V30 27 1 11 13
M  V30 28 1 18 22
M  V30 29 1 20 24
M  V30 END BOND
M  V30 END CTAB
M  END
>  <Molecule Name>
Compound 1119

>  <Molecule Name 2>
Compound 1119

>  <Compound ID>
380

>  <Name>
FHD-609

>  <Uniprot>


>  <Target>


>  <Smiles>
CN(C=C(c1cc(OC)cc(OC)c1)c1c2cnc(N3CCC3)c1)C2=O

>  <Kd (nM)>


>  <Assay (Kd)>


>  <Ki (nM)>


>  <Assay (Ki)>


>  <IC50 (nM)>


>  <Assay (IC50)>


>  <EC50 (nM)>


>  <Assay (EC50)>


>  <Article DOI>


>  <Molecular Weight>


>  <Exact Mass>


>  <XLogP3>


>  <Heavy Atom Count>


>  <Ring Count>


>  <Hydrogen Bond Acceptor Count>


>  <Hydrogen Bond Donor Count>


>  <Rotatable Bond Count>


>  <Topological Polar Surface Area>


>  <Molecular Formula>


>  <InChI>


>  <InChI Key>


>  <BindingDB>


>  <PubChem>


>  <ChEMBL>


$$$$
381
Actelion Java MolfileCreator 2.0

  0  0  0  0  0  0              0 V3000
M  V30 BEGIN CTAB
M  V30 COUNTS 39 44 0 0 0
M  V30 BEGIN ATOM
M  V30 1 Cl 8.7443 -4.4716 0.0 0
M  V30 2 C 7.3177 -4.008 0.0 0
M  V30 3 C 7.0063 -2.5412 0.0 0
M  V30 4 C 6.203 -5.0117 0.0 0
M  V30 5 F 8.1206 -1.5371 0.0 0
M  V30 6 C 5.5793 -2.0773 0.0 0
M  V30 7 C 4.7764 -4.5482 0.0 0
M  V30 8 C 4.4645 -3.081 0.0 0
M  V30 9 C 5.2674 -0.6101 0.0 0 CFG=2
M  V30 10 C 6.2711 0.5046 0.0 0 CFG=1
M  V30 11 C 3.8971 0.0 0.0 0 CFG=1
M  V30 12 C 7.0211 -0.7944 0.0 0
M  V30 13 C 7.3334 1.5615 0.0 0
M  V30 14 C 5.5211 1.8036 0.0 0
M  V30 15 N 4.0539 1.4917 0.0 0
M  V30 16 C 2.598 -0.75 0.0 0
M  V30 17 O 6.4276 -2.0651 0.0 0
M  V30 18 N 8.4883 -0.4825 0.0 0
M  V30 19 C 8.6451 1.0092 0.0 0
M  V30 20 C 7.0293 3.1171 0.0 0
M  V30 21 C 6.858 2.0302 0.0 0
M  V30 22 C 4.6394 3.0171 0.0 0
M  V30 23 O 2.598 -2.25 0.0 0
M  V30 24 N 1.299 0.0 0.0 0
M  V30 25 C 9.8586 1.8909 0.0 0
M  V30 26 C 8.3315 3.9927 0.0 0
M  V30 27 C 7.7614 3.223 0.0 0
M  V30 28 C 5.2495 4.3874 0.0 0
M  V30 29 C 0.0 -0.75 0.0 0 CFG=1
M  V30 30 C 9.7018 3.3826 0.0 0
M  V30 31 C 6.7413 4.5442 0.0 0
M  V30 32 C -1.299 0.0 0.0 0
M  V30 33 C 0.0 -2.25 0.0 0
M  V30 34 Cl 10.9154 4.2643 0.0 0
M  V30 35 C -2.598 -0.75 0.0 0
M  V30 36 C -1.299 -3.0 0.0 0
M  V30 37 C -2.598 -2.25 0.0 0 CFG=1
M  V30 38 C -3.8971 -3.0 0.0 0
M  V30 39 O -3.8971 -4.5 0.0 0
M  V30 END ATOM
M  V30 BEGIN BOND
M  V30 1 1 1 2
M  V30 2 2 2 3
M  V30 3 1 2 4
M  V30 4 1 3 5
M  V30 5 1 3 6
M  V30 6 2 4 7
M  V30 7 2 6 8
M  V30 8 1 9 6 CFG=1
M  V30 9 1 10 9
M  V30 10 1 11 9
M  V30 11 1 10 12
M  V30 12 1 10 13 CFG=3
M  V30 13 1 10 14
M  V30 14 1 11 15
M  V30 15 1 11 16 CFG=3
M  V30 16 2 12 17
M  V30 17 1 12 18
M  V30 18 2 13 19
M  V30 19 1 13 20
M  V30 20 1 14 21
M  V30 21 1 14 22
M  V30 22 2 16 23
M  V30 23 1 16 24
M  V30 24 1 19 25
M  V30 25 2 20 26
M  V30 26 1 21 27
M  V30 27 1 22 28
M  V30 28 1 29 24 CFG=3
M  V30 29 2 25 30
M  V30 30 1 27 31
M  V30 31 1 29 32
M  V30 32 1 29 33
M  V30 33 1 30 34
M  V30 34 1 32 35
M  V30 35 1 33 36
M  V30 36 1 37 35
M  V30 37 1 37 38 CFG=1
M  V30 38 2 38 39
M  V30 39 1 7 8
M  V30 40 1 14 15
M  V30 41 1 18 19
M  V30 42 1 26 30
M  V30 43 1 28 31
M  V30 44 1 36 37
M  V30 END BOND
M  V30 BEGIN COLLECTION
M  V30 MDLV30/STEABS ATOMS=(5 9 10 11 29 37)
M  V30 END COLLECTION
M  V30 END CTAB
M  END
>  <Molecule Name>
Compound 1120

>  <Molecule Name 2>
Compound 1120

>  <Compound ID>
381

>  <Name>
KT-253

>  <Uniprot>


>  <Target>


>  <Smiles>
O=C[C@H](CC1)CC[C@@H]1NC([C@@H]([C@@H]1c2cccc(Cl)c2F)NC2(CCCCC2)[C@@]1(c(ccc(Cl)c1)c1N1)C1=O)=O

>  <Kd (nM)>


>  <Assay (Kd)>


>  <Ki (nM)>


>  <Assay (Ki)>


>  <IC50 (nM)>


>  <Assay (IC50)>


>  <EC50 (nM)>


>  <Assay (EC50)>


>  <Article DOI>


>  <Molecular Weight>


>  <Exact Mass>


>  <XLogP3>


>  <Heavy Atom Count>


>  <Ring Count>


>  <Hydrogen Bond Acceptor Count>


>  <Hydrogen Bond Donor Count>


>  <Rotatable Bond Count>


>  <Topological Polar Surface Area>


>  <Molecular Formula>


>  <InChI>


>  <InChI Key>


>  <BindingDB>


>  <PubChem>


>  <ChEMBL>


$$$$
382
Actelion Java MolfileCreator 2.0

  0  0  0  0  0  0              0 V3000
M  V30 BEGIN CTAB
M  V30 COUNTS 51 55 0 0 0
M  V30 BEGIN ATOM
M  V30 1 Cl 5.1961 1.5 0.0 0
M  V30 2 C 6.0621 1.0 0.0 0
M  V30 3 C 6.0621 0.0 0.0 0
M  V30 4 C 6.9282 1.4999 0.0 0
M  V30 5 O 5.1961 -0.5 0.0 0
M  V30 6 C 6.9282 -0.5 0.0 0
M  V30 7 C 7.7942 1.0 0.0 0
M  V30 8 C 4.3301 0.0 0.0 0
M  V30 9 C 7.7942 0.0 0.0 0
M  V30 10 C 3.4641 -0.5 0.0 0 CFG=1
M  V30 11 N 3.4641 -1.5 0.0 0
M  V30 12 C 2.598 0.0 0.0 0
M  V30 13 C 2.598 -2.0 0.0 0
M  V30 14 C 1.732 -0.5 0.0 0
M  V30 15 O 1.732 -1.4999 0.0 0
M  V30 16 C 2.598 -3.0 0.0 0 CFG=1
M  V30 17 C 0.866 0.0 0.0 0
M  V30 18 N 1.789 -3.5877 0.0 0
M  V30 19 C 3.407 -3.5877 0.0 0
M  V30 20 O 0.866 1.0 0.0 0
M  V30 21 N 0.0 -0.5 0.0 0
M  V30 22 C 0.898 -3.1337 0.0 0
M  V30 23 C 2.098 -4.5388 0.0 0 CFG=2
M  V30 24 C 3.098 -4.5388 0.0 0
M  V30 25 O 0.9765 -2.1368 0.0 0
M  V30 26 C -0.053 -3.4428 0.0 0 CFG=1
M  V30 27 C 1.644 -5.4298 0.0 0
M  V30 28 N -0.7024 -2.6824 0.0 0
M  V30 29 C -0.5069 -4.3338 0.0 0
M  V30 30 C 0.693 -5.7388 0.0 0
M  V30 31 C -1.6857 -2.8646 0.0 0
M  V30 32 N -0.1979 -5.2848 0.0 0
M  V30 33 O -2.0195 -3.8072 0.0 0
M  V30 34 C -2.3351 -2.1042 0.0 0
M  V30 35 C -0.9583 -5.9343 0.0 0
M  V30 36 N -3.332 -2.1826 0.0 0
M  V30 37 C -2.1017 -1.1318 0.0 0
M  V30 38 O -1.901 -5.6005 0.0 0
M  V30 39 C -0.7761 -6.9175 0.0 0
M  V30 40 C -3.7147 -1.2588 0.0 0
M  V30 41 C -2.9543 -0.6093 0.0 0
M  V30 42 C -4.6573 -0.925 0.0 0
M  V30 43 C -3.1365 0.3738 0.0 0
M  V30 44 C -4.8396 0.0582 0.0 0
M  V30 45 C -4.0792 0.7076 0.0 0
M  V30 46 C -4.2614 1.6909 0.0 0
M  V30 47 P -5.2041 2.0247 0.0 0
M  V30 48 O -3.501 2.3403 0.0 0
M  V30 49 O -5.5379 1.0821 0.0 0
M  V30 50 O -6.1467 2.3585 0.0 0
M  V30 51 O -4.8702 2.9673 0.0 0
M  V30 END ATOM
M  V30 BEGIN BOND
M  V30 1 1 1 2
M  V30 2 2 2 3
M  V30 3 1 2 4
M  V30 4 1 3 5
M  V30 5 1 3 6
M  V30 6 2 4 7
M  V30 7 1 5 8
M  V30 8 2 6 9
M  V30 9 1 10 8
M  V30 10 1 10 11 CFG=1
M  V30 11 1 10 12
M  V30 12 1 11 13
M  V30 13 1 12 14
M  V30 14 2 13 15
M  V30 15 1 16 13 CFG=3
M  V30 16 1 14 17
M  V30 17 1 16 18
M  V30 18 1 16 19
M  V30 19 2 17 20
M  V30 20 1 17 21
M  V30 21 1 18 22
M  V30 22 1 23 18 CFG=3
M  V30 23 1 19 24
M  V30 24 2 22 25
M  V30 25 1 26 22
M  V30 26 1 23 27
M  V30 27 1 26 28 CFG=3
M  V30 28 1 26 29
M  V30 29 1 27 30
M  V30 30 1 28 31
M  V30 31 1 29 32
M  V30 32 2 31 33
M  V30 33 1 31 34
M  V30 34 1 32 35
M  V30 35 1 34 36
M  V30 36 2 34 37
M  V30 37 2 35 38
M  V30 38 1 35 39
M  V30 39 1 36 40
M  V30 40 1 37 41
M  V30 41 1 40 42
M  V30 42 1 41 43
M  V30 43 2 42 44
M  V30 44 2 43 45
M  V30 45 1 45 46
M  V30 46 1 46 47
M  V30 47 2 46 48
M  V30 48 2 47 49
M  V30 49 1 47 50
M  V30 50 1 47 51
M  V30 51 1 7 9
M  V30 52 1 23 24
M  V30 53 1 30 32
M  V30 54 2 40 41
M  V30 55 1 44 45
M  V30 END BOND
M  V30 BEGIN COLLECTION
M  V30 MDLV30/STEABS ATOMS=(4 10 16 23 26)
M  V30 END COLLECTION
M  V30 END CTAB
M  END
>  <Molecule Name>
Compound 1121

>  <Molecule Name 2>
Compound 1121

>  <Compound ID>
382

>  <Name>
KT-333

>  <Uniprot>


>  <Target>


>  <Smiles>
CC(N(CC[C@@H](CC[C@H]1C(N[C@@H](CCC(N)=O)COc(cccc2)c2Cl)=O)N1C1=O)C[C@@H]1NC(c1cc(cc(cc2)C(P(O)(O)=O)=O)c2[nH]1)=O)=O

>  <Kd (nM)>


>  <Assay (Kd)>


>  <Ki (nM)>


>  <Assay (Ki)>


>  <IC50 (nM)>


>  <Assay (IC50)>


>  <EC50 (nM)>


>  <Assay (EC50)>


>  <Article DOI>


>  <Molecular Weight>


>  <Exact Mass>


>  <XLogP3>


>  <Heavy Atom Count>


>  <Ring Count>


>  <Hydrogen Bond Acceptor Count>


>  <Hydrogen Bond Donor Count>


>  <Rotatable Bond Count>


>  <Topological Polar Surface Area>


>  <Molecular Formula>


>  <InChI>


>  <InChI Key>


>  <BindingDB>


>  <PubChem>


>  <ChEMBL>


$$$$
383
Actelion Java MolfileCreator 2.0

  0  0  0  0  0  0              0 V3000
M  V30 BEGIN CTAB
M  V30 COUNTS 33 36 0 0 0
M  V30 BEGIN ATOM
M  V30 1 S 3.672 2.4781 0.0 0
M  V30 2 C 3.4641 1.4999 0.0 0
M  V30 3 C 4.6665 2.5826 0.0 0
M  V30 4 C 4.3301 1.0 0.0 0
M  V30 5 C 2.598 0.9999 0.0 0
M  V30 6 N 5.0732 1.6691 0.0 0
M  V30 7 C 5.1665 3.4487 0.0 0 CFG=1
M  V30 8 C 4.3301 0.0 0.0 0
M  V30 9 C 2.598 0.0 0.0 0
M  V30 10 C 6.1665 3.4487 0.0 0
M  V30 11 C 4.6665 4.3147 0.0 0
M  V30 12 C 3.4641 -0.5 0.0 0
M  V30 13 N 1.732 -0.5 0.0 0
M  V30 14 C 6.6665 4.3147 0.0 0
M  V30 15 C 5.1665 5.1807 0.0 0
M  V30 16 C 3.4641 -1.5 0.0 0
M  V30 17 C 0.866 0.0 0.0 0
M  V30 18 C 6.1665 5.1807 0.0 0 CFG=1
M  V30 19 O 4.4641 -1.5 0.0 0
M  V30 20 C 3.4641 -2.5 0.0 0
M  V30 21 C 2.4641 -1.5 0.0 0
M  V30 22 O 0.866 1.0 0.0 0
M  V30 23 C 0.0 -0.5 0.0 0
M  V30 24 C 6.6665 6.0467 0.0 0
M  V30 25 N -0.866 0.0 0.0 0
M  V30 26 C 0.0 -1.4999 0.0 0
M  V30 27 C -1.732 -0.4999 0.0 0
M  V30 28 C -0.866 -1.9999 0.0 0
M  V30 29 C -1.732 -1.4999 0.0 0
M  V30 30 C -2.598 0.0 0.0 0
M  V30 31 F -3.098 -0.866 0.0 0
M  V30 32 F -3.4641 0.5 0.0 0
M  V30 33 F -2.098 0.866 0.0 0
M  V30 END ATOM
M  V30 BEGIN BOND
M  V30 1 1 1 2
M  V30 2 1 1 3
M  V30 3 2 2 4
M  V30 4 1 2 5
M  V30 5 2 3 6
M  V30 6 1 7 3 CFG=3
M  V30 7 1 4 8
M  V30 8 2 5 9
M  V30 9 1 7 10
M  V30 10 1 7 11
M  V30 11 2 8 12
M  V30 12 1 9 13
M  V30 13 1 10 14
M  V30 14 1 11 15
M  V30 15 1 12 16
M  V30 16 1 13 17
M  V30 17 1 18 14
M  V30 18 1 16 19
M  V30 19 1 16 20
M  V30 20 1 16 21
M  V30 21 2 17 22
M  V30 22 1 17 23
M  V30 23 1 18 24 CFG=1
M  V30 24 2 23 25
M  V30 25 1 23 26
M  V30 26 1 25 27
M  V30 27 2 26 28
M  V30 28 2 27 29
M  V30 29 1 27 30
M  V30 30 1 30 31
M  V30 31 1 30 32
M  V30 32 1 30 33
M  V30 33 1 4 6
M  V30 34 1 9 12
M  V30 35 1 15 18
M  V30 36 1 28 29
M  V30 END BOND
M  V30 BEGIN COLLECTION
M  V30 MDLV30/STEABS ATOMS=(2 7 18)
M  V30 END COLLECTION
M  V30 END CTAB
M  END
>  <Molecule Name>
Compound 1122

>  <Molecule Name 2>
Compound 1122

>  <Compound ID>
383

>  <Name>
KT-413 (Zomiradomide)

>  <Uniprot>


>  <Target>


>  <Smiles>
C[C@H](CC1)CC[C@@H]1c1nc(cc(C(C)(C)O)c(NC(c2nc(C(F)(F)F)ccc2)=O)c2)c2s1

>  <Kd (nM)>


>  <Assay (Kd)>


>  <Ki (nM)>


>  <Assay (Ki)>


>  <IC50 (nM)>


>  <Assay (IC50)>


>  <EC50 (nM)>


>  <Assay (EC50)>


>  <Article DOI>


>  <Molecular Weight>


>  <Exact Mass>


>  <XLogP3>


>  <Heavy Atom Count>


>  <Ring Count>


>  <Hydrogen Bond Acceptor Count>


>  <Hydrogen Bond Donor Count>


>  <Rotatable Bond Count>


>  <Topological Polar Surface Area>


>  <Molecular Formula>


>  <InChI>


>  <InChI Key>


>  <BindingDB>


>  <PubChem>


>  <ChEMBL>


$$$$
384
Actelion Java MolfileCreator 2.0

  0  0  0  0  0  0              0 V3000
M  V30 BEGIN CTAB
M  V30 COUNTS 34 39 0 0 0
M  V30 BEGIN ATOM
M  V30 1 F 2.9763 -2.054 0.0 0
M  V30 2 C 3.7195 -1.3848 0.0 0
M  V30 3 F 4.6705 -1.6939 0.0 0
M  V30 4 C 3.5116 -0.4067 0.0 0
M  V30 5 N 4.1807 0.3364 0.0 0
M  V30 6 C 2.598 0.0 0.0 0
M  V30 7 N 3.6807 1.2024 0.0 0
M  V30 8 N 1.732 -0.5 0.0 0
M  V30 9 C 2.7026 0.9945 0.0 0
M  V30 10 C 4.0874 2.1159 0.0 0 CFG=1
M  V30 11 C 0.866 0.0 0.0 0
M  V30 12 C 5.082 2.2205 0.0 0
M  V30 13 C 3.4997 2.9249 0.0 0
M  V30 14 O 0.866 1.0 0.0 0
M  V30 15 C 0.0 -0.5 0.0 0
M  V30 16 C 5.4887 3.134 0.0 0
M  V30 17 C 3.9064 3.8385 0.0 0
M  V30 18 C -0.9135 -0.0932 0.0 0
M  V30 19 C -0.1045 -1.4945 0.0 0
M  V30 20 C 4.9009 3.943 0.0 0 CFG=1
M  V30 21 N -1.2225 0.8577 0.0 0
M  V30 22 N -1.5826 -0.8364 0.0 0
M  V30 23 N -1.0826 -1.7024 0.0 0
M  V30 24 C 5.3076 4.8566 0.0 0
M  V30 25 C -2.2007 1.0657 0.0 0
M  V30 26 C -2.5608 -0.6284 0.0 0
M  V30 27 N -2.5097 2.0167 0.0 0
M  V30 28 C -2.8698 0.3225 0.0 0
M  V30 29 C -1.9219 2.8257 0.0 0 CFG=1
M  V30 30 C -3.4607 2.3257 0.0 0
M  V30 31 C -1.8008 4.1984 0.0 0
M  V30 32 C -2.5097 3.6347 0.0 0
M  V30 33 C -3.4607 3.3257 0.0 0 CFG=1
M  V30 34 O -2.7519 4.5074 0.0 0
M  V30 END ATOM
M  V30 BEGIN BOND
M  V30 1 1 1 2
M  V30 2 1 2 3
M  V30 3 1 2 4
M  V30 4 2 4 5
M  V30 5 1 4 6
M  V30 6 1 5 7
M  V30 7 1 6 8
M  V30 8 2 6 9
M  V30 9 1 10 7 CFG=3
M  V30 10 1 8 11
M  V30 11 1 10 12
M  V30 12 1 10 13
M  V30 13 2 11 14
M  V30 14 1 11 15
M  V30 15 1 12 16
M  V30 16 1 13 17
M  V30 17 2 15 18
M  V30 18 1 15 19
M  V30 19 1 20 16
M  V30 20 1 18 21
M  V30 21 1 18 22
M  V30 22 2 19 23
M  V30 23 1 20 24 CFG=1
M  V30 24 2 21 25
M  V30 25 1 22 26
M  V30 26 1 25 27
M  V30 27 1 25 28
M  V30 28 1 29 27 CFG=3
M  V30 29 1 27 30
M  V30 30 1 29 31
M  V30 31 1 29 32
M  V30 32 1 33 30
M  V30 33 1 31 34
M  V30 34 1 7 9
M  V30 35 1 17 20
M  V30 36 1 22 23
M  V30 37 2 26 28
M  V30 38 1 32 33
M  V30 39 1 33 34 CFG=3
M  V30 END BOND
M  V30 BEGIN COLLECTION
M  V30 MDLV30/STEABS ATOMS=(4 10 20 29 33)
M  V30 END COLLECTION
M  V30 END CTAB
M  END
>  <Molecule Name>
Compound 1123

>  <Molecule Name 2>
Compound 1123

>  <Compound ID>
384

>  <Name>
KT-474 (SAR444656)

>  <Uniprot>


>  <Target>


>  <Smiles>
C[C@H](CC1)CC[C@@H]1n1nc(C(F)F)c(NC(c(cnn2cc3)c2nc3N2[C@H](C3)CO[C@H]3C2)=O)c1

>  <Kd (nM)>


>  <Assay (Kd)>


>  <Ki (nM)>


>  <Assay (Ki)>


>  <IC50 (nM)>


>  <Assay (IC50)>


>  <EC50 (nM)>


>  <Assay (EC50)>


>  <Article DOI>


>  <Molecular Weight>


>  <Exact Mass>


>  <XLogP3>


>  <Heavy Atom Count>


>  <Ring Count>


>  <Hydrogen Bond Acceptor Count>


>  <Hydrogen Bond Donor Count>


>  <Rotatable Bond Count>


>  <Topological Polar Surface Area>


>  <Molecular Formula>


>  <InChI>


>  <InChI Key>


>  <BindingDB>


>  <PubChem>


>  <ChEMBL>


$$$$
385
Actelion Java MolfileCreator 2.0

  0  0  0  0  0  0              0 V3000
M  V30 BEGIN CTAB
M  V30 COUNTS 15 16 0 0 0
M  V30 BEGIN ATOM
M  V30 1 O 2.598 -0.75 0.0 0
M  V30 2 C 1.299 0.0 0.0 0
M  V30 3 N 1.299 1.5 0.0 0
M  V30 4 C 0.0 -0.75 0.0 0
M  V30 5 N -1.299 0.0 0.0 0
M  V30 6 C 0.0 -2.25 0.0 0
M  V30 7 C -2.598 -0.7499 0.0 0
M  V30 8 N -1.299 -2.9999 0.0 0
M  V30 9 C -2.598 -2.2499 0.0 0
M  V30 10 N -3.8971 -2.9999 0.0 0
M  V30 11 C -5.1961 -2.2499 0.0 0
M  V30 12 C -3.8971 -4.4999 0.0 0
M  V30 13 C -6.4951 -2.9999 0.0 0
M  V30 14 C -5.1961 -5.2499 0.0 0
M  V30 15 C -6.4951 -4.4999 0.0 0
M  V30 END ATOM
M  V30 BEGIN BOND
M  V30 1 2 1 2
M  V30 2 1 2 3
M  V30 3 1 2 4
M  V30 4 2 4 5
M  V30 5 1 4 6
M  V30 6 1 5 7
M  V30 7 2 6 8
M  V30 8 2 7 9
M  V30 9 1 9 10
M  V30 10 1 10 11
M  V30 11 1 10 12
M  V30 12 1 11 13
M  V30 13 1 12 14
M  V30 14 1 13 15
M  V30 15 1 8 9
M  V30 16 1 14 15
M  V30 END BOND
M  V30 END CTAB
M  END
>  <Molecule Name>
Compound 1124

>  <Molecule Name 2>
Compound 1124

>  <Compound ID>
385

>  <Name>
NX-2127

>  <Uniprot>


>  <Target>


>  <Smiles>
NC(c1ncc(N2CCCCC2)nc1)=O

>  <Kd (nM)>


>  <Assay (Kd)>


>  <Ki (nM)>


>  <Assay (Ki)>


>  <IC50 (nM)>


>  <Assay (IC50)>


>  <EC50 (nM)>


>  <Assay (EC50)>


>  <Article DOI>


>  <Molecular Weight>


>  <Exact Mass>


>  <XLogP3>


>  <Heavy Atom Count>


>  <Ring Count>


>  <Hydrogen Bond Acceptor Count>


>  <Hydrogen Bond Donor Count>


>  <Rotatable Bond Count>


>  <Topological Polar Surface Area>


>  <Molecular Formula>


>  <InChI>


>  <InChI Key>


>  <BindingDB>


>  <PubChem>


>  <ChEMBL>


$$$$
386
Actelion Java MolfileCreator 2.0

  0  0  0  0  0  0              0 V3000
M  V30 BEGIN CTAB
M  V30 COUNTS 29 32 0 0 0
M  V30 BEGIN ATOM
M  V30 1 O 3.436 2.7787 0.0 0
M  V30 2 C 4.3871 3.0877 0.0 0
M  V30 3 N 5.1961 2.4999 0.0 0
M  V30 4 N 4.6961 4.0388 0.0 0
M  V30 5 C 5.1961 1.4999 0.0 0 CFG=1
M  V30 6 C 6.0051 3.0877 0.0 0
M  V30 7 C 5.6961 4.0388 0.0 0
M  V30 8 C 4.1083 4.8478 0.0 0
M  V30 9 C 4.3301 0.9999 0.0 0
M  V30 10 C 6.0621 1.0 0.0 0
M  V30 11 N 4.3301 0.0 0.0 0
M  V30 12 C 6.0621 0.0 0.0 0
M  V30 13 C 3.4641 -0.5 0.0 0
M  V30 14 C 5.1961 -0.5 0.0 0
M  V30 15 N 2.598 0.0 0.0 0
M  V30 16 C 3.4641 -1.4999 0.0 0
M  V30 17 C 1.732 -0.5 0.0 0
M  V30 18 N 2.598 -2.0 0.0 0
M  V30 19 N 0.866 0.0 0.0 0
M  V30 20 C 1.732 -1.5 0.0 0
M  V30 21 C 0.866 0.9999 0.0 0
M  V30 22 C 0.866 -1.9999 0.0 0
M  V30 23 C 0.0 1.4999 0.0 0
M  V30 24 C 1.732 1.5 0.0 0
M  V30 25 O 0.0 -1.4999 0.0 0
M  V30 26 N 0.866 -2.9999 0.0 0
M  V30 27 C 0.0 2.4999 0.0 0
M  V30 28 C 1.732 2.5 0.0 0
M  V30 29 C 0.866 3.0 0.0 0
M  V30 END ATOM
M  V30 BEGIN BOND
M  V30 1 2 1 2
M  V30 2 1 2 3
M  V30 3 1 2 4
M  V30 4 1 5 3 CFG=3
M  V30 5 1 3 6
M  V30 6 1 4 7
M  V30 7 1 4 8
M  V30 8 1 5 9
M  V30 9 1 5 10
M  V30 10 1 9 11
M  V30 11 1 10 12
M  V30 12 1 11 13
M  V30 13 1 11 14
M  V30 14 2 13 15
M  V30 15 1 13 16
M  V30 16 1 15 17
M  V30 17 2 16 18
M  V30 18 1 17 19
M  V30 19 2 17 20
M  V30 20 1 19 21
M  V30 21 1 20 22
M  V30 22 2 21 23
M  V30 23 1 21 24
M  V30 24 2 22 25
M  V30 25 1 22 26
M  V30 26 1 23 27
M  V30 27 2 24 28
M  V30 28 2 27 29
M  V30 29 1 6 7
M  V30 30 1 12 14
M  V30 31 1 18 20
M  V30 32 1 28 29
M  V30 END BOND
M  V30 BEGIN COLLECTION
M  V30 MDLV30/STEABS ATOMS=(1 5)
M  V30 END COLLECTION
M  V30 END CTAB
M  END
>  <Molecule Name>
Compound 1125

>  <Molecule Name 2>
Compound 1125

>  <Compound ID>
386

>  <Name>
NX-5948 (Bexobrutideg)

>  <Uniprot>


>  <Target>


>  <Smiles>
CN(CCN1[C@H](CCC2)CN2c2nc(Nc3ccccc3)c(C(N)=O)nc2)C1=O

>  <Kd (nM)>


>  <Assay (Kd)>


>  <Ki (nM)>


>  <Assay (Ki)>


>  <IC50 (nM)>


>  <Assay (IC50)>


>  <EC50 (nM)>


>  <Assay (EC50)>


>  <Article DOI>


>  <Molecular Weight>


>  <Exact Mass>


>  <XLogP3>


>  <Heavy Atom Count>


>  <Ring Count>


>  <Hydrogen Bond Acceptor Count>


>  <Hydrogen Bond Donor Count>


>  <Rotatable Bond Count>


>  <Topological Polar Surface Area>


>  <Molecular Formula>


>  <InChI>


>  <InChI Key>


>  <BindingDB>


>  <PubChem>


>  <ChEMBL>


$$$$
387
Actelion Java MolfileCreator 2.0

  0  0  0  0  0  0              0 V3000
M  V30 BEGIN CTAB
M  V30 COUNTS 21 24 0 0 0
M  V30 BEGIN ATOM
M  V30 1 O 0.866 0.0 0.0 0
M  V30 2 C 0.0 -0.5 0.0 0
M  V30 3 C -0.866 0.0 0.0 0
M  V30 4 C 0.0 -1.4999 0.0 0
M  V30 5 C -0.866 1.0 0.0 0
M  V30 6 C -1.732 -0.4999 0.0 0
M  V30 7 C -0.866 -1.9999 0.0 0
M  V30 8 N 0.0 1.4999 0.0 0
M  V30 9 C -1.732 1.5 0.0 0
M  V30 10 C -1.732 -1.4999 0.0 0
M  V30 11 N 0.0 2.4999 0.0 0
M  V30 12 C -1.732 2.5 0.0 0
M  V30 13 C -0.866 3.0 0.0 0
M  V30 14 N -2.598 3.0 0.0 0
M  V30 15 N -0.866 4.0 0.0 0
M  V30 16 C -2.598 4.0 0.0 0 CFG=1
M  V30 17 C -3.4641 2.5 0.0 0
M  V30 18 C -1.732 4.5 0.0 0
M  V30 19 C -3.4641 4.5 0.0 0
M  V30 20 C -4.3301 3.0 0.0 0
M  V30 21 N -4.3301 4.0 0.0 0
M  V30 END ATOM
M  V30 BEGIN BOND
M  V30 1 1 1 2
M  V30 2 2 2 3
M  V30 3 1 2 4
M  V30 4 1 3 5
M  V30 5 1 3 6
M  V30 6 2 4 7
M  V30 7 2 5 8
M  V30 8 1 5 9
M  V30 9 2 6 10
M  V30 10 1 8 11
M  V30 11 2 9 12
M  V30 12 2 11 13
M  V30 13 1 12 14
M  V30 14 1 13 15
M  V30 15 1 16 14 CFG=3
M  V30 16 1 14 17
M  V30 17 1 15 18
M  V30 18 1 16 19
M  V30 19 1 17 20
M  V30 20 1 19 21
M  V30 21 1 7 10
M  V30 22 1 12 13
M  V30 23 1 16 18
M  V30 24 1 20 21
M  V30 END BOND
M  V30 BEGIN COLLECTION
M  V30 MDLV30/STEABS ATOMS=(1 16)
M  V30 END COLLECTION
M  V30 END CTAB
M  END
>  <Molecule Name>
Compound 1126

>  <Molecule Name 2>
Compound 1126

>  <Compound ID>
387

>  <Name>
PRT3789

>  <Uniprot>


>  <Target>


>  <Smiles>
Oc(cccc1)c1-c1nnc2NC[C@@H](CNCC3)N3c2c1

>  <Kd (nM)>


>  <Assay (Kd)>


>  <Ki (nM)>


>  <Assay (Ki)>


>  <IC50 (nM)>


>  <Assay (IC50)>


>  <EC50 (nM)>


>  <Assay (EC50)>


>  <Article DOI>


>  <Molecular Weight>


>  <Exact Mass>


>  <XLogP3>


>  <Heavy Atom Count>


>  <Ring Count>


>  <Hydrogen Bond Acceptor Count>


>  <Hydrogen Bond Donor Count>


>  <Rotatable Bond Count>


>  <Topological Polar Surface Area>


>  <Molecular Formula>


>  <InChI>


>  <InChI Key>


>  <BindingDB>


>  <PubChem>


>  <ChEMBL>


$$$$
388
Actelion Java MolfileCreator 2.0

  0  0  0  0  0  0              0 V3000
M  V30 BEGIN CTAB
M  V30 COUNTS 32 36 0 0 0
M  V30 BEGIN ATOM
M  V30 1 Cl 10.6508 -4.8011 0.0 0
M  V30 2 C 9.6306 -3.7015 0.0 0
M  V30 3 C 10.0727 -2.2682 0.0 0
M  V30 4 C 8.1682 -4.0353 0.0 0
M  V30 5 C 9.0524 -1.1686 0.0 0
M  V30 6 C 7.1479 -2.9357 0.0 0
M  V30 7 C 7.59 -1.5024 0.0 0
M  V30 8 C 6.5698 -0.4028 0.0 0
M  V30 9 N 5.1364 -0.8449 0.0 0
M  V30 10 C 7.1178 0.9934 0.0 0
M  V30 11 C 3.8971 0.0 0.0 0 CFG=2
M  V30 12 C 6.3678 2.2925 0.0 0
M  V30 13 C 8.585 1.3053 0.0 0
M  V30 14 C 3.785 1.4958 0.0 0
M  V30 15 C 2.598 -0.75 0.0 0
M  V30 16 S 7.3715 3.4072 0.0 0
M  V30 17 N 4.8845 2.516 0.0 0
M  V30 18 C 8.7418 2.7971 0.0 0
M  V30 19 C 9.6997 0.3016 0.0 0
M  V30 20 N 2.4749 2.2262 0.0 0
M  V30 21 C 1.299 0.0 0.0 0
M  V30 22 C 4.254 3.8771 0.0 0
M  V30 23 C 10.0408 3.5471 0.0 0
M  V30 24 N 2.7647 3.698 0.0 0
M  V30 25 O 1.299 1.5 0.0 0
M  V30 26 N 0.0 -0.75 0.0 0
M  V30 27 C 4.9845 5.1872 0.0 0
M  V30 28 C -1.299 0.0 0.0 0
M  V30 29 C 0.0 -2.25 0.0 0
M  V30 30 C -2.598 -0.7499 0.0 0
M  V30 31 C -1.299 -2.9999 0.0 0
M  V30 32 C -2.598 -2.2499 0.0 0
M  V30 END ATOM
M  V30 BEGIN BOND
M  V30 1 1 1 2
M  V30 2 2 2 3
M  V30 3 1 2 4
M  V30 4 1 3 5
M  V30 5 2 4 6
M  V30 6 2 5 7
M  V30 7 1 7 8
M  V30 8 2 8 9
M  V30 9 1 8 10
M  V30 10 1 11 9
M  V30 11 2 10 12
M  V30 12 1 10 13
M  V30 13 1 11 14
M  V30 14 1 11 15 CFG=1
M  V30 15 1 12 16
M  V30 16 1 12 17
M  V30 17 2 13 18
M  V30 18 1 13 19
M  V30 19 2 14 20
M  V30 20 1 15 21
M  V30 21 1 17 22
M  V30 22 1 18 23
M  V30 23 1 20 24
M  V30 24 2 21 25
M  V30 25 1 21 26
M  V30 26 1 22 27
M  V30 27 1 26 28
M  V30 28 1 26 29
M  V30 29 1 28 30
M  V30 30 1 29 31
M  V30 31 1 30 32
M  V30 32 1 6 7
M  V30 33 1 14 17
M  V30 34 1 16 18
M  V30 35 2 22 24
M  V30 36 1 31 32
M  V30 END BOND
M  V30 BEGIN COLLECTION
M  V30 MDLV30/STEABS ATOMS=(1 11)
M  V30 END COLLECTION
M  V30 END CTAB
M  END
>  <Molecule Name>
Compound 1127

>  <Molecule Name 2>
Compound 1127

>  <Compound ID>
388

>  <Name>
RNK-05047

>  <Uniprot>


>  <Target>


>  <Smiles>
Cc1c(C)sc-2c1C(c(cc1)ccc1Cl)=N[C@@H](CC(N1CCCCC1)=O)c1nnc(C)n12

>  <Kd (nM)>


>  <Assay (Kd)>


>  <Ki (nM)>


>  <Assay (Ki)>


>  <IC50 (nM)>


>  <Assay (IC50)>


>  <EC50 (nM)>


>  <Assay (EC50)>


>  <Article DOI>


>  <Molecular Weight>


>  <Exact Mass>


>  <XLogP3>


>  <Heavy Atom Count>


>  <Ring Count>


>  <Hydrogen Bond Acceptor Count>


>  <Hydrogen Bond Donor Count>


>  <Rotatable Bond Count>


>  <Topological Polar Surface Area>


>  <Molecular Formula>


>  <InChI>


>  <InChI Key>


>  <BindingDB>


>  <PubChem>


>  <ChEMBL>


$$$$
389
Actelion Java MolfileCreator 2.0

  0  0  0  0  0  0              0 V3000
M  V30 BEGIN CTAB
M  V30 COUNTS 20 22 0 0 0
M  V30 BEGIN ATOM
M  V30 1 O 0.866 0.0 0.0 0
M  V30 2 C 0.0 -0.5 0.0 0
M  V30 3 C -0.866 0.0 0.0 0
M  V30 4 C 0.0 -1.4999 0.0 0
M  V30 5 C -0.866 1.0 0.0 0
M  V30 6 C -1.732 -0.4999 0.0 0
M  V30 7 C -0.866 -1.9999 0.0 0
M  V30 8 N 0.0 1.4999 0.0 0
M  V30 9 C -1.732 1.5 0.0 0
M  V30 10 C -1.732 -1.4999 0.0 0
M  V30 11 N 0.0 2.4999 0.0 0
M  V30 12 C -1.732 2.5 0.0 0
M  V30 13 C -0.866 3.0 0.0 0
M  V30 14 N -2.598 3.0 0.0 0
M  V30 15 N -0.866 4.0 0.0 0
M  V30 16 C -2.598 4.0 0.0 0
M  V30 17 C -3.4641 2.5 0.0 0
M  V30 18 C -3.4641 4.5 0.0 0
M  V30 19 C -4.3301 3.0 0.0 0
M  V30 20 N -4.3301 4.0 0.0 0
M  V30 END ATOM
M  V30 BEGIN BOND
M  V30 1 1 1 2
M  V30 2 2 2 3
M  V30 3 1 2 4
M  V30 4 1 3 5
M  V30 5 1 3 6
M  V30 6 2 4 7
M  V30 7 2 5 8
M  V30 8 1 5 9
M  V30 9 2 6 10
M  V30 10 1 8 11
M  V30 11 2 9 12
M  V30 12 2 11 13
M  V30 13 1 12 14
M  V30 14 1 13 15
M  V30 15 1 14 16
M  V30 16 1 14 17
M  V30 17 1 16 18
M  V30 18 1 17 19
M  V30 19 1 18 20
M  V30 20 1 7 10
M  V30 21 1 12 13
M  V30 22 1 19 20
M  V30 END BOND
M  V30 END CTAB
M  END
>  <Molecule Name>
Compound 1128

>  <Molecule Name 2>
Compound 1128

>  <Compound ID>
389

>  <Name>
ACBI1

>  <Uniprot>


>  <Target>


>  <Smiles>
Nc(c(N1CCNCC1)c1)nnc1-c(cccc1)c1O

>  <Kd (nM)>


>  <Assay (Kd)>


>  <Ki (nM)>


>  <Assay (Ki)>


>  <IC50 (nM)>


>  <Assay (IC50)>


>  <EC50 (nM)>


>  <Assay (EC50)>


>  <Article DOI>


>  <Molecular Weight>


>  <Exact Mass>


>  <XLogP3>


>  <Heavy Atom Count>


>  <Ring Count>


>  <Hydrogen Bond Acceptor Count>


>  <Hydrogen Bond Donor Count>


>  <Rotatable Bond Count>


>  <Topological Polar Surface Area>


>  <Molecular Formula>


>  <InChI>


>  <InChI Key>


>  <BindingDB>


>  <PubChem>


>  <ChEMBL>


$$$$
390
Actelion Java MolfileCreator 2.0

  0  0  0  0  0  0              0 V3000
M  V30 BEGIN CTAB
M  V30 COUNTS 30 35 0 0 0
M  V30 BEGIN ATOM
M  V30 1 Br 1.2284 4.5908 0.0 0
M  V30 2 C 1.8976 3.8476 0.0 0
M  V30 3 C 1.5885 2.8966 0.0 0
M  V30 4 C 2.8757 4.0556 0.0 0
M  V30 5 C 0.6104 2.6887 0.0 0
M  V30 6 C 2.2577 2.1534 0.0 0
M  V30 7 C 3.5448 3.3124 0.0 0
M  V30 8 O -0.0586 3.4318 0.0 0
M  V30 9 N 0.3014 1.7376 0.0 0
M  V30 10 N 1.9487 1.2024 0.0 0
M  V30 11 C 3.2358 2.3614 0.0 0
M  V30 12 C 0.9705 0.9945 0.0 0
M  V30 13 C 2.4487 0.3364 0.0 0
M  V30 14 N 0.866 0.0 0.0 0
M  V30 15 C 1.7795 -0.4067 0.0 0
M  V30 16 C 3.4268 0.1284 0.0 0
M  V30 17 C 0.0 -0.5 0.0 0
M  V30 18 C 2.0885 -1.3577 0.0 0
M  V30 19 C 3.7358 -0.8225 0.0 0
M  V30 20 C -0.9135 -0.0932 0.0 0
M  V30 21 C -0.1045 -1.4945 0.0 0
M  V30 22 C 3.0667 -1.5657 0.0 0
M  V30 23 C -1.5826 -0.8364 0.0 0
M  V30 24 C -1.0826 -1.7024 0.0 0
M  V30 25 C 3.3757 -2.5167 0.0 0
M  V30 26 C 2.7066 -3.2599 0.0 0
M  V30 27 C 4.3539 -2.7246 0.0 0
M  V30 28 C 3.0156 -4.2109 0.0 0
M  V30 29 C 4.6629 -3.6757 0.0 0
M  V30 30 N 3.9937 -4.4188 0.0 0
M  V30 END ATOM
M  V30 BEGIN BOND
M  V30 1 1 1 2
M  V30 2 2 2 3
M  V30 3 1 2 4
M  V30 4 1 3 5
M  V30 5 1 3 6
M  V30 6 2 4 7
M  V30 7 2 5 8
M  V30 8 1 5 9
M  V30 9 1 6 10
M  V30 10 2 6 11
M  V30 11 2 9 12
M  V30 12 1 10 13
M  V30 13 1 12 14
M  V30 14 2 13 15
M  V30 15 1 13 16
M  V30 16 1 14 17
M  V30 17 1 15 18
M  V30 18 2 16 19
M  V30 19 1 17 20
M  V30 20 1 17 21
M  V30 21 2 18 22
M  V30 22 1 20 23
M  V30 23 1 21 24
M  V30 24 1 22 25
M  V30 25 1 25 26
M  V30 26 1 25 27
M  V30 27 1 26 28
M  V30 28 1 27 29
M  V30 29 1 28 30
M  V30 30 1 7 11
M  V30 31 1 10 12
M  V30 32 1 14 15
M  V30 33 1 19 22
M  V30 34 1 23 24
M  V30 35 1 29 30
M  V30 END BOND
M  V30 END CTAB
M  END
>  <Molecule Name>
Compound 1129

>  <Molecule Name 2>
Compound 1129

>  <Compound ID>
390

>  <Name>
ACBI2

>  <Uniprot>


>  <Target>


>  <Smiles>
O=C1N=C(N(C2CCCC2)c2c3ccc(C4CCNCC4)c2)N3c2cccc(Br)c12

>  <Kd (nM)>


>  <Assay (Kd)>


>  <Ki (nM)>


>  <Assay (Ki)>


>  <IC50 (nM)>


>  <Assay (IC50)>


>  <EC50 (nM)>


>  <Assay (EC50)>


>  <Article DOI>


>  <Molecular Weight>


>  <Exact Mass>


>  <XLogP3>


>  <Heavy Atom Count>


>  <Ring Count>


>  <Hydrogen Bond Acceptor Count>


>  <Hydrogen Bond Donor Count>


>  <Rotatable Bond Count>


>  <Topological Polar Surface Area>


>  <Molecular Formula>


>  <InChI>


>  <InChI Key>


>  <BindingDB>


>  <PubChem>


>  <ChEMBL>


$$$$
391
Actelion Java MolfileCreator 2.0

  0  0  0  0  0  0              0 V3000
M  V30 BEGIN CTAB
M  V30 COUNTS 32 36 0 0 0
M  V30 BEGIN ATOM
M  V30 1 S 0.9705 0.9945 0.0 0
M  V30 2 C 0.866 0.0 0.0 0
M  V30 3 C 1.9487 1.2024 0.0 0
M  V30 4 N 0.0 -0.5 0.0 0
M  V30 5 C 1.7795 -0.4067 0.0 0
M  V30 6 C 2.4487 0.3364 0.0 0
M  V30 7 C 2.4487 2.0684 0.0 0
M  V30 8 C 1.9874 -1.3848 0.0 0
M  V30 9 C 3.4487 0.3364 0.0 0 CFG=1
M  V30 10 C 3.4487 2.0684 0.0 0
M  V30 11 N 2.1953 -2.363 0.0 0
M  V30 12 C 3.9487 -0.5296 0.0 0
M  V30 13 C 3.9487 1.2024 0.0 0
M  V30 14 C 2.9487 -0.5296 0.0 0
M  V30 15 O 3.5419 -1.4431 0.0 0
M  V30 16 N 4.9432 -0.6341 0.0 0
M  V30 17 N 4.2851 -2.1122 0.0 0
M  V30 18 C 5.1511 -1.6122 0.0 0
M  V30 19 C 6.0646 -2.019 0.0 0
M  V30 20 N 6.1692 -3.0135 0.0 0
M  V30 21 C 6.8736 -1.4312 0.0 0
M  V30 22 C 7.0827 -3.4202 0.0 0
M  V30 23 C 7.7872 -1.8379 0.0 0
M  V30 24 N 7.8917 -2.8325 0.0 0
M  V30 25 N 7.1872 -4.4148 0.0 0
M  V30 26 C 6.3366 -4.9404 0.0 0 CFG=2
M  V30 27 C 8.1286 -4.7521 0.0 0
M  V30 28 C 6.2172 -5.9333 0.0 0
M  V30 29 C 5.4938 -4.4021 0.0 0
M  V30 30 C 8.4518 -5.6984 0.0 0
M  V30 31 N 6.919 -6.6457 0.0 0
M  V30 32 C 7.9135 -6.5411 0.0 0
M  V30 END ATOM
M  V30 BEGIN BOND
M  V30 1 1 1 2
M  V30 2 1 1 3
M  V30 3 1 2 4
M  V30 4 2 2 5
M  V30 5 2 3 6
M  V30 6 1 3 7
M  V30 7 1 5 8
M  V30 8 1 9 6
M  V30 9 1 7 10
M  V30 10 3 8 11
M  V30 11 1 9 12
M  V30 12 1 9 13
M  V30 13 1 9 14 CFG=1
M  V30 14 1 12 15
M  V30 15 2 12 16
M  V30 16 1 15 17
M  V30 17 1 16 18
M  V30 18 1 18 19
M  V30 19 2 19 20
M  V30 20 1 19 21
M  V30 21 1 20 22
M  V30 22 2 21 23
M  V30 23 2 22 24
M  V30 24 1 22 25
M  V30 25 1 26 25
M  V30 26 1 25 27
M  V30 27 1 26 28
M  V30 28 1 26 29 CFG=3
M  V30 29 1 27 30
M  V30 30 1 28 31
M  V30 31 1 30 32
M  V30 32 1 5 6
M  V30 33 1 10 13
M  V30 34 2 17 18
M  V30 35 1 23 24
M  V30 36 1 31 32
M  V30 END BOND
M  V30 BEGIN COLLECTION
M  V30 MDLV30/STEABS ATOMS=(2 9 26)
M  V30 END COLLECTION
M  V30 END CTAB
M  END
>  <Molecule Name>
Compound 1130

>  <Molecule Name 2>
Compound 1130

>  <Compound ID>
391

>  <Name>
ACBI3

>  <Uniprot>


>  <Target>


>  <Smiles>
C[C@@H](CNCCC1)N1c1nccc(-c2noc([C@@](C)(CCC3)c4c3sc(N)c4C#N)n2)n1

>  <Kd (nM)>


>  <Assay (Kd)>


>  <Ki (nM)>


>  <Assay (Ki)>


>  <IC50 (nM)>


>  <Assay (IC50)>


>  <EC50 (nM)>


>  <Assay (EC50)>


>  <Article DOI>


>  <Molecular Weight>


>  <Exact Mass>


>  <XLogP3>


>  <Heavy Atom Count>


>  <Ring Count>


>  <Hydrogen Bond Acceptor Count>


>  <Hydrogen Bond Donor Count>


>  <Rotatable Bond Count>


>  <Topological Polar Surface Area>


>  <Molecular Formula>


>  <InChI>


>  <InChI Key>


>  <BindingDB>


>  <PubChem>


>  <ChEMBL>


$$$$
392
Actelion Java MolfileCreator 2.0

  0  0  0  0  0  0              0 V3000
M  V30 BEGIN CTAB
M  V30 COUNTS 32 35 0 0 0
M  V30 BEGIN ATOM
M  V30 1 O 0.866 1.0 0.0 0
M  V30 2 C 1.732 1.5 0.0 0
M  V30 3 N 1.732 2.5 0.0 0
M  V30 4 C 2.598 1.0 0.0 0
M  V30 5 C 2.598 3.0 0.0 0 CFG=1
M  V30 6 C 2.598 0.0 0.0 0
M  V30 7 C 3.4641 1.4999 0.0 0
M  V30 8 C 2.598 4.0 0.0 0
M  V30 9 C 3.4641 2.5 0.0 0
M  V30 10 N 1.732 -0.5 0.0 0
M  V30 11 C 3.4641 -0.5 0.0 0
M  V30 12 N 4.3301 1.0 0.0 0
M  V30 13 C 3.4641 4.5 0.0 0
M  V30 14 C 4.3301 3.0 0.0 0
M  V30 15 C 1.732 -1.5 0.0 0
M  V30 16 C 4.3301 0.0 0.0 0
M  V30 17 C 4.3301 3.9999 0.0 0 CFG=1
M  V30 18 C 2.598 -2.0 0.0 0
M  V30 19 C 0.866 -2.0 0.0 0
M  V30 20 N 5.1961 -0.5 0.0 0
M  V30 21 C 5.1961 4.5 0.0 0
M  V30 22 C 5.3006 -1.4945 0.0 0
M  V30 23 C 6.1096 -0.0932 0.0 0
M  V30 24 O 6.0621 3.9999 0.0 0
M  V30 25 N 4.6315 -2.2376 0.0 0
M  V30 26 C 6.2788 -1.7024 0.0 0
M  V30 27 C 6.7788 -0.8364 0.0 0
M  V30 28 C 4.9405 -3.1887 0.0 0
M  V30 29 C 6.5878 -2.6534 0.0 0
M  V30 30 C 5.9187 -3.3966 0.0 0
M  V30 31 C 6.2277 -4.3476 0.0 0
M  V30 32 N 6.5367 -5.2987 0.0 0
M  V30 END ATOM
M  V30 BEGIN BOND
M  V30 1 2 1 2
M  V30 2 1 2 3
M  V30 3 1 2 4
M  V30 4 1 5 3 CFG=1
M  V30 5 2 4 6
M  V30 6 1 4 7
M  V30 7 1 5 8
M  V30 8 1 5 9
M  V30 9 1 6 10
M  V30 10 1 6 11
M  V30 11 2 7 12
M  V30 12 1 8 13
M  V30 13 1 9 14
M  V30 14 1 10 15
M  V30 15 2 11 16
M  V30 16 1 17 13
M  V30 17 1 15 18
M  V30 18 1 15 19
M  V30 19 1 16 20
M  V30 20 1 17 21 CFG=3
M  V30 21 1 20 22
M  V30 22 1 20 23
M  V30 23 2 21 24
M  V30 24 2 22 25
M  V30 25 1 22 26
M  V30 26 2 23 27
M  V30 27 1 25 28
M  V30 28 2 26 29
M  V30 29 2 28 30
M  V30 30 1 30 31
M  V30 31 3 31 32
M  V30 32 1 12 16
M  V30 33 1 14 17
M  V30 34 1 26 27
M  V30 35 1 29 30
M  V30 END BOND
M  V30 BEGIN COLLECTION
M  V30 MDLV30/STEABS ATOMS=(2 5 17)
M  V30 END COLLECTION
M  V30 END CTAB
M  END
>  <Molecule Name>
Compound 1131

>  <Molecule Name 2>
Compound 1131

>  <Compound ID>
392

>  <Name>
IRAK4 degrader

>  <Uniprot>


>  <Target>


>  <Smiles>
CC(C)Nc(cc(-n(ccc1c2)c1ncc2C#N)nc1)c1C(N[C@H](CC1)CC[C@@H]1C=O)=O

>  <Kd (nM)>


>  <Assay (Kd)>


>  <Ki (nM)>


>  <Assay (Ki)>


>  <IC50 (nM)>


>  <Assay (IC50)>


>  <EC50 (nM)>


>  <Assay (EC50)>


>  <Article DOI>


>  <Molecular Weight>


>  <Exact Mass>


>  <XLogP3>


>  <Heavy Atom Count>


>  <Ring Count>


>  <Hydrogen Bond Acceptor Count>


>  <Hydrogen Bond Donor Count>


>  <Rotatable Bond Count>


>  <Topological Polar Surface Area>


>  <Molecular Formula>


>  <InChI>


>  <InChI Key>


>  <BindingDB>


>  <PubChem>


>  <ChEMBL>


$$$$

Actelion Java MolfileCreator 2.0

  0  0  0  0  0  0              0 V3000
M  V30 BEGIN CTAB
M  V30 COUNTS 0 0 0 0 0
M  V30 BEGIN ATOM
M  V30 END ATOM
M  V30 BEGIN BOND
M  V30 END BOND
M  V30 END CTAB
M  END
>  <Molecule Name>


>  <Molecule Name 2>


>  <Compound ID>


>  <Name>


>  <Uniprot>


>  <Target>


>  <Smiles>


>  <Kd (nM)>


>  <Assay (Kd)>


>  <Ki (nM)>


>  <Assay (Ki)>


>  <IC50 (nM)>


>  <Assay (IC50)>


>  <EC50 (nM)>


>  <Assay (EC50)>


>  <Article DOI>


>  <Molecular Weight>


>  <Exact Mass>


>  <XLogP3>


>  <Heavy Atom Count>


>  <Ring Count>


>  <Hydrogen Bond Acceptor Count>


>  <Hydrogen Bond Donor Count>


>  <Rotatable Bond Count>


>  <Topological Polar Surface Area>


>  <Molecular Formula>


>  <InChI>


>  <InChI Key>


>  <BindingDB>


>  <PubChem>


>  <ChEMBL>


$$$$
