Compound 1
Actelion Java MolfileCreator 2.0

  0  0  0  0  0  0              0 V3000
M  V30 BEGIN CTAB
M  V30 COUNTS 26 28 0 0 0
M  V30 BEGIN ATOM
M  V30 1 O 0.0 0.0 0.0 0
M  V30 2 C -1.5032 0.0352 0.0 0
M  V30 3 N -2.29 -1.2331 0.0 0
M  V30 4 C -2.2313 1.3505 0.0 0
M  V30 5 C -3.7932 -1.1978 0.0 0
M  V30 6 C -1.5854 -2.5249 0.0 0
M  V30 7 C -3.7345 1.3857 0.0 0
M  V30 8 C -1.4679 2.6423 0.0 0
M  V30 9 C -4.5214 0.1174 0.0 0
M  V30 10 C -4.4626 2.701 0.0 0
M  V30 11 N -2.1961 3.9576 0.0 0
M  V30 12 C -6.0246 0.1526 0.0 0
M  V30 13 C -3.6993 3.9929 0.0 0
M  V30 14 C -6.7527 1.4679 0.0 0
M  V30 15 C -6.8114 -1.1156 0.0 0
M  V30 16 C -8.2559 1.5032 0.0 0
M  V30 17 C -8.3146 -1.0804 0.0 0
M  V30 18 O -8.984 2.8185 0.0 0
M  V30 19 C -9.0428 0.2348 0.0 0
M  V30 20 O -9.1015 -2.3487 0.0 0
M  V30 21 C -8.2207 4.1103 0.0 0
M  V30 22 C -10.546 0.2701 0.0 0
M  V30 23 C -10.6047 -2.3135 0.0 0
M  V30 24 N -11.2741 1.5854 0.0 0
M  V30 25 C -12.7773 1.6206 0.0 0
M  V30 26 C -10.5107 2.8772 0.0 0
M  V30 END ATOM
M  V30 BEGIN BOND
M  V30 1 2 1 2
M  V30 2 1 2 3
M  V30 3 1 2 4
M  V30 4 1 3 5
M  V30 5 1 3 6
M  V30 6 2 4 7
M  V30 7 1 4 8
M  V30 8 2 5 9
M  V30 9 1 7 10
M  V30 10 2 8 11
M  V30 11 1 9 12
M  V30 12 2 10 13
M  V30 13 2 12 14
M  V30 14 1 12 15
M  V30 15 1 14 16
M  V30 16 2 15 17
M  V30 17 1 16 18
M  V30 18 2 16 19
M  V30 19 1 17 20
M  V30 20 1 18 21
M  V30 21 1 19 22
M  V30 22 1 20 23
M  V30 23 1 22 24
M  V30 24 1 24 25
M  V30 25 1 24 26
M  V30 26 1 7 9
M  V30 27 1 11 13
M  V30 28 1 17 19
M  V30 END BOND
M  V30 END CTAB
M  END
>  <Compound ID>
1

>  <Name>
BI-7273

>  <Uniprot>
Q9NPI1

>  <Target>
BRD7

>  <Smiles>
COC1=CC(C2=CN(C)C(=O)C3=CN=CC=C23)=CC(OC)=C1CN(C)C

>  <Kd (nM)>
0.3

>  <Assay (Kd)>
BROMOScan platform of DiscoveRx

>  <Ki (nM)>


>  <Assay (Ki)>


>  <IC50 (nM)>
117

>  <Assay (IC50)>
BRD7 H3 AlphaScreen assay

>  <EC50 (nM)>


>  <Assay (EC50)>


>  <Article DOI>
10.1021/acs.jmedchem.5b01865

>  <Molecular Weight>
353.422

>  <Exact Mass>
353.173941596

>  <XLogP3>
1.4

>  <Heavy Atom Count>
26

>  <Ring Count>
3

>  <Hydrogen Bond Acceptor Count>
6

>  <Hydrogen Bond Donor Count>
0

>  <Rotatable Bond Count>
5

>  <Topological Polar Surface Area>
56.59

>  <Molecular Formula>
C20H23N3O3

>  <InChI>
InChI=1S/C20H23N3O3/c1-22(2)11-17-18(25-4)8-13(9-19(17)26-5)16-12-23(3)20(24)15-10-21-7-6-14(15)16/h6-10,12H,11H2,1-5H3

>  <InChI Key>
RBUYFHLQNPJMQM-UHFFFAOYSA-N

>  <BindingDB>
50183448

>  <PubChem>
118796358

>  <ChEMBL>
CHEMBL3823478

$$$$
Compound 2
Actelion Java MolfileCreator 2.0

  0  0  0  0  0  0              0 V3000
M  V30 BEGIN CTAB
M  V30 COUNTS 26 28 0 0 0
M  V30 BEGIN ATOM
M  V30 1 O 0.0 0.0 0.0 0
M  V30 2 C -1.5032 0.0352 0.0 0
M  V30 3 N -2.29 -1.2331 0.0 0
M  V30 4 C -2.2313 1.3505 0.0 0
M  V30 5 C -3.7932 -1.1978 0.0 0
M  V30 6 C -1.5854 -2.5249 0.0 0
M  V30 7 C -3.7345 1.3857 0.0 0
M  V30 8 C -1.4679 2.6423 0.0 0
M  V30 9 C -4.5214 0.1174 0.0 0
M  V30 10 C -4.4626 2.701 0.0 0
M  V30 11 N -2.1961 3.9576 0.0 0
M  V30 12 C -6.0246 0.1526 0.0 0
M  V30 13 C -3.6993 3.9929 0.0 0
M  V30 14 C -6.7527 1.4679 0.0 0
M  V30 15 C -6.8114 -1.1156 0.0 0
M  V30 16 C -8.2559 1.5032 0.0 0
M  V30 17 C -8.3146 -1.0804 0.0 0
M  V30 18 O -8.984 2.8185 0.0 0
M  V30 19 C -9.0428 0.2348 0.0 0
M  V30 20 O -9.1015 -2.3487 0.0 0
M  V30 21 C -8.2207 4.1103 0.0 0
M  V30 22 C -10.546 0.2701 0.0 0
M  V30 23 C -10.6047 -2.3135 0.0 0
M  V30 24 N -11.2741 1.5854 0.0 0
M  V30 25 C -12.7773 1.6206 0.0 0
M  V30 26 C -10.5107 2.8772 0.0 0
M  V30 END ATOM
M  V30 BEGIN BOND
M  V30 1 2 1 2
M  V30 2 1 2 3
M  V30 3 1 2 4
M  V30 4 1 3 5
M  V30 5 1 3 6
M  V30 6 2 4 7
M  V30 7 1 4 8
M  V30 8 2 5 9
M  V30 9 1 7 10
M  V30 10 2 8 11
M  V30 11 1 9 12
M  V30 12 2 10 13
M  V30 13 2 12 14
M  V30 14 1 12 15
M  V30 15 1 14 16
M  V30 16 2 15 17
M  V30 17 1 16 18
M  V30 18 2 16 19
M  V30 19 1 17 20
M  V30 20 1 18 21
M  V30 21 1 19 22
M  V30 22 1 20 23
M  V30 23 1 22 24
M  V30 24 1 24 25
M  V30 25 1 24 26
M  V30 26 1 7 9
M  V30 27 1 11 13
M  V30 28 1 17 19
M  V30 END BOND
M  V30 END CTAB
M  END
>  <Compound ID>
1

>  <Name>
BI-7273

>  <Uniprot>
Q9H8M2

>  <Target>
BRD9

>  <Smiles>
COC1=CC(C2=CN(C)C(=O)C3=CN=CC=C23)=CC(OC)=C1CN(C)C

>  <Kd (nM)>
15.4

>  <Assay (Kd)>
ITC

>  <Ki (nM)>


>  <Assay (Ki)>


>  <IC50 (nM)>
19

>  <Assay (IC50)>
BRD9-H3 AlphaScreen assay

>  <EC50 (nM)>


>  <Assay (EC50)>


>  <Article DOI>
10.1021/acs.jmedchem.5b01865

>  <Molecular Weight>
353.422

>  <Exact Mass>
353.173941596

>  <XLogP3>
1.4

>  <Heavy Atom Count>
26

>  <Ring Count>
3

>  <Hydrogen Bond Acceptor Count>
6

>  <Hydrogen Bond Donor Count>
0

>  <Rotatable Bond Count>
5

>  <Topological Polar Surface Area>
56.59

>  <Molecular Formula>
C20H23N3O3

>  <InChI>
InChI=1S/C20H23N3O3/c1-22(2)11-17-18(25-4)8-13(9-19(17)26-5)16-12-23(3)20(24)15-10-21-7-6-14(15)16/h6-10,12H,11H2,1-5H3

>  <InChI Key>
RBUYFHLQNPJMQM-UHFFFAOYSA-N

>  <BindingDB>
50183448

>  <PubChem>
118796358

>  <ChEMBL>
CHEMBL3823478

$$$$
Compound 3
Actelion Java MolfileCreator 2.0

  0  0  0  0  0  0              0 V3000
M  V30 BEGIN CTAB
M  V30 COUNTS 26 28 0 0 0
M  V30 BEGIN ATOM
M  V30 1 O 0.0 0.0 0.0 0
M  V30 2 C -1.4747 0.311 0.0 0
M  V30 3 N -2.477 -0.7949 0.0 0
M  V30 4 C -1.9585 1.7396 0.0 0
M  V30 5 C -3.9517 -0.4838 0.0 0
M  V30 6 C -2.0161 -2.2005 0.0 0
M  V30 7 C -3.4332 2.0507 0.0 0
M  V30 8 C -0.9792 2.8687 0.0 0
M  V30 9 C -4.4356 0.9447 0.0 0
M  V30 10 C -3.9171 3.4793 0.0 0
M  V30 11 N -1.4631 4.2973 0.0 0
M  V30 12 C -5.9103 1.2558 0.0 0
M  V30 13 C -2.9378 4.6084 0.0 0
M  V30 14 C -6.9126 0.1497 0.0 0
M  V30 15 C -6.3942 2.6844 0.0 0
M  V30 16 O -6.4518 -1.2558 0.0 0
M  V30 17 C -8.3873 0.4608 0.0 0
M  V30 18 C -7.8689 2.9954 0.0 0
M  V30 19 C -7.4541 -2.3618 0.0 0
M  V30 20 C -8.8712 1.8894 0.0 0
M  V30 21 O -8.3528 4.4241 0.0 0
M  V30 22 C -10.3459 2.2005 0.0 0
M  V30 23 C -7.3735 5.5531 0.0 0
M  V30 24 N -11.3482 1.0945 0.0 0
M  V30 25 C -12.823 1.4055 0.0 0
M  V30 26 C -10.8874 -0.311 0.0 0
M  V30 END ATOM
M  V30 BEGIN BOND
M  V30 1 2 1 2
M  V30 2 1 2 3
M  V30 3 1 2 4
M  V30 4 1 3 5
M  V30 5 1 3 6
M  V30 6 2 4 7
M  V30 7 1 4 8
M  V30 8 2 5 9
M  V30 9 1 7 10
M  V30 10 2 8 11
M  V30 11 1 9 12
M  V30 12 2 10 13
M  V30 13 2 12 14
M  V30 14 1 12 15
M  V30 15 1 14 16
M  V30 16 1 14 17
M  V30 17 2 15 18
M  V30 18 1 16 19
M  V30 19 2 17 20
M  V30 20 1 18 21
M  V30 21 1 20 22
M  V30 22 1 21 23
M  V30 23 1 22 24
M  V30 24 1 24 25
M  V30 25 1 24 26
M  V30 26 1 7 9
M  V30 27 1 11 13
M  V30 28 1 18 20
M  V30 END BOND
M  V30 END CTAB
M  END
>  <Compound ID>
2

>  <Name>
BI-9564

>  <Uniprot>
Q9NPI1

>  <Target>
BRD7

>  <Smiles>
COC1=CC(C2=CN(C)C(=O)C3=CN=CC=C23)=C(OC)C=C1CN(C)C

>  <Kd (nM)>
239/73

>  <Assay (Kd)>
ITC/BROMOScan platform of DiscoveRx

>  <Ki (nM)>


>  <Assay (Ki)>


>  <IC50 (nM)>
3410

>  <Assay (IC50)>
BRD7 H3 AlphaScreen assay

>  <EC50 (nM)>


>  <Assay (EC50)>


>  <Article DOI>
10.1021/acs.jmedchem.5b01865

>  <Molecular Weight>
353.422

>  <Exact Mass>
353.173941596

>  <XLogP3>
1.4

>  <Heavy Atom Count>
26

>  <Ring Count>
3

>  <Hydrogen Bond Acceptor Count>
6

>  <Hydrogen Bond Donor Count>
0

>  <Rotatable Bond Count>
5

>  <Topological Polar Surface Area>
56.59

>  <Molecular Formula>
C20H23N3O3

>  <InChI>
InChI=1S/C20H23N3O3/c1-22(2)11-13-8-19(26-5)15(9-18(13)25-4)17-12-23(3)20(24)16-10-21-7-6-14(16)17/h6-10,12H,11H2,1-5H3

>  <InChI Key>
BJFSUDWKXGMUKA-UHFFFAOYSA-N

>  <BindingDB>
50183449

>  <PubChem>
117072549

>  <ChEMBL>
CHEMBL3823101

$$$$
Compound 4
Actelion Java MolfileCreator 2.0

  0  0  0  0  0  0              0 V3000
M  V30 BEGIN CTAB
M  V30 COUNTS 26 28 0 0 0
M  V30 BEGIN ATOM
M  V30 1 O 0.0 0.0 0.0 0
M  V30 2 C -1.4747 0.311 0.0 0
M  V30 3 N -2.477 -0.7949 0.0 0
M  V30 4 C -1.9585 1.7396 0.0 0
M  V30 5 C -3.9517 -0.4838 0.0 0
M  V30 6 C -2.0161 -2.2005 0.0 0
M  V30 7 C -3.4332 2.0507 0.0 0
M  V30 8 C -0.9792 2.8687 0.0 0
M  V30 9 C -4.4356 0.9447 0.0 0
M  V30 10 C -3.9171 3.4793 0.0 0
M  V30 11 N -1.4631 4.2973 0.0 0
M  V30 12 C -5.9103 1.2558 0.0 0
M  V30 13 C -2.9378 4.6084 0.0 0
M  V30 14 C -6.9126 0.1497 0.0 0
M  V30 15 C -6.3942 2.6844 0.0 0
M  V30 16 O -6.4518 -1.2558 0.0 0
M  V30 17 C -8.3873 0.4608 0.0 0
M  V30 18 C -7.8689 2.9954 0.0 0
M  V30 19 C -7.4541 -2.3618 0.0 0
M  V30 20 C -8.8712 1.8894 0.0 0
M  V30 21 O -8.3528 4.4241 0.0 0
M  V30 22 C -10.3459 2.2005 0.0 0
M  V30 23 C -7.3735 5.5531 0.0 0
M  V30 24 N -11.3482 1.0945 0.0 0
M  V30 25 C -12.823 1.4055 0.0 0
M  V30 26 C -10.8874 -0.311 0.0 0
M  V30 END ATOM
M  V30 BEGIN BOND
M  V30 1 2 1 2
M  V30 2 1 2 3
M  V30 3 1 2 4
M  V30 4 1 3 5
M  V30 5 1 3 6
M  V30 6 2 4 7
M  V30 7 1 4 8
M  V30 8 2 5 9
M  V30 9 1 7 10
M  V30 10 2 8 11
M  V30 11 1 9 12
M  V30 12 2 10 13
M  V30 13 2 12 14
M  V30 14 1 12 15
M  V30 15 1 14 16
M  V30 16 1 14 17
M  V30 17 2 15 18
M  V30 18 1 16 19
M  V30 19 2 17 20
M  V30 20 1 18 21
M  V30 21 1 20 22
M  V30 22 1 21 23
M  V30 23 1 22 24
M  V30 24 1 24 25
M  V30 25 1 24 26
M  V30 26 1 7 9
M  V30 27 1 11 13
M  V30 28 1 18 20
M  V30 END BOND
M  V30 END CTAB
M  END
>  <Compound ID>
2

>  <Name>
BI-9564

>  <Uniprot>
Q9H8M2

>  <Target>
BRD9

>  <Smiles>
COC1=CC(C2=CN(C)C(=O)C3=CN=CC=C23)=C(OC)C=C1CN(C)C

>  <Kd (nM)>
14.1

>  <Assay (Kd)>
ITC

>  <Ki (nM)>


>  <Assay (Ki)>


>  <IC50 (nM)>
75

>  <Assay (IC50)>
BRD9-H3 AlphaScreen assay

>  <EC50 (nM)>


>  <Assay (EC50)>


>  <Article DOI>
10.1021/acs.jmedchem.5b01865

>  <Molecular Weight>
353.422

>  <Exact Mass>
353.173941596

>  <XLogP3>
1.4

>  <Heavy Atom Count>
26

>  <Ring Count>
3

>  <Hydrogen Bond Acceptor Count>
6

>  <Hydrogen Bond Donor Count>
0

>  <Rotatable Bond Count>
5

>  <Topological Polar Surface Area>
56.59

>  <Molecular Formula>
C20H23N3O3

>  <InChI>
InChI=1S/C20H23N3O3/c1-22(2)11-13-8-19(26-5)15(9-18(13)25-4)17-12-23(3)20(24)16-10-21-7-6-14(16)17/h6-10,12H,11H2,1-5H3

>  <InChI Key>
BJFSUDWKXGMUKA-UHFFFAOYSA-N

>  <BindingDB>
50183449

>  <PubChem>
117072549

>  <ChEMBL>
CHEMBL3823101

$$$$
Compound 5
Actelion Java MolfileCreator 2.0

  0  0  0  0  0  0              0 V3000
M  V30 BEGIN CTAB
M  V30 COUNTS 61 68 0 0 0
M  V30 BEGIN ATOM
M  V30 1 S 0.0 0.0 0.0 0
M  V30 2 O 0.8534 -1.2208 0.0 0
M  V30 3 O -0.8771 1.2445 0.0 0
M  V30 4 N 1.2208 0.8771 0.0 0
M  V30 5 N -1.2445 -0.8534 0.0 0
M  V30 6 C 1.0667 2.3824 0.0 0
M  V30 7 C 2.572 0.2607 0.0 0
M  V30 8 C -1.1141 -2.335 0.0 0
M  V30 9 C -2.6194 -0.2133 0.0 0
M  V30 10 C 2.2876 3.2595 0.0 0
M  V30 11 C 3.7929 1.1378 0.0 0
M  V30 12 N 3.6388 2.6431 0.0 0
M  V30 13 C 4.8596 3.5203 0.0 0
M  V30 14 C 4.7055 5.0256 0.0 0
M  V30 15 C 6.2109 2.9039 0.0 0
M  V30 16 C 5.9264 5.9027 0.0 0
M  V30 17 C 7.4317 3.781 0.0 0
M  V30 18 C 7.2776 5.2863 0.0 0
M  V30 19 O 8.4985 6.1635 0.0 0
M  V30 20 C 9.8497 5.5471 0.0 0
M  V30 21 C 11.0705 6.4242 0.0 0
M  V30 22 N 11.0824 7.9414 0.0 0
M  V30 23 C 12.481 5.9501 0.0 0
M  V30 24 N 12.5047 8.4036 0.0 0
M  V30 25 C 9.8616 8.8541 0.0 0
M  V30 26 C 12.9196 4.5278 0.0 0
M  V30 27 C 13.37 7.1709 0.0 0
M  V30 28 C 14.3775 4.2077 0.0 0
M  V30 29 C 11.8884 3.4373 0.0 0
M  V30 30 C 14.8635 7.1591 0.0 0
M  V30 31 N 15.5984 5.0848 0.0 0
M  V30 32 C 14.8161 2.7854 0.0 0
M  V30 33 C 12.327 2.0149 0.0 0
M  V30 34 C 16.7955 4.1959 0.0 0
M  V30 35 C 15.6102 6.602 0.0 0
M  V30 36 C 16.3095 2.7735 0.0 0
M  V30 37 C 13.7849 1.6949 0.0 0
M  V30 38 C 18.2178 4.6581 0.0 0
M  V30 39 C 16.914 7.3487 0.0 0
M  V30 40 C 17.1629 1.5527 0.0 0
M  V30 41 O 19.3083 3.6506 0.0 0
M  V30 42 O 18.5379 6.1397 0.0 0
M  V30 43 N 16.9259 8.8659 0.0 0
M  V30 44 C 18.6445 1.7068 0.0 0
M  V30 45 C 18.2297 9.6126 0.0 0
M  V30 46 C 15.6221 9.6482 0.0 0
M  V30 47 C 19.498 0.4859 0.0 0
M  V30 48 C 18.2415 11.1298 0.0 0
M  V30 49 C 15.6339 11.1654 0.0 0
M  V30 50 O 20.9796 0.64 0.0 0
M  V30 51 O 16.9377 11.9121 0.0 0
M  V30 52 C 21.833 -0.5807 0.0 0
M  V30 53 C 23.3146 -0.4267 0.0 0
M  V30 54 C 21.1929 -1.932 0.0 0
M  V30 55 C 24.168 -1.6475 0.0 0
M  V30 56 C 23.9309 0.9482 0.0 0
M  V30 57 C 22.0463 -3.1528 0.0 0
M  V30 58 C 23.5279 -2.9987 0.0 0
M  V30 59 C 25.6496 -1.4934 0.0 0
M  V30 60 C 25.4125 1.1023 0.0 0
M  V30 61 C 26.266 -0.1185 0.0 0
M  V30 END ATOM
M  V30 BEGIN BOND
M  V30 1 2 1 2
M  V30 2 2 1 3
M  V30 3 1 1 4
M  V30 4 1 1 5
M  V30 5 1 4 6
M  V30 6 1 4 7
M  V30 7 1 5 8
M  V30 8 1 5 9
M  V30 9 1 6 10
M  V30 10 1 7 11
M  V30 11 1 10 12
M  V30 12 1 12 13
M  V30 13 2 13 14
M  V30 14 1 13 15
M  V30 15 1 14 16
M  V30 16 2 15 17
M  V30 17 2 16 18
M  V30 18 1 18 19
M  V30 19 1 19 20
M  V30 20 1 20 21
M  V30 21 1 21 22
M  V30 22 2 21 23
M  V30 23 1 22 24
M  V30 24 1 22 25
M  V30 25 1 23 26
M  V30 26 1 23 27
M  V30 27 2 26 28
M  V30 28 1 26 29
M  V30 29 1 27 30
M  V30 30 1 28 31
M  V30 31 1 28 32
M  V30 32 2 29 33
M  V30 33 1 31 34
M  V30 34 1 31 35
M  V30 35 1 32 36
M  V30 36 2 32 37
M  V30 37 1 34 38
M  V30 38 1 35 39
M  V30 39 1 36 40
M  V30 40 2 38 41
M  V30 41 1 38 42
M  V30 42 1 39 43
M  V30 43 1 40 44
M  V30 44 1 43 45
M  V30 45 1 43 46
M  V30 46 1 44 47
M  V30 47 1 45 48
M  V30 48 1 46 49
M  V30 49 1 47 50
M  V30 50 1 48 51
M  V30 51 1 50 52
M  V30 52 1 52 53
M  V30 53 2 52 54
M  V30 54 1 53 55
M  V30 55 2 53 56
M  V30 56 1 54 57
M  V30 57 1 55 58
M  V30 58 2 55 59
M  V30 59 1 56 60
M  V30 60 1 59 61
M  V30 61 1 11 12
M  V30 62 1 17 18
M  V30 63 2 24 27
M  V30 64 1 33 37
M  V30 65 2 34 36
M  V30 66 1 49 51
M  V30 67 2 57 58
M  V30 68 2 60 61
M  V30 END BOND
M  V30 END CTAB
M  END
>  <Compound ID>
3

>  <Name>
A-1210477

>  <Uniprot>
Q07820

>  <Target>
MCL1

>  <Smiles>
CC1=NN(C)C(COC2=CC=C(N3CCN(S(=O)(=O)N(C)C)CC3)C=C2)=C1C1=CC=CC2=C1N(CCN1CCOCC1)C(C(=O)O)=C2CCCOC1=CC=CC2=CC=CC=C12

>  <Kd (nM)>
19

>  <Assay (Kd)>
SPR

>  <Ki (nM)>


>  <Assay (Ki)>


>  <IC50 (nM)>


>  <Assay (IC50)>


>  <EC50 (nM)>


>  <Assay (EC50)>


>  <Article DOI>
10.1021/acs.jmedchem.9b00455

>  <Molecular Weight>
850.055

>  <Exact Mass>
849.3883681

>  <XLogP3>
3.64

>  <Heavy Atom Count>
61

>  <Ring Count>
8

>  <Hydrogen Bond Acceptor Count>
11

>  <Hydrogen Bond Donor Count>
1

>  <Rotatable Bond Count>
16

>  <Topological Polar Surface Area>
134.84

>  <Molecular Formula>
C46H55N7O7S

>  <InChI>
InChI=1S/C46H55N7O7S/c1-33-43(41(49(4)47-33)32-60-36-19-17-35(18-20-36)51-22-24-52(25-23-51)61(56,57)48(2)3)40-14-8-13-38-39(15-9-29-59-42-16-7-11-34-10-5-6-12-37(34)42)45(46(54)55)53(44(38)40)26-21-50-27-30-58-31-28-50/h5-8,10-14,16-20H,9,15,21-32H2,1-4H3,(H,54,55)

>  <InChI Key>
XMVAWGSQPHFXKU-UHFFFAOYSA-N

>  <BindingDB>
50078163

>  <PubChem>
66575373

>  <ChEMBL>
CHEMBL3417704

$$$$
Compound 6
Actelion Java MolfileCreator 2.0

  0  0  0  0  0  0              0 V3000
M  V30 BEGIN CTAB
M  V30 COUNTS 41 46 0 0 0
M  V30 BEGIN ATOM
M  V30 1 Cl 0.0 0.0 0.0 0
M  V30 2 C -1.3978 0.6928 0.0 0
M  V30 3 C -1.5073 2.2487 0.0 0
M  V30 4 C -2.6985 -0.1458 0.0 0
M  V30 5 F -0.2309 3.1118 0.0 0
M  V30 6 C -2.9051 2.9416 0.0 0
M  V30 7 C -4.0964 0.547 0.0 0
M  V30 8 C -4.2058 2.1029 0.0 0
M  V30 9 C -3.0146 4.4975 0.0 0 CFG=2
M  V30 10 C -1.8355 5.4943 0.0 0 CFG=1
M  V30 11 C -4.3274 5.3363 0.0 0 CFG=1
M  V30 12 C -0.6077 5.7739 0.0 0
M  V30 13 C -1.2763 4.0721 0.0 0
M  V30 14 C -2.4189 6.9408 0.0 0
M  V30 15 N -3.9505 6.8436 0.0 0
M  V30 16 C -5.7739 4.7771 0.0 0
M  V30 17 O -0.5348 6.564 0.0 0
M  V30 18 N -0.0364 5.4092 0.0 0
M  V30 19 C 0.2552 4.1815 0.0 0
M  V30 20 C -1.9692 2.6985 0.0 0
M  V30 21 C -0.8873 6.8922 0.0 0
M  V30 22 C -3.1483 8.3266 0.0 0
M  V30 23 O -6.0048 3.2577 0.0 0
M  V30 24 N -7.0016 5.7496 0.0 0
M  V30 25 C 1.094 2.9051 0.0 0
M  V30 26 C -1.1304 1.4222 0.0 0
M  V30 27 C -0.0729 8.205 0.0 0
M  V30 28 C -2.3338 9.6394 0.0 0
M  V30 29 C -8.4481 5.1904 0.0 0
M  V30 30 C 0.4011 1.5316 0.0 0
M  V30 31 C -0.8022 9.5908 0.0 0
M  V30 32 C -9.6758 6.1629 0.0 0
M  V30 33 C -8.6791 3.671 0.0 0
M  V30 34 Cl 1.2398 0.2552 0.0 0
M  V30 35 C -11.1224 5.6037 0.0 0
M  V30 36 C -10.1256 3.1118 0.0 0
M  V30 37 C -11.3533 4.0842 0.0 0
M  V30 38 C -12.7998 3.5251 0.0 0
M  V30 39 O -13.0308 2.0056 0.0 0
M  V30 40 N -14.0276 4.4975 0.0 0
M  V30 41 C -15.4741 3.9384 0.0 0
M  V30 END ATOM
M  V30 BEGIN BOND
M  V30 1 1 1 2
M  V30 2 2 2 3
M  V30 3 1 2 4
M  V30 4 1 3 5
M  V30 5 1 3 6
M  V30 6 2 4 7
M  V30 7 2 6 8
M  V30 8 1 9 6 CFG=1
M  V30 9 1 9 10
M  V30 10 1 9 11
M  V30 11 1 10 12
M  V30 12 1 10 13 CFG=3
M  V30 13 1 10 14
M  V30 14 1 11 15
M  V30 15 1 11 16 CFG=3
M  V30 16 2 12 17
M  V30 17 1 12 18
M  V30 18 2 13 19
M  V30 19 1 13 20
M  V30 20 1 14 21
M  V30 21 1 14 22
M  V30 22 2 16 23
M  V30 23 1 16 24
M  V30 24 1 19 25
M  V30 25 2 20 26
M  V30 26 1 21 27
M  V30 27 1 22 28
M  V30 28 1 24 29
M  V30 29 2 25 30
M  V30 30 1 27 31
M  V30 31 2 29 32
M  V30 32 1 29 33
M  V30 33 1 30 34
M  V30 34 1 32 35
M  V30 35 2 33 36
M  V30 36 2 35 37
M  V30 37 1 37 38
M  V30 38 2 38 39
M  V30 39 1 38 40
M  V30 40 1 40 41
M  V30 41 1 7 8
M  V30 42 1 14 15
M  V30 43 1 18 19
M  V30 44 1 26 30
M  V30 45 1 28 31
M  V30 46 1 36 37
M  V30 END BOND
M  V30 BEGIN COLLECTION
M  V30 MDLV30/STEABS ATOMS=(3 9 10 11)
M  V30 END COLLECTION
M  V30 END CTAB
M  END
>  <Compound ID>
4

>  <Name>
MI-1242

>  <Uniprot>
Q00987

>  <Target>
MDM2

>  <Smiles>
CNC(=O)C1=CC=C(NC(=O)[C@@H]2NC3(CCCCC3)[C@@]3(C(=O)NC4=CC(Cl)=CC=C43)[C@H]2C2=CC=CC(Cl)=C2F)C=C1

>  <Kd (nM)>


>  <Assay (Kd)>


>  <Ki (nM)>
2.7

>  <Assay (Ki)>
FP

>  <IC50 (nM)>


>  <Assay (IC50)>


>  <EC50 (nM)>


>  <Assay (EC50)>


>  <Article DOI>
10.1021/acs.jmedchem.8b00909

>  <Molecular Weight>
595.502

>  <Exact Mass>
594.160074368

>  <XLogP3>
4.92

>  <Heavy Atom Count>
41

>  <Ring Count>
6

>  <Hydrogen Bond Acceptor Count>
4

>  <Hydrogen Bond Donor Count>
4

>  <Rotatable Bond Count>
4

>  <Topological Polar Surface Area>
99.33

>  <Molecular Formula>
C31H29Cl2FN4O3

>  <InChI>
InChI=1S/C31H29Cl2FN4O3/c1-35-27(39)17-8-11-19(12-9-17)36-28(40)26-24(20-6-5-7-22(33)25(20)34)31(30(38-26)14-3-2-4-15-30)21-13-10-18(32)16-23(21)37-29(31)41/h5-13,16,24,26,38H,2-4,14-15H2,1H3,(H,35,39)(H,36,40)(H,37,41)/t24-,26+,31+/m0/s1

>  <InChI Key>
NAFGFZPKKDOIBX-UZXRVZLOSA-N

>  <BindingDB>


>  <PubChem>


>  <ChEMBL>


$$$$
Compound 7
Actelion Java MolfileCreator 2.0

  0  0  0  0  0  0              0 V3000
M  V30 BEGIN CTAB
M  V30 COUNTS 40 45 0 0 0
M  V30 BEGIN ATOM
M  V30 1 Cl 0.0 0.0 0.0 0
M  V30 2 C -1.3996 0.6815 0.0 0
M  V30 3 C -1.5213 2.2394 0.0 0
M  V30 4 C -2.6897 -0.1703 0.0 0
M  V30 5 F -0.2555 3.1156 0.0 0
M  V30 6 C -2.9209 2.9209 0.0 0
M  V30 7 C -4.0893 0.5111 0.0 0
M  V30 8 C -4.211 2.069 0.0 0
M  V30 9 C -3.0426 4.4788 0.0 0 CFG=2
M  V30 10 C -1.8742 5.4889 0.0 0 CFG=1
M  V30 11 C -4.3692 5.3064 0.0 0 CFG=1
M  V30 12 C -0.6572 5.781 0.0 0
M  V30 13 C -1.3022 4.065 0.0 0
M  V30 14 C -2.4706 6.9372 0.0 0
M  V30 15 N -4.0163 6.8155 0.0 0
M  V30 16 C -5.8175 4.7343 0.0 0
M  V30 17 O -0.5963 6.5721 0.0 0
M  V30 18 N -0.073 5.4281 0.0 0
M  V30 19 C 0.2312 4.1867 0.0 0
M  V30 20 C -1.9838 2.6897 0.0 0
M  V30 21 C -0.9371 6.9007 0.0 0
M  V30 22 C -3.213 8.3125 0.0 0
M  V30 23 O -6.0366 3.213 0.0 0
M  V30 24 N -7.0468 5.6958 0.0 0
M  V30 25 C 1.0831 2.9209 0.0 0
M  V30 26 C -1.1318 1.4239 0.0 0
M  V30 27 C -0.1338 8.2273 0.0 0
M  V30 28 C -2.4097 9.6391 0.0 0
M  V30 29 C -8.4951 5.1238 0.0 0
M  V30 30 C 0.4016 1.5456 0.0 0
M  V30 31 C -0.8762 9.6026 0.0 0
M  V30 32 C -9.7243 6.0853 0.0 0
M  V30 33 C -8.7141 3.6025 0.0 0
M  V30 34 Cl 1.2535 0.2799 0.0 0
M  V30 35 C -11.1726 5.5133 0.0 0
M  V30 36 C -10.1625 3.0304 0.0 0
M  V30 37 C -11.3917 3.9919 0.0 0
M  V30 38 C -12.84 3.4199 0.0 0
M  V30 39 O -13.0591 1.8986 0.0 0
M  V30 40 O -14.0692 4.3814 0.0 0
M  V30 END ATOM
M  V30 BEGIN BOND
M  V30 1 1 1 2
M  V30 2 2 2 3
M  V30 3 1 2 4
M  V30 4 1 3 5
M  V30 5 1 3 6
M  V30 6 2 4 7
M  V30 7 2 6 8
M  V30 8 1 9 6 CFG=1
M  V30 9 1 9 10
M  V30 10 1 9 11
M  V30 11 1 10 12
M  V30 12 1 10 13 CFG=3
M  V30 13 1 10 14
M  V30 14 1 11 15
M  V30 15 1 11 16 CFG=3
M  V30 16 2 12 17
M  V30 17 1 12 18
M  V30 18 2 13 19
M  V30 19 1 13 20
M  V30 20 1 14 21
M  V30 21 1 14 22
M  V30 22 2 16 23
M  V30 23 1 16 24
M  V30 24 1 19 25
M  V30 25 2 20 26
M  V30 26 1 21 27
M  V30 27 1 22 28
M  V30 28 1 24 29
M  V30 29 2 25 30
M  V30 30 1 27 31
M  V30 31 2 29 32
M  V30 32 1 29 33
M  V30 33 1 30 34
M  V30 34 1 32 35
M  V30 35 2 33 36
M  V30 36 2 35 37
M  V30 37 1 37 38
M  V30 38 2 38 39
M  V30 39 1 38 40
M  V30 40 1 7 8
M  V30 41 1 14 15
M  V30 42 1 18 19
M  V30 43 1 26 30
M  V30 44 1 28 31
M  V30 45 1 36 37
M  V30 END BOND
M  V30 BEGIN COLLECTION
M  V30 MDLV30/STEABS ATOMS=(3 9 10 11)
M  V30 END COLLECTION
M  V30 END CTAB
M  END
>  <Compound ID>
5

>  <Name>
MI-1061

>  <Uniprot>
Q00987

>  <Target>
MDM2

>  <Smiles>
O=C(O)C1=CC=C(NC(=O)[C@@H]2NC3(CCCCC3)[C@@]3(C(=O)NC4=CC(Cl)=CC=C43)[C@H]2C2=CC=CC(Cl)=C2F)C=C1

>  <Kd (nM)>


>  <Assay (Kd)>


>  <Ki (nM)>
0.16

>  <Assay (Ki)>
FP

>  <IC50 (nM)>


>  <Assay (IC50)>


>  <EC50 (nM)>


>  <Assay (EC50)>


>  <Article DOI>
10.1021/acs.jmedchem.8b00909

>  <Molecular Weight>
582.459

>  <Exact Mass>
581.128439892

>  <XLogP3>
2.89

>  <Heavy Atom Count>
40

>  <Ring Count>
6

>  <Hydrogen Bond Acceptor Count>
4

>  <Hydrogen Bond Donor Count>
4

>  <Rotatable Bond Count>
4

>  <Topological Polar Surface Area>
107.53

>  <Molecular Formula>
C30H26Cl2FN3O4

>  <InChI>
InChI=1S/C30H26Cl2FN3O4/c31-17-9-12-20-22(15-17)35-28(40)30(20)23(19-5-4-6-21(32)24(19)33)25(36-29(30)13-2-1-3-14-29)26(37)34-18-10-7-16(8-11-18)27(38)39/h4-12,15,23,25,36H,1-3,13-14H2,(H,34,37)(H,35,40)(H,38,39)/t23-,25+,30+/m0/s1

>  <InChI Key>
BIDSEXPFIMKDMF-LOLKONATSA-N

>  <BindingDB>
50041086

>  <PubChem>
70677271

>  <ChEMBL>
CHEMBL3355430

$$$$
Compound 8
Actelion Java MolfileCreator 2.0

  0  0  0  0  0  0              0 V3000
M  V30 BEGIN CTAB
M  V30 COUNTS 34 38 0 0 0
M  V30 BEGIN ATOM
M  V30 1 S 0.0 0.0 0.0 0
M  V30 2 C -0.782 1.2956 0.0 0
M  V30 3 C -0.9921 -1.1088 0.0 0
M  V30 4 C -0.2101 2.6846 0.0 0
M  V30 5 C -2.2528 0.9688 0.0 0
M  V30 6 C -2.3812 -0.5135 0.0 0
M  V30 7 C -0.8287 -2.5796 0.0 0
M  V30 8 C 1.2606 2.8831 0.0 0
M  V30 9 C -1.1205 3.8869 0.0 0
M  V30 10 C -3.385 1.9609 0.0 0
M  V30 11 C -3.5834 -1.4007 0.0 0
M  V30 12 C -2.031 -3.4667 0.0 0
M  V30 13 C 1.8325 4.2721 0.0 0
M  V30 14 C -0.5486 5.2759 0.0 0
M  V30 15 O -3.1049 3.4434 0.0 0
M  V30 16 C -4.809 1.4824 0.0 0
M  V30 17 C -3.42 -2.8714 0.0 0
M  V30 18 O -1.8676 -4.9374 0.0 0
M  V30 19 C 0.9221 5.4744 0.0 0
M  V30 20 C -5.9413 2.4745 0.0 0
M  V30 21 C -5.1125 0.0233 0.0 0
M  V30 22 O 1.494 6.8634 0.0 0
M  V30 23 C -7.3653 1.996 0.0 0
M  V30 24 C -6.5366 -0.4552 0.0 0
M  V30 25 C -7.6688 0.5369 0.0 0
M  V30 26 O -9.0929 0.0583 0.0 0
M  V30 27 C -10.2251 1.0505 0.0 0
M  V30 28 C -11.6492 0.5719 0.0 0
M  V30 29 N -12.7814 1.5641 0.0 0
M  V30 30 C -12.5013 3.0465 0.0 0
M  V30 31 C -14.2055 1.0855 0.0 0
M  V30 32 C -13.6335 4.0387 0.0 0
M  V30 33 C -15.3377 2.0777 0.0 0
M  V30 34 C -15.0576 3.5601 0.0 0
M  V30 END ATOM
M  V30 BEGIN BOND
M  V30 1 1 1 2
M  V30 2 1 1 3
M  V30 3 1 2 4
M  V30 4 2 2 5
M  V30 5 2 3 6
M  V30 6 1 3 7
M  V30 7 2 4 8
M  V30 8 1 4 9
M  V30 9 1 5 10
M  V30 10 1 6 11
M  V30 11 2 7 12
M  V30 12 1 8 13
M  V30 13 2 9 14
M  V30 14 2 10 15
M  V30 15 1 10 16
M  V30 16 2 11 17
M  V30 17 1 12 18
M  V30 18 2 13 19
M  V30 19 2 16 20
M  V30 20 1 16 21
M  V30 21 1 19 22
M  V30 22 1 20 23
M  V30 23 2 21 24
M  V30 24 2 23 25
M  V30 25 1 25 26
M  V30 26 1 26 27
M  V30 27 1 27 28
M  V30 28 1 28 29
M  V30 29 1 29 30
M  V30 30 1 29 31
M  V30 31 1 30 32
M  V30 32 1 31 33
M  V30 33 1 32 34
M  V30 34 1 5 6
M  V30 35 1 12 17
M  V30 36 1 14 19
M  V30 37 1 24 25
M  V30 38 1 33 34
M  V30 END BOND
M  V30 END CTAB
M  END
>  <Compound ID>
6

>  <Name>
Raloxifene

>  <Uniprot>
P03372

>  <Target>
ER

>  <Smiles>
O=C(C1=CC=C(OCCN2CCCCC2)C=C1)C1=C(C2=CC=C(O)C=C2)SC2=CC(O)=CC=C12

>  <Kd (nM)>
1.03/0.07

>  <Assay (Kd)>
FP in ERalpha/ERbeta

>  <Ki (nM)>


>  <Assay (Ki)>


>  <IC50 (nM)>


>  <Assay (IC50)>


>  <EC50 (nM)>


>  <Assay (EC50)>


>  <Article DOI>
10.1021/jm050226i

>  <Molecular Weight>
473.594

>  <Exact Mass>
473.166079344

>  <XLogP3>
6.09

>  <Heavy Atom Count>
34

>  <Ring Count>
5

>  <Hydrogen Bond Acceptor Count>
6

>  <Hydrogen Bond Donor Count>
2

>  <Rotatable Bond Count>
7

>  <Topological Polar Surface Area>
70.0

>  <Molecular Formula>
C28H27NO4S

>  <InChI>
InChI=1S/C28H27NO4S/c30-21-8-4-20(5-9-21)28-26(24-13-10-22(31)18-25(24)34-28)27(32)19-6-11-23(12-7-19)33-17-16-29-14-2-1-3-15-29/h4-13,18,30-31H,1-3,14-17H2

>  <InChI Key>
GZUITABIAKMVPG-UHFFFAOYSA-N

>  <BindingDB>
19441

>  <PubChem>
5035

>  <ChEMBL>
CHEMBL81

$$$$
Compound 9
Actelion Java MolfileCreator 2.0

  0  0  0  0  0  0              0 V3000
M  V30 BEGIN CTAB
M  V30 COUNTS 29 31 0 0 0
M  V30 BEGIN ATOM
M  V30 1 O 0.0 0.0 0.0 0
M  V30 2 C 1.3707 0.5975 0.0 0
M  V30 3 C -1.2067 0.9138 0.0 0
M  V30 4 C 1.5464 2.0971 0.0 0
M  V30 5 C 2.554 -0.2928 0.0 0
M  V30 6 C -2.6008 0.3397 0.0 0
M  V30 7 C 2.9172 2.6946 0.0 0
M  V30 8 C 3.9247 0.3046 0.0 0
M  V30 9 N -3.8076 1.2535 0.0 0
M  V30 10 C 4.1005 1.8042 0.0 0
M  V30 11 C -5.2017 0.6795 0.0 0
M  V30 12 C -3.6318 2.7531 0.0 0
M  V30 13 C 5.4712 2.4017 0.0 0
M  V30 14 C 6.6545 1.5113 0.0 0
M  V30 15 C 5.6469 3.9013 0.0 0
M  V30 16 C 6.4553 0.0351 0.0 0
M  V30 17 C 8.0252 2.1088 0.0 0
M  V30 18 C 4.4402 4.8151 0.0 0
M  V30 19 C 7.0177 4.4988 0.0 0
M  V30 20 C 7.6386 -0.8552 0.0 0
M  V30 21 C 9.2085 1.2184 0.0 0
M  V30 22 C 4.6159 6.3147 0.0 0
M  V30 23 C 3.046 4.241 0.0 0
M  V30 24 C 7.1934 5.9984 0.0 0
M  V30 25 C 9.0093 -0.2577 0.0 0
M  V30 26 C 3.4092 7.2286 0.0 0
M  V30 27 C 1.8393 5.1549 0.0 0
M  V30 28 O 10.1926 -1.1481 0.0 0
M  V30 29 C 2.0151 6.6545 0.0 0
M  V30 END ATOM
M  V30 BEGIN BOND
M  V30 1 1 1 2
M  V30 2 1 1 3
M  V30 3 2 2 4
M  V30 4 1 2 5
M  V30 5 1 3 6
M  V30 6 1 4 7
M  V30 7 2 5 8
M  V30 8 1 6 9
M  V30 9 2 7 10
M  V30 10 1 9 11
M  V30 11 1 9 12
M  V30 12 1 10 13
M  V30 13 1 13 14
M  V30 14 2 13 15
M  V30 15 2 14 16
M  V30 16 1 14 17
M  V30 17 1 15 18
M  V30 18 1 15 19
M  V30 19 1 16 20
M  V30 20 2 17 21
M  V30 21 2 18 22
M  V30 22 1 18 23
M  V30 23 1 19 24
M  V30 24 2 20 25
M  V30 25 1 22 26
M  V30 26 2 23 27
M  V30 27 1 25 28
M  V30 28 2 26 29
M  V30 29 1 8 10
M  V30 30 1 21 25
M  V30 31 1 27 29
M  V30 END BOND
M  V30 END CTAB
M  END
>  <Compound ID>
7

>  <Name>
Afimoxifene

>  <Uniprot>
P03372

>  <Target>
ER

>  <Smiles>
CC/C(=C(\C1=CC=C(O)C=C1)C1=CC=C(OCCN(C)C)C=C1)C1=CC=CC=C1

>  <Kd (nM)>
5.7/1.7

>  <Assay (Kd)>
FP in ERalpha/ERbeta

>  <Ki (nM)>


>  <Assay (Ki)>


>  <IC50 (nM)>


>  <Assay (IC50)>


>  <EC50 (nM)>


>  <Assay (EC50)>


>  <Article DOI>
10.1021/jm050226i

>  <Molecular Weight>
387.523

>  <Exact Mass>
387.219829168

>  <XLogP3>
6.79

>  <Heavy Atom Count>
29

>  <Ring Count>
3

>  <Hydrogen Bond Acceptor Count>
3

>  <Hydrogen Bond Donor Count>
1

>  <Rotatable Bond Count>
8

>  <Topological Polar Surface Area>
32.7

>  <Molecular Formula>
C26H29NO2

>  <InChI>
InChI=1S/C26H29NO2/c1-4-25(20-8-6-5-7-9-20)26(21-10-14-23(28)15-11-21)22-12-16-24(17-13-22)29-19-18-27(2)3/h5-17,28H,4,18-19H2,1-3H3/b26-25-

>  <InChI Key>
TXUZVZSFRXZGTL-QPLCGJKRSA-N

>  <BindingDB>
20608

>  <PubChem>
449459

>  <ChEMBL>
CHEMBL489

$$$$
Compound 10
Actelion Java MolfileCreator 2.0

  0  0  0  0  0  0              0 V3000
M  V30 BEGIN CTAB
M  V30 COUNTS 28 30 0 0 0
M  V30 BEGIN ATOM
M  V30 1 O 0.0 0.0 0.0 0
M  V30 2 C 1.4187 0.4729 0.0 0
M  V30 3 C -1.1188 1.015 0.0 0
M  V30 4 C 1.7302 1.9493 0.0 0
M  V30 5 C 2.5145 -0.519 0.0 0
M  V30 6 C -2.5607 0.5652 0.0 0
M  V30 7 C 3.149 2.4223 0.0 0
M  V30 8 C 3.9333 -0.0461 0.0 0
M  V30 9 N -3.6796 1.5802 0.0 0
M  V30 10 C 4.2448 1.4303 0.0 0
M  V30 11 C -5.1214 1.1304 0.0 0
M  V30 12 C -3.3681 3.0567 0.0 0
M  V30 13 C 5.6636 1.9032 0.0 0
M  V30 14 C 6.7594 0.9112 0.0 0
M  V30 15 C 5.975 3.3797 0.0 0
M  V30 16 C 6.4249 -0.5421 0.0 0
M  V30 17 C 8.1782 1.3841 0.0 0
M  V30 18 C 4.8561 4.3947 0.0 0
M  V30 19 C 7.3938 3.8526 0.0 0
M  V30 20 C 7.5207 -1.5341 0.0 0
M  V30 21 C 9.274 0.3921 0.0 0
M  V30 22 C 5.1676 5.8712 0.0 0
M  V30 23 C 3.4143 3.9449 0.0 0
M  V30 24 C 7.7052 5.3291 0.0 0
M  V30 25 C 8.9395 -1.0612 0.0 0
M  V30 26 C 4.0487 6.8863 0.0 0
M  V30 27 C 2.2954 4.9599 0.0 0
M  V30 28 C 2.6068 6.4364 0.0 0
M  V30 END ATOM
M  V30 BEGIN BOND
M  V30 1 1 1 2
M  V30 2 1 1 3
M  V30 3 2 2 4
M  V30 4 1 2 5
M  V30 5 1 3 6
M  V30 6 1 4 7
M  V30 7 2 5 8
M  V30 8 1 6 9
M  V30 9 2 7 10
M  V30 10 1 9 11
M  V30 11 1 9 12
M  V30 12 1 10 13
M  V30 13 1 13 14
M  V30 14 2 13 15
M  V30 15 2 14 16
M  V30 16 1 14 17
M  V30 17 1 15 18
M  V30 18 1 15 19
M  V30 19 1 16 20
M  V30 20 2 17 21
M  V30 21 2 18 22
M  V30 22 1 18 23
M  V30 23 1 19 24
M  V30 24 2 20 25
M  V30 25 1 22 26
M  V30 26 2 23 27
M  V30 27 2 26 28
M  V30 28 1 8 10
M  V30 29 1 21 25
M  V30 30 1 27 28
M  V30 END BOND
M  V30 END CTAB
M  END
>  <Compound ID>
8

>  <Name>
Tamoxifen

>  <Uniprot>
P03372

>  <Target>
ER

>  <Smiles>
CC/C(=C(\C1=CC=CC=C1)C1=CC=C(OCCN(C)C)C=C1)C1=CC=CC=C1

>  <Kd (nM)>


>  <Assay (Kd)>


>  <Ki (nM)>


>  <Assay (Ki)>


>  <IC50 (nM)>
61

>  <Assay (IC50)>
Displacement of fluorescein-labeled estrogen from ERalpha by fluorescence polarization based competitive binding affinity assay

>  <EC50 (nM)>


>  <Assay (EC50)>


>  <Article DOI>
10.1021/jm500670d

>  <Molecular Weight>
371.524

>  <Exact Mass>
371.224914548

>  <XLogP3>
7.14

>  <Heavy Atom Count>
28

>  <Ring Count>
3

>  <Hydrogen Bond Acceptor Count>
2

>  <Hydrogen Bond Donor Count>
0

>  <Rotatable Bond Count>
8

>  <Topological Polar Surface Area>
12.47

>  <Molecular Formula>
C26H29NO

>  <InChI>
InChI=1S/C26H29NO/c1-4-25(21-11-7-5-8-12-21)26(22-13-9-6-10-14-22)23-15-17-24(18-16-23)28-20-19-27(2)3/h5-18H,4,19-20H2,1-3H3/b26-25-

>  <InChI Key>
NKANXQFJJICGDU-QPLCGJKRSA-N

>  <BindingDB>
20607

>  <PubChem>
2733526

>  <ChEMBL>
CHEMBL83

$$$$
Compound 11
Actelion Java MolfileCreator 2.0

  0  0  0  0  0  0              0 V3000
M  V30 BEGIN CTAB
M  V30 COUNTS 35 39 0 0 0
M  V30 BEGIN ATOM
M  V30 1 O 0.0 0.0 0.0 0
M  V30 2 C -1.4055 -0.5315 0.0 0
M  V30 3 C 1.1575 -0.9212 0.0 0
M  V30 4 C -1.6417 -2.0079 0.0 0
M  V30 5 C -2.5867 0.4134 0.0 0
M  V30 6 C 2.5394 -0.3661 0.0 0
M  V30 7 C -3.0473 -2.5394 0.0 0
M  V30 8 C -3.9922 -0.1181 0.0 0
M  V30 9 N 3.6969 -1.2874 0.0 0
M  V30 10 C -4.2285 -1.5945 0.0 0
M  V30 11 C 5.0434 -0.626 0.0 0
M  V30 12 C 3.3544 -2.7402 0.0 0
M  V30 13 C -5.634 -2.126 0.0 0
M  V30 14 C 6.3781 -1.2638 0.0 0
M  V30 15 C 4.2757 -3.8977 0.0 0
M  V30 16 N -6.8152 -1.1811 0.0 0
M  V30 17 C 6.6971 -2.7166 0.0 0
M  V30 18 C 5.7639 -3.8859 0.0 0
M  V30 19 C -8.268 -1.5709 0.0 0
M  V30 20 C -6.7561 0.3307 0.0 0
M  V30 21 C -8.8113 -2.9646 0.0 0
M  V30 22 C -9.1066 -0.307 0.0 0
M  V30 23 C -8.1735 0.874 0.0 0
M  V30 24 C -5.6104 1.2992 0.0 0
M  V30 25 C -10.2996 -3.2009 0.0 0
M  V30 26 C -7.8664 -4.1103 0.0 0
M  V30 27 C -10.6185 -0.2244 0.0 0
M  V30 28 C -8.4333 2.3622 0.0 0
M  V30 29 C -5.8703 2.7875 0.0 0
M  V30 30 C -10.8429 -4.5946 0.0 0
M  V30 31 C -8.4097 -5.5041 0.0 0
M  V30 32 C -7.2876 3.3308 0.0 0
M  V30 33 C -9.898 -5.7403 0.0 0
M  V30 34 O -7.5475 4.819 0.0 0
M  V30 35 O -10.4413 -7.1341 0.0 0
M  V30 END ATOM
M  V30 BEGIN BOND
M  V30 1 1 1 2
M  V30 2 1 1 3
M  V30 3 2 2 4
M  V30 4 1 2 5
M  V30 5 1 3 6
M  V30 6 1 4 7
M  V30 7 2 5 8
M  V30 8 1 6 9
M  V30 9 2 7 10
M  V30 10 1 9 11
M  V30 11 1 9 12
M  V30 12 1 10 13
M  V30 13 1 11 14
M  V30 14 1 12 15
M  V30 15 1 13 16
M  V30 16 1 14 17
M  V30 17 1 15 18
M  V30 18 1 16 19
M  V30 19 1 16 20
M  V30 20 1 19 21
M  V30 21 2 19 22
M  V30 22 2 20 23
M  V30 23 1 20 24
M  V30 24 2 21 25
M  V30 25 1 21 26
M  V30 26 1 22 27
M  V30 27 1 23 28
M  V30 28 2 24 29
M  V30 29 1 25 30
M  V30 30 2 26 31
M  V30 31 2 28 32
M  V30 32 2 30 33
M  V30 33 1 32 34
M  V30 34 1 33 35
M  V30 35 1 8 10
M  V30 36 1 17 18
M  V30 37 1 22 23
M  V30 38 1 29 32
M  V30 39 1 31 33
M  V30 END BOND
M  V30 END CTAB
M  END
>  <Compound ID>
9

>  <Name>
Bazedoxifene

>  <Uniprot>
P03372

>  <Target>
ER

>  <Smiles>
CC1=C(C2=CC=C(O)C=C2)N(CC2=CC=C(OCCN3CCCCCC3)C=C2)C2=CC=C(O)C=C12

>  <Kd (nM)>


>  <Assay (Kd)>


>  <Ki (nM)>


>  <Assay (Ki)>


>  <IC50 (nM)>
23

>  <Assay (IC50)>
Displacement of [3H]-17-beta-estradiol from ERalpha by competitive binding affinity assay

>  <EC50 (nM)>


>  <Assay (EC50)>


>  <Article DOI>
10.1021/jm010086m

>  <Molecular Weight>
470.613

>  <Exact Mass>
470.256942948

>  <XLogP3>
6.12

>  <Heavy Atom Count>
35

>  <Ring Count>
5

>  <Hydrogen Bond Acceptor Count>
5

>  <Hydrogen Bond Donor Count>
2

>  <Rotatable Bond Count>
7

>  <Topological Polar Surface Area>
57.86

>  <Molecular Formula>
C30H34N2O3

>  <InChI>
InChI=1S/C30H34N2O3/c1-22-28-20-26(34)12-15-29(28)32(30(22)24-8-10-25(33)11-9-24)21-23-6-13-27(14-7-23)35-19-18-31-16-4-2-3-5-17-31/h6-15,20,33-34H,2-5,16-19,21H2,1H3

>  <InChI Key>
UCJGJABZCDBEDK-UHFFFAOYSA-N

>  <BindingDB>
50099585

>  <PubChem>
154257

>  <ChEMBL>
CHEMBL46740

$$$$
Compound 12
Actelion Java MolfileCreator 2.0

  0  0  0  0  0  0              0 V3000
M  V30 BEGIN CTAB
M  V30 COUNTS 31 35 0 0 0
M  V30 BEGIN ATOM
M  V30 1 O 0.0 0.0 0.0 0
M  V30 2 C 1.3474 0.6382 0.0 0
M  V30 3 C -1.241 0.8746 0.0 0
M  V30 4 C 1.4774 2.1393 0.0 0
M  V30 5 C 2.5648 -0.2127 0.0 0
M  V30 6 C -2.6121 0.26 0.0 0
M  V30 7 C 2.8248 2.7776 0.0 0
M  V30 8 C 3.9123 0.4255 0.0 0
M  V30 9 N -3.8532 1.1346 0.0 0
M  V30 10 C 4.0423 1.9266 0.0 0
M  V30 11 C -5.2833 0.6618 0.0 0
M  V30 12 C -3.8886 2.6475 0.0 0
M  V30 13 C 5.3897 2.5648 0.0 0 CFG=2
M  V30 14 C -6.1934 1.8793 0.0 0
M  V30 15 C -5.3306 3.1085 0.0 0
M  V30 16 C 6.6071 1.7138 0.0 0
M  V30 17 C 5.5197 4.0659 0.0 0 CFG=1
M  V30 18 C 7.9546 2.3521 0.0 0
M  V30 19 C 6.4535 0.2363 0.0 0
M  V30 20 C 4.2787 4.9406 0.0 0
M  V30 21 C 6.8672 4.7042 0.0 0
M  V30 22 C 9.172 1.501 0.0 0
M  V30 23 C 8.0846 3.8532 0.0 0
M  V30 24 C 7.6709 -0.6146 0.0 0
M  V30 25 C 4.4087 6.4417 0.0 0
M  V30 26 C 2.9076 4.3259 0.0 0
M  V30 27 C 9.0183 0.0236 0.0 0
M  V30 28 C 3.1676 7.3163 0.0 0
M  V30 29 C 1.6665 5.2006 0.0 0
M  V30 30 O 10.2358 -0.8273 0.0 0
M  V30 31 C 1.7965 6.7017 0.0 0
M  V30 END ATOM
M  V30 BEGIN BOND
M  V30 1 1 1 2
M  V30 2 1 1 3
M  V30 3 2 2 4
M  V30 4 1 2 5
M  V30 5 1 3 6
M  V30 6 1 4 7
M  V30 7 2 5 8
M  V30 8 1 6 9
M  V30 9 2 7 10
M  V30 10 1 9 11
M  V30 11 1 9 12
M  V30 12 1 13 10 CFG=1
M  V30 13 1 11 14
M  V30 14 1 12 15
M  V30 15 1 13 16
M  V30 16 1 13 17
M  V30 17 2 16 18
M  V30 18 1 16 19
M  V30 19 1 17 20 CFG=1
M  V30 20 1 17 21
M  V30 21 1 18 22
M  V30 22 1 18 23
M  V30 23 2 19 24
M  V30 24 2 20 25
M  V30 25 1 20 26
M  V30 26 2 22 27
M  V30 27 1 25 28
M  V30 28 2 26 29
M  V30 29 1 27 30
M  V30 30 2 28 31
M  V30 31 1 8 10
M  V30 32 1 14 15
M  V30 33 1 21 23
M  V30 34 1 24 27
M  V30 35 1 29 31
M  V30 END BOND
M  V30 BEGIN COLLECTION
M  V30 MDLV30/STEABS ATOMS=(2 13 17)
M  V30 END COLLECTION
M  V30 END CTAB
M  END
>  <Compound ID>
10

>  <Name>
Lasofoxifene

>  <Uniprot>
P03372

>  <Target>
ER

>  <Smiles>
OC1=CC=C2C(=C1)CC[C@H](C1=CC=CC=C1)[C@@H]2C1=CC=C(OCCN2CCCC2)C=C1

>  <Kd (nM)>


>  <Assay (Kd)>


>  <Ki (nM)>


>  <Assay (Ki)>


>  <IC50 (nM)>
4

>  <Assay (IC50)>
Displacement of [3H]-17-beta-estradiol from ERalpha by competitive binding affinity assay

>  <EC50 (nM)>


>  <Assay (EC50)>


>  <Article DOI>
10.1021/jm030086h

>  <Molecular Weight>
413.561

>  <Exact Mass>
413.235479232

>  <XLogP3>
6.1

>  <Heavy Atom Count>
31

>  <Ring Count>
5

>  <Hydrogen Bond Acceptor Count>
3

>  <Hydrogen Bond Donor Count>
1

>  <Rotatable Bond Count>
6

>  <Topological Polar Surface Area>
32.7

>  <Molecular Formula>
C28H31NO2

>  <InChI>
InChI=1S/C28H31NO2/c30-24-11-15-27-23(20-24)10-14-26(21-6-2-1-3-7-21)28(27)22-8-12-25(13-9-22)31-19-18-29-16-4-5-17-29/h1-3,6-9,11-13,15,20,26,28,30H,4-5,10,14,16-19H2/t26-,28+/m1/s1

>  <InChI Key>
GXESHMAMLJKROZ-IAPPQJPRSA-N

>  <BindingDB>
20606

>  <PubChem>
216416

>  <ChEMBL>
CHEMBL328190

$$$$
Compound 13
Actelion Java MolfileCreator 2.0

  0  0  0  0  0  0              0 V3000
M  V30 BEGIN CTAB
M  V30 COUNTS 32 34 0 0 0
M  V30 BEGIN ATOM
M  V30 1 S 0.0 0.0 0.0 0
M  V30 2 C 0.1063 1.5121 0.0 0
M  V30 3 N -1.0395 2.5044 0.0 0
M  V30 4 N 1.3703 2.3036 0.0 0
M  V30 5 C -2.5162 2.1736 0.0 0
M  V30 6 C -0.4725 3.8984 0.0 0
M  V30 7 C 2.7407 1.7365 0.0 0
M  V30 8 C 1.0159 3.7802 0.0 0
M  V30 9 C -2.9533 0.7442 0.0 0
M  V30 10 C -3.5558 3.2723 0.0 0
M  V30 11 O -1.264 5.186 0.0 0
M  V30 12 C 3.922 2.658 0.0 0
M  V30 13 C 2.9179 0.2598 0.0 0
M  V30 14 C 0.9686 5.2924 0.0 0
M  V30 15 C 2.4926 3.9811 0.0 0
M  V30 16 C -4.43 0.4134 0.0 0
M  V30 17 C -5.0325 2.9415 0.0 0
M  V30 18 C 5.2924 2.0909 0.0 0
M  V30 19 C 4.2882 -0.3071 0.0 0
M  V30 20 C -5.4696 1.5121 0.0 0
M  V30 21 C -4.8671 -1.0159 0.0 0
M  V30 22 F 6.4737 3.0124 0.0 0
M  V30 23 C 5.4696 0.6142 0.0 0
M  V30 24 C -6.9462 1.1813 0.0 0
M  V30 25 F -5.3042 -2.4453 0.0 0
M  V30 26 F -3.4376 -1.4294 0.0 0
M  V30 27 F -6.3201 -0.5788 0.0 0
M  V30 28 C 6.8399 0.0472 0.0 0
M  V30 29 N -8.4229 0.8505 0.0 0
M  V30 30 O 8.0212 0.9686 0.0 0
M  V30 31 N 7.0171 -1.4294 0.0 0
M  V30 32 C 8.3875 -1.9964 0.0 0
M  V30 END ATOM
M  V30 BEGIN BOND
M  V30 1 2 1 2
M  V30 2 1 2 3
M  V30 3 1 2 4
M  V30 4 1 3 5
M  V30 5 1 3 6
M  V30 6 1 4 7
M  V30 7 1 4 8
M  V30 8 2 5 9
M  V30 9 1 5 10
M  V30 10 2 6 11
M  V30 11 2 7 12
M  V30 12 1 7 13
M  V30 13 1 8 14
M  V30 14 1 8 15
M  V30 15 1 9 16
M  V30 16 2 10 17
M  V30 17 1 12 18
M  V30 18 2 13 19
M  V30 19 2 16 20
M  V30 20 1 16 21
M  V30 21 1 18 22
M  V30 22 2 18 23
M  V30 23 1 20 24
M  V30 24 1 21 25
M  V30 25 1 21 26
M  V30 26 1 21 27
M  V30 27 1 23 28
M  V30 28 3 24 29
M  V30 29 2 28 30
M  V30 30 1 28 31
M  V30 31 1 31 32
M  V30 32 1 6 8
M  V30 33 1 17 20
M  V30 34 1 19 23
M  V30 END BOND
M  V30 END CTAB
M  END
>  <Compound ID>
11

>  <Name>
Enzalutamide

>  <Uniprot>
P10275

>  <Target>
AR

>  <Smiles>
CNC(=O)C1=CC=C(N2C(=S)N(C3=CC=C(C#N)C(C(F)(F)F)=C3)C(=O)C2(C)C)C=C1F

>  <Kd (nM)>


>  <Assay (Kd)>


>  <Ki (nM)>


>  <Assay (Ki)>


>  <IC50 (nM)>
5600

>  <Assay (IC50)>
Displacement of Fluormone AL Green from AR by fluorescence polarization assay

>  <EC50 (nM)>


>  <Assay (EC50)>


>  <Article DOI>
10.1021/jm301714s

>  <Molecular Weight>
464.444

>  <Exact Mass>
464.093009632

>  <XLogP3>
3.61

>  <Heavy Atom Count>
32

>  <Ring Count>
3

>  <Hydrogen Bond Acceptor Count>
4

>  <Hydrogen Bond Donor Count>
1

>  <Rotatable Bond Count>
3

>  <Topological Polar Surface Area>
76.44

>  <Molecular Formula>
C21H16F4N4O2S

>  <InChI>
InChI=1S/C21H16F4N4O2S/c1-20(2)18(31)28(12-5-4-11(10-26)15(8-12)21(23,24)25)19(32)29(20)13-6-7-14(16(22)9-13)17(30)27-3/h4-9H,1-3H3,(H,27,30)

>  <InChI Key>
WXCXUHSOUPDCQV-UHFFFAOYSA-N

>  <BindingDB>
50425732

>  <PubChem>
15951529

>  <ChEMBL>
CHEMBL1082407

$$$$
Compound 14
Actelion Java MolfileCreator 2.0

  0  0  0  0  0  0              0 V3000
M  V30 BEGIN CTAB
M  V30 COUNTS 33 36 0 0 0
M  V30 BEGIN ATOM
M  V30 1 S 0.0 0.0 0.0 0
M  V30 2 C 0.1297 1.5099 0.0 0
M  V30 3 N -1.0027 2.5126 0.0 0
M  V30 4 N 1.4155 2.2885 0.0 0
M  V30 5 C -2.4772 2.1941 0.0 0
M  V30 6 C -0.4128 3.9046 0.0 0
M  V30 7 C 2.7839 1.6986 0.0 0
M  V30 8 C 1.0734 3.763 0.0 0
M  V30 9 C -3.5035 3.3148 0.0 0
M  V30 10 C -2.9373 0.7785 0.0 0
M  V30 11 O -1.1914 5.214 0.0 0
M  V30 12 C 3.9754 2.607 0.0 0
M  V30 13 C 2.9373 0.2241 0.0 0
M  V30 14 C 2.5598 3.8692 0.0 0
M  V30 15 C 0.9673 5.273 0.0 0
M  V30 16 N -4.9781 2.9963 0.0 0
M  V30 17 C -4.4118 0.46 0.0 0
M  V30 18 C 5.3438 2.0172 0.0 0
M  V30 19 C 4.3057 -0.3656 0.0 0
M  V30 20 C 2.4536 5.3792 0.0 0
M  V30 21 C -5.4381 1.5807 0.0 0
M  V30 22 C -4.8719 -0.9555 0.0 0
M  V30 23 F 6.5352 2.9255 0.0 0
M  V30 24 C 5.4971 0.5426 0.0 0
M  V30 25 C -6.9127 1.2622 0.0 0
M  V30 26 F -5.332 -2.3711 0.0 0
M  V30 27 F -3.4563 -1.3919 0.0 0
M  V30 28 F -6.3111 -0.4954 0.0 0
M  V30 29 C 6.8655 -0.0471 0.0 0
M  V30 30 N -8.3873 0.9437 0.0 0
M  V30 31 O 8.057 0.8611 0.0 0
M  V30 32 N 7.0189 -1.5217 0.0 0
M  V30 33 C 8.3873 -2.1115 0.0 0
M  V30 END ATOM
M  V30 BEGIN BOND
M  V30 1 2 1 2
M  V30 2 1 2 3
M  V30 3 1 2 4
M  V30 4 1 3 5
M  V30 5 1 3 6
M  V30 6 1 4 7
M  V30 7 1 4 8
M  V30 8 2 5 9
M  V30 9 1 5 10
M  V30 10 2 6 11
M  V30 11 2 7 12
M  V30 12 1 7 13
M  V30 13 1 8 14
M  V30 14 1 8 15
M  V30 15 1 9 16
M  V30 16 2 10 17
M  V30 17 1 12 18
M  V30 18 2 13 19
M  V30 19 1 14 20
M  V30 20 2 16 21
M  V30 21 1 17 22
M  V30 22 1 18 23
M  V30 23 2 18 24
M  V30 24 1 21 25
M  V30 25 1 22 26
M  V30 26 1 22 27
M  V30 27 1 22 28
M  V30 28 1 24 29
M  V30 29 3 25 30
M  V30 30 2 29 31
M  V30 31 1 29 32
M  V30 32 1 32 33
M  V30 33 1 6 8
M  V30 34 1 15 20
M  V30 35 1 17 21
M  V30 36 1 19 24
M  V30 END BOND
M  V30 END CTAB
M  END
>  <Compound ID>
12

>  <Name>
Apalutamide

>  <Uniprot>
P10275

>  <Target>
AR

>  <Smiles>
CNC(=O)C1=CC=C(N2C(=S)N(C3=CN=C(C#N)C(C(F)(F)F)=C3)C(=O)C23CCC3)C=C1F

>  <Kd (nM)>


>  <Assay (Kd)>


>  <Ki (nM)>


>  <Assay (Ki)>


>  <IC50 (nM)>
16

>  <Assay (IC50)>
Displacement of 16beta-[18F]fluoro-5alpha-DHT from AR by competitive-binding assay

>  <EC50 (nM)>


>  <Assay (EC50)>


>  <Article DOI>
10.1158/0008-5472.CAN-11-3948

>  <Molecular Weight>
477.443

>  <Exact Mass>
477.0882586

>  <XLogP3>
2.98

>  <Heavy Atom Count>
33

>  <Ring Count>
4

>  <Hydrogen Bond Acceptor Count>
5

>  <Hydrogen Bond Donor Count>
1

>  <Rotatable Bond Count>
3

>  <Topological Polar Surface Area>
89.33

>  <Molecular Formula>
C21H15F4N5O2S

>  <InChI>
InChI=1S/C21H15F4N5O2S/c1-27-17(31)13-4-3-11(8-15(13)22)30-19(33)29(18(32)20(30)5-2-6-20)12-7-14(21(23,24)25)16(9-26)28-10-12/h3-4,7-8,10H,2,5-6H2,1H3,(H,27,31)

>  <InChI Key>
HJBWBFZLDZWPHF-UHFFFAOYSA-N

>  <BindingDB>
50094975

>  <PubChem>
24872560

>  <ChEMBL>
CHEMBL3183409

$$$$
Compound 15
Actelion Java MolfileCreator 2.0

  0  0  0  0  0  0              0 V3000
M  V30 BEGIN CTAB
M  V30 COUNTS 29 30 0 0 0
M  V30 BEGIN ATOM
M  V30 1 S 0.0 0.0 0.0 0
M  V30 2 O -0.0117 -1.4859 0.0 0
M  V30 3 O -0.0117 1.5095 0.0 0
M  V30 4 C 1.4859 0.0117 0.0 0
M  V30 5 C -1.5095 0.0117 0.0 0
M  V30 6 C 2.2289 -1.2736 0.0 0
M  V30 7 C 2.2171 1.3208 0.0 0
M  V30 8 C -2.2642 -1.2736 0.0 0 CFG=2
M  V30 9 C 3.7148 -1.2618 0.0 0
M  V30 10 C 3.703 1.3326 0.0 0
M  V30 11 O -3.019 -2.5591 0.0 0
M  V30 12 C -3.5733 -0.5188 0.0 0
M  V30 13 C -0.9788 -2.0048 0.0 0
M  V30 14 C 4.446 0.0471 0.0 0
M  V30 15 O -3.5851 0.9906 0.0 0
M  V30 16 N -4.8823 -1.2618 0.0 0
M  V30 17 F 5.9319 0.0589 0.0 0
M  V30 18 C -6.1913 -0.5071 0.0 0
M  V30 19 C -7.5004 -1.25 0.0 0
M  V30 20 C -6.2031 1.0024 0.0 0
M  V30 21 C -8.8094 -0.4953 0.0 0
M  V30 22 C -7.5122 1.7571 0.0 0
M  V30 23 C -8.8212 1.0142 0.0 0
M  V30 24 C -10.1185 -1.2382 0.0 0
M  V30 25 C -10.1303 1.7689 0.0 0
M  V30 26 F -11.4275 -1.9812 0.0 0
M  V30 27 F -9.3755 -2.5237 0.0 0
M  V30 28 F -10.885 0.0707 0.0 0
M  V30 29 N -11.4393 2.5237 0.0 0
M  V30 END ATOM
M  V30 BEGIN BOND
M  V30 1 2 1 2
M  V30 2 2 1 3
M  V30 3 1 1 4
M  V30 4 1 1 5
M  V30 5 2 4 6
M  V30 6 1 4 7
M  V30 7 1 8 5 CFG=3
M  V30 8 1 6 9
M  V30 9 2 7 10
M  V30 10 1 8 11
M  V30 11 1 8 12
M  V30 12 1 8 13
M  V30 13 2 9 14
M  V30 14 2 12 15
M  V30 15 1 12 16
M  V30 16 1 14 17
M  V30 17 1 16 18
M  V30 18 2 18 19
M  V30 19 1 18 20
M  V30 20 1 19 21
M  V30 21 2 20 22
M  V30 22 2 21 23
M  V30 23 1 21 24
M  V30 24 1 23 25
M  V30 25 1 24 26
M  V30 26 1 24 27
M  V30 27 1 24 28
M  V30 28 3 25 29
M  V30 29 1 10 14
M  V30 30 1 22 23
M  V30 END BOND
M  V30 BEGIN COLLECTION
M  V30 MDLV30/STERAC1 ATOMS=(1 8)
M  V30 END COLLECTION
M  V30 END CTAB
M  END
>  <Compound ID>
13

>  <Name>
BICALUTAMIDE

>  <Uniprot>
P10275

>  <Target>
AR

>  <Smiles>
CC(O)(CS(=O)(=O)C1=CC=C(F)C=C1)C(=O)NC1=CC=C(C#N)C(C(F)(F)F)=C1

>  <Kd (nM)>


>  <Assay (Kd)>


>  <Ki (nM)>


>  <Assay (Ki)>


>  <IC50 (nM)>
160

>  <Assay (IC50)>
Displacement of 16beta-[18F]fluoro-5alpha-DHT from AR by competitive-binding assay

>  <EC50 (nM)>


>  <Assay (EC50)>


>  <Article DOI>
10.1158/0008-5472.CAN-11-3948

>  <Molecular Weight>
430.379

>  <Exact Mass>
430.061040808

>  <XLogP3>
2.31

>  <Heavy Atom Count>
29

>  <Ring Count>
2

>  <Hydrogen Bond Acceptor Count>
5

>  <Hydrogen Bond Donor Count>
2

>  <Rotatable Bond Count>
5

>  <Topological Polar Surface Area>
107.26

>  <Molecular Formula>
C18H14F4N2O4S

>  <InChI>
InChI=1S/C18H14F4N2O4S/c1-17(26,10-29(27,28)14-6-3-12(19)4-7-14)16(25)24-13-5-2-11(9-23)15(8-13)18(20,21)22/h2-8,26H,10H2,1H3,(H,24,25)

>  <InChI Key>
LKJPYSCBVHEWIU-UHFFFAOYSA-N

>  <BindingDB>
18525

>  <PubChem>
2375

>  <ChEMBL>
CHEMBL409

$$$$
Compound 16
Actelion Java MolfileCreator 2.0

  0  0  0  0  0  0              0 V3000
M  V30 BEGIN CTAB
M  V30 COUNTS 29 31 0 0 0
M  V30 BEGIN ATOM
M  V30 1 Cl 0.0 0.0 0.0 0
M  V30 2 C 0.4113 -1.4221 0.0 0
M  V30 3 C 1.857 -1.7629 0.0 0
M  V30 4 C -0.6346 -2.4917 0.0 0
M  V30 5 C 2.8795 -0.6699 0.0 0
M  V30 6 C 2.2683 -3.1851 0.0 0
M  V30 7 C -0.2233 -3.9138 0.0 0
M  V30 8 N 3.9021 0.4231 0.0 0
M  V30 9 C 1.2223 -4.2547 0.0 0
M  V30 10 O -1.2693 -4.9834 0.0 0
M  V30 11 C -2.7385 -4.619 0.0 0 CFG=1
M  V30 12 C -4.0313 -5.383 0.0 0
M  V30 13 C -3.5259 -3.3261 0.0 0
M  V30 14 C -4.8188 -4.0901 0.0 0 CFG=1
M  V30 15 C -3.2674 -6.6523 0.0 0
M  V30 16 C -5.3242 -6.1469 0.0 0
M  V30 17 C -4.3134 -2.0333 0.0 0
M  V30 18 C -2.2566 -2.5387 0.0 0
M  V30 19 N -6.288 -3.7258 0.0 0
M  V30 20 C -6.7229 -2.2801 0.0 0
M  V30 21 O -5.7003 -1.187 0.0 0
M  V30 22 C -8.192 -1.9157 0.0 0
M  V30 23 C -8.7679 -0.5171 0.0 0
M  V30 24 C -9.3438 -2.8678 0.0 0
M  V30 25 N -10.2724 -0.6229 0.0 0
M  V30 26 N -10.625 -2.0685 0.0 0
M  V30 27 C -12.0236 -2.6209 0.0 0
M  V30 28 C -13.2224 -1.6924 0.0 0
M  V30 29 O -14.6211 -2.2448 0.0 0
M  V30 END ATOM
M  V30 BEGIN BOND
M  V30 1 1 1 2
M  V30 2 2 2 3
M  V30 3 1 2 4
M  V30 4 1 3 5
M  V30 5 1 3 6
M  V30 6 2 4 7
M  V30 7 3 5 8
M  V30 8 2 6 9
M  V30 9 1 7 10
M  V30 10 1 11 10 CFG=1
M  V30 11 1 11 12
M  V30 12 1 11 13
M  V30 13 1 12 14
M  V30 14 1 12 15
M  V30 15 1 12 16
M  V30 16 1 13 17
M  V30 17 1 13 18
M  V30 18 1 14 19 CFG=3
M  V30 19 1 19 20
M  V30 20 2 20 21
M  V30 21 1 20 22
M  V30 22 1 22 23
M  V30 23 2 22 24
M  V30 24 2 23 25
M  V30 25 1 24 26
M  V30 26 1 26 27
M  V30 27 1 27 28
M  V30 28 1 28 29
M  V30 29 1 7 9
M  V30 30 1 13 14
M  V30 31 1 25 26
M  V30 END BOND
M  V30 BEGIN COLLECTION
M  V30 MDLV30/STEABS ATOMS=(2 11 14)
M  V30 END COLLECTION
M  V30 END CTAB
M  END
>  <Compound ID>
14

>  <Name>


>  <Uniprot>
P10275

>  <Target>
AR

>  <Smiles>
CC1(C)[C@H](NC(=O)C2=CN(CCO)N=C2)C(C)(C)[C@H]1OC1=CC=C(C#N)C(Cl)=C1

>  <Kd (nM)>


>  <Assay (Kd)>


>  <Ki (nM)>


>  <Assay (Ki)>


>  <IC50 (nM)>
59

>  <Assay (IC50)>
Inhibition AR overexpressed in LNCAP cells by luciferase reporter gene assay

>  <EC50 (nM)>


>  <Assay (EC50)>


>  <Article DOI>
10.1021/jm201059s

>  <Molecular Weight>
416.909

>  <Exact Mass>
416.16151834

>  <XLogP3>
3.06

>  <Heavy Atom Count>
29

>  <Ring Count>
3

>  <Hydrogen Bond Acceptor Count>
6

>  <Hydrogen Bond Donor Count>
2

>  <Rotatable Bond Count>
6

>  <Topological Polar Surface Area>
100.17

>  <Molecular Formula>
C21H25ClN4O3

>  <InChI>
InChI=1S/C21H25ClN4O3/c1-20(2)18(25-17(28)14-11-24-26(12-14)7-8-27)21(3,4)19(20)29-15-6-5-13(10-23)16(22)9-15/h5-6,9,11-12,18-19,27H,7-8H2,1-4H3,(H,25,28)/t18-,19-

>  <InChI Key>
HJJNHDLYWZTKGQ-WGSAOQKQSA-N

>  <BindingDB>
50356995

>  <PubChem>
56643472

>  <ChEMBL>
CHEMBL1916251

$$$$
Compound 17
Actelion Java MolfileCreator 2.0

  0  0  0  0  0  0              0 V3000
M  V30 BEGIN CTAB
M  V30 COUNTS 24 26 0 0 0
M  V30 BEGIN ATOM
M  V30 1 Cl 0.0 0.0 0.0 0
M  V30 2 C -0.0589 -1.4851 0.0 0
M  V30 3 C 1.2022 -2.2631 0.0 0
M  V30 4 C -1.3908 -2.1806 0.0 0
M  V30 5 C 2.5106 -1.5441 0.0 0
M  V30 6 C 1.1433 -3.7483 0.0 0
M  V30 7 C -1.4498 -3.6658 0.0 0
M  V30 8 N 3.819 -0.8251 0.0 0
M  V30 9 C -0.1885 -4.4437 0.0 0
M  V30 10 N -2.7817 -4.3612 0.0 0
M  V30 11 N -2.9939 -5.8346 0.0 0
M  V30 12 C -4.1373 -3.7011 0.0 0
M  V30 13 C -4.4791 -6.0822 0.0 0
M  V30 14 C -5.1863 -4.7738 0.0 0
M  V30 15 C -4.4084 -2.216 0.0 0
M  V30 16 C -5.1392 -7.4141 0.0 0
M  V30 17 C -6.6833 -4.5616 0.0 0
M  V30 18 C -7.2609 -3.1589 0.0 0
M  V30 19 C -6.3533 -1.9684 0.0 0
M  V30 20 C -8.7579 -2.9468 0.0 0
M  V30 21 C -6.9308 -0.5657 0.0 0
M  V30 22 C -9.3354 -1.5441 0.0 0
M  V30 23 C -8.4278 -0.3536 0.0 0
M  V30 24 F -9.0054 1.049 0.0 0
M  V30 END ATOM
M  V30 BEGIN BOND
M  V30 1 1 1 2
M  V30 2 2 2 3
M  V30 3 1 2 4
M  V30 4 1 3 5
M  V30 5 1 3 6
M  V30 6 2 4 7
M  V30 7 3 5 8
M  V30 8 2 6 9
M  V30 9 1 7 10
M  V30 10 1 10 11
M  V30 11 1 10 12
M  V30 12 2 11 13
M  V30 13 2 12 14
M  V30 14 1 12 15
M  V30 15 1 13 16
M  V30 16 1 14 17
M  V30 17 1 17 18
M  V30 18 2 18 19
M  V30 19 1 18 20
M  V30 20 1 19 21
M  V30 21 2 20 22
M  V30 22 2 21 23
M  V30 23 1 23 24
M  V30 24 1 7 9
M  V30 25 1 13 14
M  V30 26 1 22 23
M  V30 END BOND
M  V30 END CTAB
M  END
>  <Compound ID>
15

>  <Name>


>  <Uniprot>
P10275

>  <Target>
AR

>  <Smiles>
CC1=NN(C2=CC=C(C#N)C(Cl)=C2)C(C)=C1CC1=CC=C(F)C=C1

>  <Kd (nM)>


>  <Assay (Kd)>


>  <Ki (nM)>


>  <Assay (Ki)>


>  <IC50 (nM)>
0.47

>  <Assay (IC50)>
Displacement of [17-alpha-methyl-3H]mibolerone from AR expressed in HEK293 cells

>  <EC50 (nM)>


>  <Assay (EC50)>


>  <Article DOI>
10.1016/j.bmc.2012.02.005

>  <Molecular Weight>
339.801

>  <Exact Mass>
339.09385338

>  <XLogP3>
5.06

>  <Heavy Atom Count>
24

>  <Ring Count>
3

>  <Hydrogen Bond Acceptor Count>
3

>  <Hydrogen Bond Donor Count>
0

>  <Rotatable Bond Count>
3

>  <Topological Polar Surface Area>
41.61

>  <Molecular Formula>
C19H15ClFN3

>  <InChI>
InChI=1S/C19H15ClFN3/c1-12-18(9-14-3-6-16(21)7-4-14)13(2)24(23-12)17-8-5-15(11-22)19(20)10-17/h3-8,10H,9H2,1-2H3

>  <InChI Key>
XPBGWWALRCLTNG-UHFFFAOYSA-N

>  <BindingDB>
50366207

>  <PubChem>
57398385

>  <ChEMBL>
CHEMBL1957612

$$$$
Compound 18
Actelion Java MolfileCreator 2.0

  0  0  0  0  0  0              0 V3000
M  V30 BEGIN CTAB
M  V30 COUNTS 37 42 0 0 0
M  V30 BEGIN ATOM
M  V30 1 O 0.0 0.0 0.0 0
M  V30 2 C 0.0708 -1.4874 0.0 0
M  V30 3 N 1.393 -2.1603 0.0 0
M  V30 4 C -1.2041 -2.2902 0.0 0
M  V30 5 C 2.6444 -1.334 0.0 0
M  V30 6 N -1.1333 -3.7777 0.0 0
M  V30 7 N -2.5499 -1.5937 0.0 0
M  V30 8 C -2.4083 -4.5805 0.0 0
M  V30 9 C -3.8249 -2.3965 0.0 0
M  V30 10 N -2.3374 -6.0679 0.0 0
M  V30 11 C -3.7541 -3.8839 0.0 0
M  V30 12 N -5.2888 -1.9951 0.0 0
M  V30 13 C -1.0152 -6.7408 0.0 0
M  V30 14 C -5.1707 -4.4152 0.0 0
M  V30 15 C -6.1152 -3.2464 0.0 0
M  V30 16 N -0.7909 -8.2165 0.0 0
M  V30 17 C 0.3069 -6.0443 0.0 0
M  V30 18 C -5.7138 -5.8082 0.0 0
M  V30 19 C -7.6144 -3.4707 0.0 0
M  V30 20 N 0.6847 -8.4408 0.0 0
M  V30 21 C -1.8652 -9.2672 0.0 0
M  V30 22 C 1.3576 -7.095 0.0 0
M  V30 23 C -7.2131 -6.0325 0.0 0
M  V30 24 C -8.1575 -4.8638 0.0 0
M  V30 25 C -1.4874 -10.7075 0.0 0
M  V30 26 C 2.8333 -6.8471 0.0 0
M  V30 27 O -7.7561 -7.4256 0.0 0
M  V30 28 C -9.6568 -5.0881 0.0 0
M  V30 29 C 3.9902 -5.8909 0.0 0
M  V30 30 C 4.2263 -7.3665 0.0 0
M  V30 31 C -6.8235 -8.5825 0.0 0
M  V30 32 C -10.3533 -6.4103 0.0 0
M  V30 33 C -10.7311 -4.0138 0.0 0
M  V30 34 O -11.8526 -6.1624 0.0 0
M  V30 35 C -9.6804 -7.7325 0.0 0
M  V30 36 N -12.0769 -4.6867 0.0 0
M  V30 37 C -10.5068 -2.5145 0.0 0
M  V30 END ATOM
M  V30 BEGIN BOND
M  V30 1 2 1 2
M  V30 2 1 2 3
M  V30 3 1 2 4
M  V30 4 1 3 5
M  V30 5 2 4 6
M  V30 6 1 4 7
M  V30 7 1 6 8
M  V30 8 2 7 9
M  V30 9 1 8 10
M  V30 10 2 8 11
M  V30 11 1 9 12
M  V30 12 1 10 13
M  V30 13 1 11 14
M  V30 14 1 12 15
M  V30 15 1 13 16
M  V30 16 2 13 17
M  V30 17 1 14 18
M  V30 18 1 15 19
M  V30 19 1 16 20
M  V30 20 1 16 21
M  V30 21 1 17 22
M  V30 22 2 18 23
M  V30 23 2 19 24
M  V30 24 1 21 25
M  V30 25 1 22 26
M  V30 26 1 23 27
M  V30 27 1 24 28
M  V30 28 1 26 29
M  V30 29 1 26 30
M  V30 30 1 27 31
M  V30 31 2 28 32
M  V30 32 1 28 33
M  V30 33 1 32 34
M  V30 34 1 32 35
M  V30 35 2 33 36
M  V30 36 1 33 37
M  V30 37 1 9 11
M  V30 38 2 14 15
M  V30 39 2 20 22
M  V30 40 1 23 24
M  V30 41 1 29 30
M  V30 42 1 34 36
M  V30 END BOND
M  V30 END CTAB
M  END
>  <Compound ID>
16

>  <Name>
HJB97

>  <Uniprot>
P25440

>  <Target>
BRD2

>  <Smiles>
CCN1N=C(C2CC2)C=C1NC1=NC(C(=O)NC)=NC2=C1C1=CC(OC)=C(C3=C(C)ON=C3C)C=C1[NH]2

>  <Kd (nM)>


>  <Assay (Kd)>


>  <Ki (nM)>
0.9/0.27

>  <Assay (Ki)>
FP in BRD2 BD1/2

>  <IC50 (nM)>
3.1/3.9

>  <Assay (IC50)>
Displacement of a FAM-labeled fluorescent probe based upon ZBA248 from BRD2 BD1/2 domain by fluorescence polarization based competitive binding affinity assay

>  <EC50 (nM)>


>  <Assay (EC50)>


>  <Article DOI>
10.1021/acs.jmedchem.6b01816

>  <Molecular Weight>
500.563

>  <Exact Mass>
500.228436756

>  <XLogP3>
3.85

>  <Heavy Atom Count>
37

>  <Ring Count>
6

>  <Hydrogen Bond Acceptor Count>
9

>  <Hydrogen Bond Donor Count>
3

>  <Rotatable Bond Count>
7

>  <Topological Polar Surface Area>
135.78

>  <Molecular Formula>
C26H28N8O3

>  <InChI>
InChI=1S/C26H28N8O3/c1-6-34-20(11-17(32-34)14-7-8-14)29-24-22-15-10-19(36-5)16(21-12(2)33-37-13(21)3)9-18(15)28-23(22)30-25(31-24)26(35)27-4/h9-11,14H,6-8H2,1-5H3,(H,27,35)(H2,28,29,30,31)

>  <InChI Key>
JNYHQYRTYFSMSQ-UHFFFAOYSA-N

>  <BindingDB>
50459819

>  <PubChem>
135397673

>  <ChEMBL>
CHEMBL4228445

$$$$
Compound 19
Actelion Java MolfileCreator 2.0

  0  0  0  0  0  0              0 V3000
M  V30 BEGIN CTAB
M  V30 COUNTS 37 42 0 0 0
M  V30 BEGIN ATOM
M  V30 1 O 0.0 0.0 0.0 0
M  V30 2 C 0.0708 -1.4874 0.0 0
M  V30 3 N 1.393 -2.1603 0.0 0
M  V30 4 C -1.2041 -2.2902 0.0 0
M  V30 5 C 2.6444 -1.334 0.0 0
M  V30 6 N -1.1333 -3.7777 0.0 0
M  V30 7 N -2.5499 -1.5937 0.0 0
M  V30 8 C -2.4083 -4.5805 0.0 0
M  V30 9 C -3.8249 -2.3965 0.0 0
M  V30 10 N -2.3374 -6.0679 0.0 0
M  V30 11 C -3.7541 -3.8839 0.0 0
M  V30 12 N -5.2888 -1.9951 0.0 0
M  V30 13 C -1.0152 -6.7408 0.0 0
M  V30 14 C -5.1707 -4.4152 0.0 0
M  V30 15 C -6.1152 -3.2464 0.0 0
M  V30 16 N -0.7909 -8.2165 0.0 0
M  V30 17 C 0.3069 -6.0443 0.0 0
M  V30 18 C -5.7138 -5.8082 0.0 0
M  V30 19 C -7.6144 -3.4707 0.0 0
M  V30 20 N 0.6847 -8.4408 0.0 0
M  V30 21 C -1.8652 -9.2672 0.0 0
M  V30 22 C 1.3576 -7.095 0.0 0
M  V30 23 C -7.2131 -6.0325 0.0 0
M  V30 24 C -8.1575 -4.8638 0.0 0
M  V30 25 C -1.4874 -10.7075 0.0 0
M  V30 26 C 2.8333 -6.8471 0.0 0
M  V30 27 O -7.7561 -7.4256 0.0 0
M  V30 28 C -9.6568 -5.0881 0.0 0
M  V30 29 C 3.9902 -5.8909 0.0 0
M  V30 30 C 4.2263 -7.3665 0.0 0
M  V30 31 C -6.8235 -8.5825 0.0 0
M  V30 32 C -10.3533 -6.4103 0.0 0
M  V30 33 C -10.7311 -4.0138 0.0 0
M  V30 34 O -11.8526 -6.1624 0.0 0
M  V30 35 C -9.6804 -7.7325 0.0 0
M  V30 36 N -12.0769 -4.6867 0.0 0
M  V30 37 C -10.5068 -2.5145 0.0 0
M  V30 END ATOM
M  V30 BEGIN BOND
M  V30 1 2 1 2
M  V30 2 1 2 3
M  V30 3 1 2 4
M  V30 4 1 3 5
M  V30 5 2 4 6
M  V30 6 1 4 7
M  V30 7 1 6 8
M  V30 8 2 7 9
M  V30 9 1 8 10
M  V30 10 2 8 11
M  V30 11 1 9 12
M  V30 12 1 10 13
M  V30 13 1 11 14
M  V30 14 1 12 15
M  V30 15 1 13 16
M  V30 16 2 13 17
M  V30 17 1 14 18
M  V30 18 1 15 19
M  V30 19 1 16 20
M  V30 20 1 16 21
M  V30 21 1 17 22
M  V30 22 2 18 23
M  V30 23 2 19 24
M  V30 24 1 21 25
M  V30 25 1 22 26
M  V30 26 1 23 27
M  V30 27 1 24 28
M  V30 28 1 26 29
M  V30 29 1 26 30
M  V30 30 1 27 31
M  V30 31 2 28 32
M  V30 32 1 28 33
M  V30 33 1 32 34
M  V30 34 1 32 35
M  V30 35 2 33 36
M  V30 36 1 33 37
M  V30 37 1 9 11
M  V30 38 2 14 15
M  V30 39 2 20 22
M  V30 40 1 23 24
M  V30 41 1 29 30
M  V30 42 1 34 36
M  V30 END BOND
M  V30 END CTAB
M  END
>  <Compound ID>
16

>  <Name>
HJB97

>  <Uniprot>
Q15059

>  <Target>
BRD3

>  <Smiles>
CCN1N=C(C2CC2)C=C1NC1=NC(C(=O)NC)=NC2=C1C1=CC(OC)=C(C3=C(C)ON=C3C)C=C1[NH]2

>  <Kd (nM)>


>  <Assay (Kd)>


>  <Ki (nM)>
0.18/0.21

>  <Assay (Ki)>
FP in BRD3 BD1/2

>  <IC50 (nM)>
6.6/1.9

>  <Assay (IC50)>
Displacement of a FAM-labeled fluorescent probe based upon ZBA248 from BRD3 BD1/2 domain by fluorescence polarization based competitive binding affinity assay

>  <EC50 (nM)>


>  <Assay (EC50)>


>  <Article DOI>
10.1021/acs.jmedchem.6b01816

>  <Molecular Weight>
500.563

>  <Exact Mass>
500.228436756

>  <XLogP3>
3.85

>  <Heavy Atom Count>
37

>  <Ring Count>
6

>  <Hydrogen Bond Acceptor Count>
9

>  <Hydrogen Bond Donor Count>
3

>  <Rotatable Bond Count>
7

>  <Topological Polar Surface Area>
135.78

>  <Molecular Formula>
C26H28N8O3

>  <InChI>
InChI=1S/C26H28N8O3/c1-6-34-20(11-17(32-34)14-7-8-14)29-24-22-15-10-19(36-5)16(21-12(2)33-37-13(21)3)9-18(15)28-23(22)30-25(31-24)26(35)27-4/h9-11,14H,6-8H2,1-5H3,(H,27,35)(H2,28,29,30,31)

>  <InChI Key>
JNYHQYRTYFSMSQ-UHFFFAOYSA-N

>  <BindingDB>
50459819

>  <PubChem>
135397673

>  <ChEMBL>
CHEMBL4228445

$$$$
Compound 20
Actelion Java MolfileCreator 2.0

  0  0  0  0  0  0              0 V3000
M  V30 BEGIN CTAB
M  V30 COUNTS 37 42 0 0 0
M  V30 BEGIN ATOM
M  V30 1 O 0.0 0.0 0.0 0
M  V30 2 C 0.0708 -1.4874 0.0 0
M  V30 3 N 1.393 -2.1603 0.0 0
M  V30 4 C -1.2041 -2.2902 0.0 0
M  V30 5 C 2.6444 -1.334 0.0 0
M  V30 6 N -1.1333 -3.7777 0.0 0
M  V30 7 N -2.5499 -1.5937 0.0 0
M  V30 8 C -2.4083 -4.5805 0.0 0
M  V30 9 C -3.8249 -2.3965 0.0 0
M  V30 10 N -2.3374 -6.0679 0.0 0
M  V30 11 C -3.7541 -3.8839 0.0 0
M  V30 12 N -5.2888 -1.9951 0.0 0
M  V30 13 C -1.0152 -6.7408 0.0 0
M  V30 14 C -5.1707 -4.4152 0.0 0
M  V30 15 C -6.1152 -3.2464 0.0 0
M  V30 16 N -0.7909 -8.2165 0.0 0
M  V30 17 C 0.3069 -6.0443 0.0 0
M  V30 18 C -5.7138 -5.8082 0.0 0
M  V30 19 C -7.6144 -3.4707 0.0 0
M  V30 20 N 0.6847 -8.4408 0.0 0
M  V30 21 C -1.8652 -9.2672 0.0 0
M  V30 22 C 1.3576 -7.095 0.0 0
M  V30 23 C -7.2131 -6.0325 0.0 0
M  V30 24 C -8.1575 -4.8638 0.0 0
M  V30 25 C -1.4874 -10.7075 0.0 0
M  V30 26 C 2.8333 -6.8471 0.0 0
M  V30 27 O -7.7561 -7.4256 0.0 0
M  V30 28 C -9.6568 -5.0881 0.0 0
M  V30 29 C 3.9902 -5.8909 0.0 0
M  V30 30 C 4.2263 -7.3665 0.0 0
M  V30 31 C -6.8235 -8.5825 0.0 0
M  V30 32 C -10.3533 -6.4103 0.0 0
M  V30 33 C -10.7311 -4.0138 0.0 0
M  V30 34 O -11.8526 -6.1624 0.0 0
M  V30 35 C -9.6804 -7.7325 0.0 0
M  V30 36 N -12.0769 -4.6867 0.0 0
M  V30 37 C -10.5068 -2.5145 0.0 0
M  V30 END ATOM
M  V30 BEGIN BOND
M  V30 1 2 1 2
M  V30 2 1 2 3
M  V30 3 1 2 4
M  V30 4 1 3 5
M  V30 5 2 4 6
M  V30 6 1 4 7
M  V30 7 1 6 8
M  V30 8 2 7 9
M  V30 9 1 8 10
M  V30 10 2 8 11
M  V30 11 1 9 12
M  V30 12 1 10 13
M  V30 13 1 11 14
M  V30 14 1 12 15
M  V30 15 1 13 16
M  V30 16 2 13 17
M  V30 17 1 14 18
M  V30 18 1 15 19
M  V30 19 1 16 20
M  V30 20 1 16 21
M  V30 21 1 17 22
M  V30 22 2 18 23
M  V30 23 2 19 24
M  V30 24 1 21 25
M  V30 25 1 22 26
M  V30 26 1 23 27
M  V30 27 1 24 28
M  V30 28 1 26 29
M  V30 29 1 26 30
M  V30 30 1 27 31
M  V30 31 2 28 32
M  V30 32 1 28 33
M  V30 33 1 32 34
M  V30 34 1 32 35
M  V30 35 2 33 36
M  V30 36 1 33 37
M  V30 37 1 9 11
M  V30 38 2 14 15
M  V30 39 2 20 22
M  V30 40 1 23 24
M  V30 41 1 29 30
M  V30 42 1 34 36
M  V30 END BOND
M  V30 END CTAB
M  END
>  <Compound ID>
16

>  <Name>
HJB97

>  <Uniprot>
O60885

>  <Target>
BRD4

>  <Smiles>
CCN1N=C(C2CC2)C=C1NC1=NC(C(=O)NC)=NC2=C1C1=CC(OC)=C(C3=C(C)ON=C3C)C=C1[NH]2

>  <Kd (nM)>


>  <Assay (Kd)>


>  <Ki (nM)>
0.5/1.0

>  <Assay (Ki)>
FP in BRD4 BD1/2

>  <IC50 (nM)>
7.0/7.0

>  <Assay (IC50)>
Displacement of a FAM-labeled fluorescent probe based upon ZBA248 from BRD4 BD1/2 domain by fluorescence polarization based competitive binding affinity assay

>  <EC50 (nM)>


>  <Assay (EC50)>


>  <Article DOI>
10.1021/acs.jmedchem.6b01816

>  <Molecular Weight>
500.563

>  <Exact Mass>
500.228436756

>  <XLogP3>
3.85

>  <Heavy Atom Count>
37

>  <Ring Count>
6

>  <Hydrogen Bond Acceptor Count>
9

>  <Hydrogen Bond Donor Count>
3

>  <Rotatable Bond Count>
7

>  <Topological Polar Surface Area>
135.78

>  <Molecular Formula>
C26H28N8O3

>  <InChI>
InChI=1S/C26H28N8O3/c1-6-34-20(11-17(32-34)14-7-8-14)29-24-22-15-10-19(36-5)16(21-12(2)33-37-13(21)3)9-18(15)28-23(22)30-25(31-24)26(35)27-4/h9-11,14H,6-8H2,1-5H3,(H,27,35)(H2,28,29,30,31)

>  <InChI Key>
JNYHQYRTYFSMSQ-UHFFFAOYSA-N

>  <BindingDB>
50459819

>  <PubChem>
135397673

>  <ChEMBL>
CHEMBL4228445

$$$$
Compound 21
Actelion Java MolfileCreator 2.0

  0  0  0  0  0  0              0 V3000
M  V30 BEGIN CTAB
M  V30 COUNTS 26 29 0 0 0
M  V30 BEGIN ATOM
M  V30 1 O 0.0 0.0 0.0 0
M  V30 2 C 0.4624 1.4347 0.0 0
M  V30 3 N -0.5454 2.5729 0.0 0
M  V30 4 C 1.9208 1.7429 0.0 0
M  V30 5 C -2.0275 2.2884 0.0 0
M  V30 6 N 2.9049 0.6284 0.0 0
M  V30 7 N 2.3832 3.1776 0.0 0
M  V30 8 C 4.3633 0.9367 0.0 0
M  V30 9 C 3.8416 3.4859 0.0 0
M  V30 10 N 5.5609 0.0474 0.0 0
M  V30 11 C 4.8258 2.3714 0.0 0
M  V30 12 C 6.7703 0.9367 0.0 0
M  V30 13 C 6.3197 2.3714 0.0 0
M  V30 14 C 8.2287 0.6165 0.0 0
M  V30 15 C 7.3276 3.4978 0.0 0
M  V30 16 C 9.2366 1.7429 0.0 0
M  V30 17 C 8.786 3.1776 0.0 0
M  V30 18 C 10.695 1.4228 0.0 0
M  V30 19 O 9.7939 4.3041 0.0 0
M  V30 20 C 11.8096 2.4306 0.0 0
M  V30 21 C 11.2878 0.0592 0.0 0
M  V30 22 C 9.3314 5.7506 0.0 0
M  V30 23 O 13.0901 1.6718 0.0 0
M  V30 24 C 11.6554 3.9365 0.0 0
M  V30 25 N 12.77 0.2134 0.0 0
M  V30 26 C 10.5053 -1.2212 0.0 0
M  V30 END ATOM
M  V30 BEGIN BOND
M  V30 1 2 1 2
M  V30 2 1 2 3
M  V30 3 1 2 4
M  V30 4 1 3 5
M  V30 5 2 4 6
M  V30 6 1 4 7
M  V30 7 1 6 8
M  V30 8 2 7 9
M  V30 9 1 8 10
M  V30 10 2 8 11
M  V30 11 1 10 12
M  V30 12 1 11 13
M  V30 13 1 12 14
M  V30 14 1 13 15
M  V30 15 2 14 16
M  V30 16 2 15 17
M  V30 17 1 16 18
M  V30 18 1 17 19
M  V30 19 2 18 20
M  V30 20 1 18 21
M  V30 21 1 19 22
M  V30 22 1 20 23
M  V30 23 1 20 24
M  V30 24 2 21 25
M  V30 25 1 21 26
M  V30 26 1 9 11
M  V30 27 2 12 13
M  V30 28 1 16 17
M  V30 29 1 23 25
M  V30 END BOND
M  V30 END CTAB
M  END
>  <Compound ID>
17

>  <Name>


>  <Uniprot>
P25440

>  <Target>
BRD2

>  <Smiles>
CNC(=O)C1=NC=C2C(=N1)[NH]C1=CC(C3=C(C)ON=C3C)=C(OC)C=C12

>  <Kd (nM)>


>  <Assay (Kd)>


>  <Ki (nM)>
101/57.3

>  <Assay (Ki)>
FP in BRD2 BD1/2

>  <IC50 (nM)>
218/224

>  <Assay (IC50)>
Displacement of a FAM-labeled fluorescent probe based upon ZBA248 from BRD2 BD1/2 domain by fluorescence polarization based competitive binding affinity assay

>  <EC50 (nM)>


>  <Assay (EC50)>


>  <Article DOI>
10.1021/acs.jmedchem.6b01816

>  <Molecular Weight>
351.366

>  <Exact Mass>
351.133139404

>  <XLogP3>
2.46

>  <Heavy Atom Count>
26

>  <Ring Count>
4

>  <Hydrogen Bond Acceptor Count>
6

>  <Hydrogen Bond Donor Count>
2

>  <Rotatable Bond Count>
3

>  <Topological Polar Surface Area>
105.93

>  <Molecular Formula>
C18H17N5O3

>  <InChI>
InChI=1S/C18H17N5O3/c1-8-15(9(2)26-23-8)11-5-13-10(6-14(11)25-4)12-7-20-17(18(24)19-3)22-16(12)21-13/h5-7H,1-4H3,(H,19,24)(H,20,21,22)

>  <InChI Key>
SMYWDSZXWMKRLF-UHFFFAOYSA-N

>  <BindingDB>
50459820

>  <PubChem>
145988169

>  <ChEMBL>
CHEMBL4228904

$$$$
Compound 22
Actelion Java MolfileCreator 2.0

  0  0  0  0  0  0              0 V3000
M  V30 BEGIN CTAB
M  V30 COUNTS 26 29 0 0 0
M  V30 BEGIN ATOM
M  V30 1 O 0.0 0.0 0.0 0
M  V30 2 C 0.4624 1.4347 0.0 0
M  V30 3 N -0.5454 2.5729 0.0 0
M  V30 4 C 1.9208 1.7429 0.0 0
M  V30 5 C -2.0275 2.2884 0.0 0
M  V30 6 N 2.9049 0.6284 0.0 0
M  V30 7 N 2.3832 3.1776 0.0 0
M  V30 8 C 4.3633 0.9367 0.0 0
M  V30 9 C 3.8416 3.4859 0.0 0
M  V30 10 N 5.5609 0.0474 0.0 0
M  V30 11 C 4.8258 2.3714 0.0 0
M  V30 12 C 6.7703 0.9367 0.0 0
M  V30 13 C 6.3197 2.3714 0.0 0
M  V30 14 C 8.2287 0.6165 0.0 0
M  V30 15 C 7.3276 3.4978 0.0 0
M  V30 16 C 9.2366 1.7429 0.0 0
M  V30 17 C 8.786 3.1776 0.0 0
M  V30 18 C 10.695 1.4228 0.0 0
M  V30 19 O 9.7939 4.3041 0.0 0
M  V30 20 C 11.8096 2.4306 0.0 0
M  V30 21 C 11.2878 0.0592 0.0 0
M  V30 22 C 9.3314 5.7506 0.0 0
M  V30 23 O 13.0901 1.6718 0.0 0
M  V30 24 C 11.6554 3.9365 0.0 0
M  V30 25 N 12.77 0.2134 0.0 0
M  V30 26 C 10.5053 -1.2212 0.0 0
M  V30 END ATOM
M  V30 BEGIN BOND
M  V30 1 2 1 2
M  V30 2 1 2 3
M  V30 3 1 2 4
M  V30 4 1 3 5
M  V30 5 2 4 6
M  V30 6 1 4 7
M  V30 7 1 6 8
M  V30 8 2 7 9
M  V30 9 1 8 10
M  V30 10 2 8 11
M  V30 11 1 10 12
M  V30 12 1 11 13
M  V30 13 1 12 14
M  V30 14 1 13 15
M  V30 15 2 14 16
M  V30 16 2 15 17
M  V30 17 1 16 18
M  V30 18 1 17 19
M  V30 19 2 18 20
M  V30 20 1 18 21
M  V30 21 1 19 22
M  V30 22 1 20 23
M  V30 23 1 20 24
M  V30 24 2 21 25
M  V30 25 1 21 26
M  V30 26 1 9 11
M  V30 27 2 12 13
M  V30 28 1 16 17
M  V30 29 1 23 25
M  V30 END BOND
M  V30 END CTAB
M  END
>  <Compound ID>
17

>  <Name>


>  <Uniprot>
Q15059

>  <Target>
BRD3

>  <Smiles>
CNC(=O)C1=NC=C2C(=N1)[NH]C1=CC(C3=C(C)ON=C3C)=C(OC)C=C12

>  <Kd (nM)>


>  <Assay (Kd)>


>  <Ki (nM)>
82.1/42.4

>  <Assay (Ki)>
FP in BRD3 BD1/2

>  <IC50 (nM)>
294/189

>  <Assay (IC50)>
Displacement of a FAM-labeled fluorescent probe based upon ZBA248 from BRD3 BD1/2 domain by fluorescence polarization based competitive binding affinity assay

>  <EC50 (nM)>


>  <Assay (EC50)>


>  <Article DOI>
10.1021/acs.jmedchem.6b01816

>  <Molecular Weight>
351.366

>  <Exact Mass>
351.133139404

>  <XLogP3>
2.46

>  <Heavy Atom Count>
26

>  <Ring Count>
4

>  <Hydrogen Bond Acceptor Count>
6

>  <Hydrogen Bond Donor Count>
2

>  <Rotatable Bond Count>
3

>  <Topological Polar Surface Area>
105.93

>  <Molecular Formula>
C18H17N5O3

>  <InChI>
InChI=1S/C18H17N5O3/c1-8-15(9(2)26-23-8)11-5-13-10(6-14(11)25-4)12-7-20-17(18(24)19-3)22-16(12)21-13/h5-7H,1-4H3,(H,19,24)(H,20,21,22)

>  <InChI Key>
SMYWDSZXWMKRLF-UHFFFAOYSA-N

>  <BindingDB>
50459820

>  <PubChem>
145988169

>  <ChEMBL>
CHEMBL4228904

$$$$
Compound 23
Actelion Java MolfileCreator 2.0

  0  0  0  0  0  0              0 V3000
M  V30 BEGIN CTAB
M  V30 COUNTS 26 29 0 0 0
M  V30 BEGIN ATOM
M  V30 1 O 0.0 0.0 0.0 0
M  V30 2 C 0.4624 1.4347 0.0 0
M  V30 3 N -0.5454 2.5729 0.0 0
M  V30 4 C 1.9208 1.7429 0.0 0
M  V30 5 C -2.0275 2.2884 0.0 0
M  V30 6 N 2.9049 0.6284 0.0 0
M  V30 7 N 2.3832 3.1776 0.0 0
M  V30 8 C 4.3633 0.9367 0.0 0
M  V30 9 C 3.8416 3.4859 0.0 0
M  V30 10 N 5.5609 0.0474 0.0 0
M  V30 11 C 4.8258 2.3714 0.0 0
M  V30 12 C 6.7703 0.9367 0.0 0
M  V30 13 C 6.3197 2.3714 0.0 0
M  V30 14 C 8.2287 0.6165 0.0 0
M  V30 15 C 7.3276 3.4978 0.0 0
M  V30 16 C 9.2366 1.7429 0.0 0
M  V30 17 C 8.786 3.1776 0.0 0
M  V30 18 C 10.695 1.4228 0.0 0
M  V30 19 O 9.7939 4.3041 0.0 0
M  V30 20 C 11.8096 2.4306 0.0 0
M  V30 21 C 11.2878 0.0592 0.0 0
M  V30 22 C 9.3314 5.7506 0.0 0
M  V30 23 O 13.0901 1.6718 0.0 0
M  V30 24 C 11.6554 3.9365 0.0 0
M  V30 25 N 12.77 0.2134 0.0 0
M  V30 26 C 10.5053 -1.2212 0.0 0
M  V30 END ATOM
M  V30 BEGIN BOND
M  V30 1 2 1 2
M  V30 2 1 2 3
M  V30 3 1 2 4
M  V30 4 1 3 5
M  V30 5 2 4 6
M  V30 6 1 4 7
M  V30 7 1 6 8
M  V30 8 2 7 9
M  V30 9 1 8 10
M  V30 10 2 8 11
M  V30 11 1 10 12
M  V30 12 1 11 13
M  V30 13 1 12 14
M  V30 14 1 13 15
M  V30 15 2 14 16
M  V30 16 2 15 17
M  V30 17 1 16 18
M  V30 18 1 17 19
M  V30 19 2 18 20
M  V30 20 1 18 21
M  V30 21 1 19 22
M  V30 22 1 20 23
M  V30 23 1 20 24
M  V30 24 2 21 25
M  V30 25 1 21 26
M  V30 26 1 9 11
M  V30 27 2 12 13
M  V30 28 1 16 17
M  V30 29 1 23 25
M  V30 END BOND
M  V30 END CTAB
M  END
>  <Compound ID>
17

>  <Name>


>  <Uniprot>
O60885

>  <Target>
BRD4

>  <Smiles>
CNC(=O)C1=NC=C2C(=N1)[NH]C1=CC(C3=C(C)ON=C3C)=C(OC)C=C12

>  <Kd (nM)>


>  <Assay (Kd)>


>  <Ki (nM)>
152/205

>  <Assay (Ki)>
FP in BRD4 BD1/2

>  <IC50 (nM)>
484/630

>  <Assay (IC50)>
Displacement of a FAM-labeled fluorescent probe based upon ZBA248 from BRD4 BD1/2 domain by fluorescence polarization based competitive binding affinity assay

>  <EC50 (nM)>


>  <Assay (EC50)>


>  <Article DOI>
10.1021/acs.jmedchem.6b01816

>  <Molecular Weight>
351.366

>  <Exact Mass>
351.133139404

>  <XLogP3>
2.46

>  <Heavy Atom Count>
26

>  <Ring Count>
4

>  <Hydrogen Bond Acceptor Count>
6

>  <Hydrogen Bond Donor Count>
2

>  <Rotatable Bond Count>
3

>  <Topological Polar Surface Area>
105.93

>  <Molecular Formula>
C18H17N5O3

>  <InChI>
InChI=1S/C18H17N5O3/c1-8-15(9(2)26-23-8)11-5-13-10(6-14(11)25-4)12-7-20-17(18(24)19-3)22-16(12)21-13/h5-7H,1-4H3,(H,19,24)(H,20,21,22)

>  <InChI Key>
SMYWDSZXWMKRLF-UHFFFAOYSA-N

>  <BindingDB>
50459820

>  <PubChem>
145988169

>  <ChEMBL>
CHEMBL4228904

$$$$
Compound 24
Actelion Java MolfileCreator 2.0

  0  0  0  0  0  0              0 V3000
M  V30 BEGIN CTAB
M  V30 COUNTS 31 34 0 0 0
M  V30 BEGIN ATOM
M  V30 1 Cl 0.0 0.0 0.0 0
M  V30 2 C 0.0354 -1.4899 0.0 0
M  V30 3 C 1.348 -2.1876 0.0 0
M  V30 4 C -1.2534 -2.2704 0.0 0
M  V30 5 C 1.3835 -3.6776 0.0 0
M  V30 6 C -1.218 -3.7604 0.0 0
M  V30 7 C 0.0946 -4.4581 0.0 0
M  V30 8 C 0.13 -5.9481 0.0 0
M  V30 9 N -1.218 -6.6221 0.0 0
M  V30 10 C 1.4899 -6.5511 0.0 0
M  V30 11 C -1.5254 -8.0884 0.0 0 CFG=2
M  V30 12 C 1.8565 -7.9938 0.0 0
M  V30 13 C 2.7434 -5.7352 0.0 0
M  V30 14 C -0.5676 -9.2237 0.0 0
M  V30 15 C -2.9917 -8.455 0.0 0
M  V30 16 S 3.3465 -8.0766 0.0 0
M  V30 17 N 0.946 -9.1882 0.0 0
M  V30 18 C 3.8905 -6.6812 0.0 0
M  V30 19 C 2.8262 -4.2216 0.0 0
M  V30 20 N -1.0051 -10.6545 0.0 0
M  V30 21 C -4.056 -7.3671 0.0 0
M  V30 22 C 1.4426 -10.5954 0.0 0
M  V30 23 C 5.3331 -6.291 0.0 0
M  V30 24 N 0.2246 -11.4941 0.0 0
M  V30 25 O -3.6658 -5.9126 0.0 0
M  V30 26 O -5.5223 -7.7337 0.0 0
M  V30 27 C 2.8735 -11.0093 0.0 0
M  V30 28 C -6.5866 -6.6457 0.0 0
M  V30 29 C -7.6745 -7.6864 0.0 0
M  V30 30 C -5.5223 -5.5815 0.0 0
M  V30 31 C -7.6509 -5.5578 0.0 0
M  V30 END ATOM
M  V30 BEGIN BOND
M  V30 1 1 1 2
M  V30 2 2 2 3
M  V30 3 1 2 4
M  V30 4 1 3 5
M  V30 5 2 4 6
M  V30 6 2 5 7
M  V30 7 1 7 8
M  V30 8 2 8 9
M  V30 9 1 8 10
M  V30 10 1 9 11
M  V30 11 2 10 12
M  V30 12 1 10 13
M  V30 13 1 11 14
M  V30 14 1 11 15 CFG=3
M  V30 15 1 12 16
M  V30 16 1 12 17
M  V30 17 2 13 18
M  V30 18 1 13 19
M  V30 19 2 14 20
M  V30 20 1 15 21
M  V30 21 1 17 22
M  V30 22 1 18 23
M  V30 23 1 20 24
M  V30 24 2 21 25
M  V30 25 1 21 26
M  V30 26 1 22 27
M  V30 27 1 26 28
M  V30 28 1 28 29
M  V30 29 1 28 30
M  V30 30 1 28 31
M  V30 31 1 6 7
M  V30 32 1 14 17
M  V30 33 1 16 18
M  V30 34 2 22 24
M  V30 END BOND
M  V30 BEGIN COLLECTION
M  V30 MDLV30/STEABS ATOMS=(1 11)
M  V30 END COLLECTION
M  V30 END CTAB
M  END
>  <Compound ID>
18

>  <Name>
JQ1

>  <Uniprot>
P25440

>  <Target>
BRD2

>  <Smiles>
CC1=C(C)C2=C(S1)N1C(C)=NN=C1[C@H](CC(=O)OC(C)(C)C)N=C2C1=CC=C(Cl)C=C1

>  <Kd (nM)>
128.4

>  <Assay (Kd)>
ITC in BRD2 BD1

>  <Ki (nM)>


>  <Assay (Ki)>


>  <IC50 (nM)>


>  <Assay (IC50)>


>  <EC50 (nM)>


>  <Assay (EC50)>


>  <Article DOI>
10.1038/nature09504

>  <Molecular Weight>
456.999

>  <Exact Mass>
456.13867472

>  <XLogP3>
4.85

>  <Heavy Atom Count>
31

>  <Ring Count>
4

>  <Hydrogen Bond Acceptor Count>
7

>  <Hydrogen Bond Donor Count>
0

>  <Rotatable Bond Count>
3

>  <Topological Polar Surface Area>
69.37

>  <Molecular Formula>
C23H25ClN4O2S

>  <InChI>
InChI=1S/C23H25ClN4O2S/c1-12-13(2)31-22-19(12)20(15-7-9-16(24)10-8-15)25-17(11-18(29)30-23(4,5)6)21-27-26-14(3)28(21)22/h7-10,17H,11H2,1-6H3/t17-/m0/s1

>  <InChI Key>
DNVXATUJJDPFDM-KRWDZBQOSA-N

>  <BindingDB>
50365262

>  <PubChem>
46907787

>  <ChEMBL>
CHEMBL1957266

$$$$
Compound 25
Actelion Java MolfileCreator 2.0

  0  0  0  0  0  0              0 V3000
M  V30 BEGIN CTAB
M  V30 COUNTS 31 34 0 0 0
M  V30 BEGIN ATOM
M  V30 1 Cl 0.0 0.0 0.0 0
M  V30 2 C 0.0354 -1.4899 0.0 0
M  V30 3 C 1.348 -2.1876 0.0 0
M  V30 4 C -1.2534 -2.2704 0.0 0
M  V30 5 C 1.3835 -3.6776 0.0 0
M  V30 6 C -1.218 -3.7604 0.0 0
M  V30 7 C 0.0946 -4.4581 0.0 0
M  V30 8 C 0.13 -5.9481 0.0 0
M  V30 9 N -1.218 -6.6221 0.0 0
M  V30 10 C 1.4899 -6.5511 0.0 0
M  V30 11 C -1.5254 -8.0884 0.0 0 CFG=2
M  V30 12 C 1.8565 -7.9938 0.0 0
M  V30 13 C 2.7434 -5.7352 0.0 0
M  V30 14 C -0.5676 -9.2237 0.0 0
M  V30 15 C -2.9917 -8.455 0.0 0
M  V30 16 S 3.3465 -8.0766 0.0 0
M  V30 17 N 0.946 -9.1882 0.0 0
M  V30 18 C 3.8905 -6.6812 0.0 0
M  V30 19 C 2.8262 -4.2216 0.0 0
M  V30 20 N -1.0051 -10.6545 0.0 0
M  V30 21 C -4.056 -7.3671 0.0 0
M  V30 22 C 1.4426 -10.5954 0.0 0
M  V30 23 C 5.3331 -6.291 0.0 0
M  V30 24 N 0.2246 -11.4941 0.0 0
M  V30 25 O -3.6658 -5.9126 0.0 0
M  V30 26 O -5.5223 -7.7337 0.0 0
M  V30 27 C 2.8735 -11.0093 0.0 0
M  V30 28 C -6.5866 -6.6457 0.0 0
M  V30 29 C -7.6745 -7.6864 0.0 0
M  V30 30 C -5.5223 -5.5815 0.0 0
M  V30 31 C -7.6509 -5.5578 0.0 0
M  V30 END ATOM
M  V30 BEGIN BOND
M  V30 1 1 1 2
M  V30 2 2 2 3
M  V30 3 1 2 4
M  V30 4 1 3 5
M  V30 5 2 4 6
M  V30 6 2 5 7
M  V30 7 1 7 8
M  V30 8 2 8 9
M  V30 9 1 8 10
M  V30 10 1 9 11
M  V30 11 2 10 12
M  V30 12 1 10 13
M  V30 13 1 11 14
M  V30 14 1 11 15 CFG=3
M  V30 15 1 12 16
M  V30 16 1 12 17
M  V30 17 2 13 18
M  V30 18 1 13 19
M  V30 19 2 14 20
M  V30 20 1 15 21
M  V30 21 1 17 22
M  V30 22 1 18 23
M  V30 23 1 20 24
M  V30 24 2 21 25
M  V30 25 1 21 26
M  V30 26 1 22 27
M  V30 27 1 26 28
M  V30 28 1 28 29
M  V30 29 1 28 30
M  V30 30 1 28 31
M  V30 31 1 6 7
M  V30 32 1 14 17
M  V30 33 1 16 18
M  V30 34 2 22 24
M  V30 END BOND
M  V30 BEGIN COLLECTION
M  V30 MDLV30/STEABS ATOMS=(1 11)
M  V30 END COLLECTION
M  V30 END CTAB
M  END
>  <Compound ID>
18

>  <Name>
JQ1

>  <Uniprot>
Q15059

>  <Target>
BRD3

>  <Smiles>
CC1=C(C)C2=C(S1)N1C(C)=NN=C1[C@H](CC(=O)OC(C)(C)C)N=C2C1=CC=C(Cl)C=C1

>  <Kd (nM)>
59.5/82

>  <Assay (Kd)>
ITC in BRD3 BD1/2

>  <Ki (nM)>


>  <Assay (Ki)>


>  <IC50 (nM)>


>  <Assay (IC50)>


>  <EC50 (nM)>


>  <Assay (EC50)>


>  <Article DOI>
10.1038/nature09504

>  <Molecular Weight>
456.999

>  <Exact Mass>
456.13867472

>  <XLogP3>
4.85

>  <Heavy Atom Count>
31

>  <Ring Count>
4

>  <Hydrogen Bond Acceptor Count>
7

>  <Hydrogen Bond Donor Count>
0

>  <Rotatable Bond Count>
3

>  <Topological Polar Surface Area>
69.37

>  <Molecular Formula>
C23H25ClN4O2S

>  <InChI>
InChI=1S/C23H25ClN4O2S/c1-12-13(2)31-22-19(12)20(15-7-9-16(24)10-8-15)25-17(11-18(29)30-23(4,5)6)21-27-26-14(3)28(21)22/h7-10,17H,11H2,1-6H3/t17-/m0/s1

>  <InChI Key>
DNVXATUJJDPFDM-KRWDZBQOSA-N

>  <BindingDB>
50365262

>  <PubChem>
46907787

>  <ChEMBL>
CHEMBL1957266

$$$$
Compound 26
Actelion Java MolfileCreator 2.0

  0  0  0  0  0  0              0 V3000
M  V30 BEGIN CTAB
M  V30 COUNTS 31 34 0 0 0
M  V30 BEGIN ATOM
M  V30 1 Cl 0.0 0.0 0.0 0
M  V30 2 C 0.0354 -1.4899 0.0 0
M  V30 3 C 1.348 -2.1876 0.0 0
M  V30 4 C -1.2534 -2.2704 0.0 0
M  V30 5 C 1.3835 -3.6776 0.0 0
M  V30 6 C -1.218 -3.7604 0.0 0
M  V30 7 C 0.0946 -4.4581 0.0 0
M  V30 8 C 0.13 -5.9481 0.0 0
M  V30 9 N -1.218 -6.6221 0.0 0
M  V30 10 C 1.4899 -6.5511 0.0 0
M  V30 11 C -1.5254 -8.0884 0.0 0 CFG=2
M  V30 12 C 1.8565 -7.9938 0.0 0
M  V30 13 C 2.7434 -5.7352 0.0 0
M  V30 14 C -0.5676 -9.2237 0.0 0
M  V30 15 C -2.9917 -8.455 0.0 0
M  V30 16 S 3.3465 -8.0766 0.0 0
M  V30 17 N 0.946 -9.1882 0.0 0
M  V30 18 C 3.8905 -6.6812 0.0 0
M  V30 19 C 2.8262 -4.2216 0.0 0
M  V30 20 N -1.0051 -10.6545 0.0 0
M  V30 21 C -4.056 -7.3671 0.0 0
M  V30 22 C 1.4426 -10.5954 0.0 0
M  V30 23 C 5.3331 -6.291 0.0 0
M  V30 24 N 0.2246 -11.4941 0.0 0
M  V30 25 O -3.6658 -5.9126 0.0 0
M  V30 26 O -5.5223 -7.7337 0.0 0
M  V30 27 C 2.8735 -11.0093 0.0 0
M  V30 28 C -6.5866 -6.6457 0.0 0
M  V30 29 C -7.6745 -7.6864 0.0 0
M  V30 30 C -5.5223 -5.5815 0.0 0
M  V30 31 C -7.6509 -5.5578 0.0 0
M  V30 END ATOM
M  V30 BEGIN BOND
M  V30 1 1 1 2
M  V30 2 2 2 3
M  V30 3 1 2 4
M  V30 4 1 3 5
M  V30 5 2 4 6
M  V30 6 2 5 7
M  V30 7 1 7 8
M  V30 8 2 8 9
M  V30 9 1 8 10
M  V30 10 1 9 11
M  V30 11 2 10 12
M  V30 12 1 10 13
M  V30 13 1 11 14
M  V30 14 1 11 15 CFG=3
M  V30 15 1 12 16
M  V30 16 1 12 17
M  V30 17 2 13 18
M  V30 18 1 13 19
M  V30 19 2 14 20
M  V30 20 1 15 21
M  V30 21 1 17 22
M  V30 22 1 18 23
M  V30 23 1 20 24
M  V30 24 2 21 25
M  V30 25 1 21 26
M  V30 26 1 22 27
M  V30 27 1 26 28
M  V30 28 1 28 29
M  V30 29 1 28 30
M  V30 30 1 28 31
M  V30 31 1 6 7
M  V30 32 1 14 17
M  V30 33 1 16 18
M  V30 34 2 22 24
M  V30 END BOND
M  V30 BEGIN COLLECTION
M  V30 MDLV30/STEABS ATOMS=(1 11)
M  V30 END COLLECTION
M  V30 END CTAB
M  END
>  <Compound ID>
18

>  <Name>
JQ1

>  <Uniprot>
O60885

>  <Target>
BRD4

>  <Smiles>
CC1=C(C)C2=C(S1)N1C(C)=NN=C1[C@H](CC(=O)OC(C)(C)C)N=C2C1=CC=C(Cl)C=C1

>  <Kd (nM)>
49/90.1

>  <Assay (Kd)>
ITC in BRD4 BD1/2

>  <Ki (nM)>


>  <Assay (Ki)>


>  <IC50 (nM)>


>  <Assay (IC50)>


>  <EC50 (nM)>


>  <Assay (EC50)>


>  <Article DOI>
10.1038/nature09504

>  <Molecular Weight>
456.999

>  <Exact Mass>
456.13867472

>  <XLogP3>
4.85

>  <Heavy Atom Count>
31

>  <Ring Count>
4

>  <Hydrogen Bond Acceptor Count>
7

>  <Hydrogen Bond Donor Count>
0

>  <Rotatable Bond Count>
3

>  <Topological Polar Surface Area>
69.37

>  <Molecular Formula>
C23H25ClN4O2S

>  <InChI>
InChI=1S/C23H25ClN4O2S/c1-12-13(2)31-22-19(12)20(15-7-9-16(24)10-8-15)25-17(11-18(29)30-23(4,5)6)21-27-26-14(3)28(21)22/h7-10,17H,11H2,1-6H3/t17-/m0/s1

>  <InChI Key>
DNVXATUJJDPFDM-KRWDZBQOSA-N

>  <BindingDB>
50365262

>  <PubChem>
46907787

>  <ChEMBL>
CHEMBL1957266

$$$$
Compound 27
Actelion Java MolfileCreator 2.0

  0  0  0  0  0  0              0 V3000
M  V30 BEGIN CTAB
M  V30 COUNTS 36 39 0 0 0
M  V30 BEGIN ATOM
M  V30 1 S 0.0 0.0 0.0 0
M  V30 2 C 1.2747 0.7908 0.0 0
M  V30 3 C -1.1449 0.9914 0.0 0
M  V30 4 N 0.9206 2.2662 0.0 0
M  V30 5 N 2.6439 0.2242 0.0 0
M  V30 6 C -0.5783 2.3842 0.0 0
M  V30 7 C -2.6203 0.6609 0.0 0
M  V30 8 C 2.8209 -1.2511 0.0 0
M  V30 9 C -3.0688 -0.7672 0.0 0
M  V30 10 O 1.6052 -2.1482 0.0 0
M  V30 11 C 4.1901 -1.8177 0.0 0
M  V30 12 C -4.5442 -1.0977 0.0 0
M  V30 13 C -2.0537 -1.8531 0.0 0
M  V30 14 S 4.3672 -3.2931 0.0 0
M  V30 15 C -4.9927 -2.5259 0.0 0
M  V30 16 C -2.5023 -3.2813 0.0 0
M  V30 17 C 5.7364 -3.8596 0.0 0
M  V30 18 O -6.4682 -2.8564 0.0 0
M  V30 19 C -3.9777 -3.6118 0.0 0
M  V30 20 N 5.9134 -5.335 0.0 0
M  V30 21 N 6.9285 -2.939 0.0 0
M  V30 22 C -7.5069 -1.7468 0.0 0
M  V30 23 C 7.2826 -5.9016 0.0 0
M  V30 24 C 8.2977 -3.5055 0.0 0
M  V30 25 C -8.9823 -2.0773 0.0 0
M  V30 26 C 8.4747 -4.9809 0.0 0
M  V30 27 C 7.4596 -7.377 0.0 0
M  V30 28 C 9.4898 -2.5849 0.0 0
M  V30 29 N -10.1272 -1.0859 0.0 0
M  V30 30 C -9.5724 -3.4465 0.0 0
M  V30 31 N -11.4256 -1.8531 0.0 0
M  V30 32 N -11.0833 -3.3049 0.0 0
M  V30 33 C -12.0747 -4.4262 0.0 0
M  V30 34 C -13.562 -4.1311 0.0 0
M  V30 35 O -14.5534 -5.2524 0.0 0
M  V30 36 C -16.0406 -4.9573 0.0 0
M  V30 END ATOM
M  V30 BEGIN BOND
M  V30 1 1 1 2
M  V30 2 1 1 3
M  V30 3 2 2 4
M  V30 4 1 2 5
M  V30 5 2 3 6
M  V30 6 1 3 7
M  V30 7 1 5 8
M  V30 8 1 7 9
M  V30 9 2 8 10
M  V30 10 1 8 11
M  V30 11 2 9 12
M  V30 12 1 9 13
M  V30 13 1 11 14
M  V30 14 1 12 15
M  V30 15 2 13 16
M  V30 16 1 14 17
M  V30 17 1 15 18
M  V30 18 2 15 19
M  V30 19 2 17 20
M  V30 20 1 17 21
M  V30 21 1 18 22
M  V30 22 1 20 23
M  V30 23 2 21 24
M  V30 24 1 22 25
M  V30 25 2 23 26
M  V30 26 1 23 27
M  V30 27 1 24 28
M  V30 28 1 25 29
M  V30 29 2 25 30
M  V30 30 2 29 31
M  V30 31 1 30 32
M  V30 32 1 32 33
M  V30 33 1 33 34
M  V30 34 1 34 35
M  V30 35 1 35 36
M  V30 36 1 4 6
M  V30 37 1 16 19
M  V30 38 1 24 26
M  V30 39 1 31 32
M  V30 END BOND
M  V30 END CTAB
M  END
>  <Compound ID>
19

>  <Name>


>  <Uniprot>
Q8IXJ6

>  <Target>
SIRT2

>  <Smiles>
COCCN1C=C(COC2=CC=CC(CC3=CN=C(NC(=O)CSC4=NC(C)=CC(C)=N4)S3)=C2)N=N1

>  <Kd (nM)>


>  <Assay (Kd)>


>  <Ki (nM)>


>  <Assay (Ki)>


>  <IC50 (nM)>
12

>  <Assay (IC50)>
IC50 of Sirt2 was assessed by a fluorescence-based deacetylase activity assay

>  <EC50 (nM)>


>  <Assay (EC50)>


>  <Article DOI>
10.1021/acs.jmedchem.6b01872

>  <Molecular Weight>
525.66

>  <Exact Mass>
525.161679724

>  <XLogP3>
3.13

>  <Heavy Atom Count>
36

>  <Ring Count>
4

>  <Hydrogen Bond Acceptor Count>
11

>  <Hydrogen Bond Donor Count>
1

>  <Rotatable Bond Count>
12

>  <Topological Polar Surface Area>
116.94

>  <Molecular Formula>
C24H27N7O3S2

>  <InChI>
InChI=1S/C24H27N7O3S2/c1-16-9-17(2)27-24(26-16)35-15-22(32)28-23-25-12-21(36-23)11-18-5-4-6-20(10-18)34-14-19-13-31(30-29-19)7-8-33-3/h4-6,9-10,12-13H,7-8,11,14-15H2,1-3H3,(H,25,28,32)

>  <InChI Key>
MAUGCLAAQLDMTD-UHFFFAOYSA-N

>  <BindingDB>
50459845

>  <PubChem>
135397680

>  <ChEMBL>
CHEMBL4227437

$$$$
Compound 28
Actelion Java MolfileCreator 2.0

  0  0  0  0  0  0              0 V3000
M  V30 BEGIN CTAB
M  V30 COUNTS 29 33 0 0 0
M  V30 BEGIN ATOM
M  V30 1 S 0.0 0.0 0.0 0
M  V30 2 C 1.2599 0.7889 0.0 0
M  V30 3 C -1.154 0.9891 0.0 0
M  V30 4 N 2.6024 0.1648 0.0 0
M  V30 5 C 0.8949 2.2609 0.0 0
M  V30 6 C -2.6259 0.6476 0.0 0
M  V30 7 C -0.5887 2.3786 0.0 0
M  V30 8 C 3.933 0.836 0.0 0
M  V30 9 C 2.8026 -1.307 0.0 0
M  V30 10 C 1.8016 3.4502 0.0 0
M  V30 11 C -4.0979 0.3061 0.0 0
M  V30 12 C -1.3777 3.6622 0.0 0
M  V30 13 N 4.9693 -0.2237 0.0 0
M  V30 14 C 4.2392 2.308 0.0 0
M  V30 15 N 4.2627 -1.5426 0.0 0
M  V30 16 C 1.7192 -2.3433 0.0 0
M  V30 17 O 3.2854 3.4738 0.0 0
M  V30 18 C -5.5698 -0.0353 0.0 0
M  V30 19 C -2.885 3.6386 0.0 0
M  V30 20 C -6.7239 0.9538 0.0 0
M  V30 21 C -6.1586 -1.4013 0.0 0
M  V30 22 C -3.674 4.9222 0.0 0
M  V30 23 C -3.6151 2.3315 0.0 0
M  V30 24 N -8.0074 0.1884 0.0 0
M  V30 25 N -7.6659 -1.2717 0.0 0
M  V30 26 C -5.1812 4.8986 0.0 0
M  V30 27 C -5.1224 2.308 0.0 0
M  V30 28 C -8.6551 -2.4022 0.0 0
M  V30 29 C -5.9113 3.5915 0.0 0
M  V30 END ATOM
M  V30 BEGIN BOND
M  V30 1 1 1 2
M  V30 2 1 1 3
M  V30 3 1 2 4
M  V30 4 2 2 5
M  V30 5 1 3 6
M  V30 6 2 3 7
M  V30 7 1 4 8
M  V30 8 1 4 9
M  V30 9 1 5 10
M  V30 10 3 6 11
M  V30 11 1 7 12
M  V30 12 2 8 13
M  V30 13 1 8 14
M  V30 14 2 9 15
M  V30 15 1 9 16
M  V30 16 1 10 17
M  V30 17 1 11 18
M  V30 18 1 12 19
M  V30 19 1 18 20
M  V30 20 2 18 21
M  V30 21 2 19 22
M  V30 22 1 19 23
M  V30 23 2 20 24
M  V30 24 1 21 25
M  V30 25 1 22 26
M  V30 26 2 23 27
M  V30 27 1 25 28
M  V30 28 2 26 29
M  V30 29 1 5 7
M  V30 30 1 13 15
M  V30 31 1 14 17
M  V30 32 1 24 25
M  V30 33 1 27 29
M  V30 END BOND
M  V30 END CTAB
M  END
>  <Compound ID>
20

>  <Name>
QCA276

>  <Uniprot>
P25440

>  <Target>
BRD2

>  <Smiles>
CC1=NN=C2COCC3=C(SC(C#CC4=CN(C)N=C4)=C3CC3=CC=CC=C3)N12

>  <Kd (nM)>


>  <Assay (Kd)>


>  <Ki (nM)>
1.7/8.5

>  <Assay (Ki)>
FP in BRD2 BD1/2

>  <IC50 (nM)>
3.5/40.6

>  <Assay (IC50)>
Displacement of a FAM-labeled fluorescent probe based upon ZBA248 from BRD2 BD1/2 domain by fluorescence polarization based competitive binding affinity assay

>  <EC50 (nM)>


>  <Assay (EC50)>


>  <Article DOI>
10.1021/acs.jmedchem.8b00506

>  <Molecular Weight>
401.495

>  <Exact Mass>
401.131031228

>  <XLogP3>
3.05

>  <Heavy Atom Count>
29

>  <Ring Count>
5

>  <Hydrogen Bond Acceptor Count>
7

>  <Hydrogen Bond Donor Count>
0

>  <Rotatable Bond Count>
2

>  <Topological Polar Surface Area>
57.76

>  <Molecular Formula>
C22H19N5OS

>  <InChI>
InChI=1S/C22H19N5OS/c1-15-24-25-21-14-28-13-19-18(10-16-6-4-3-5-7-16)20(29-22(19)27(15)21)9-8-17-11-23-26(2)12-17/h3-7,11-12H,10,13-14H2,1-2H3

>  <InChI Key>
RPBWYZZANXCAJX-UHFFFAOYSA-N

>  <BindingDB>


>  <PubChem>
130345579

>  <ChEMBL>


$$$$
Compound 29
Actelion Java MolfileCreator 2.0

  0  0  0  0  0  0              0 V3000
M  V30 BEGIN CTAB
M  V30 COUNTS 29 33 0 0 0
M  V30 BEGIN ATOM
M  V30 1 S 0.0 0.0 0.0 0
M  V30 2 C 1.2599 0.7889 0.0 0
M  V30 3 C -1.154 0.9891 0.0 0
M  V30 4 N 2.6024 0.1648 0.0 0
M  V30 5 C 0.8949 2.2609 0.0 0
M  V30 6 C -2.6259 0.6476 0.0 0
M  V30 7 C -0.5887 2.3786 0.0 0
M  V30 8 C 3.933 0.836 0.0 0
M  V30 9 C 2.8026 -1.307 0.0 0
M  V30 10 C 1.8016 3.4502 0.0 0
M  V30 11 C -4.0979 0.3061 0.0 0
M  V30 12 C -1.3777 3.6622 0.0 0
M  V30 13 N 4.9693 -0.2237 0.0 0
M  V30 14 C 4.2392 2.308 0.0 0
M  V30 15 N 4.2627 -1.5426 0.0 0
M  V30 16 C 1.7192 -2.3433 0.0 0
M  V30 17 O 3.2854 3.4738 0.0 0
M  V30 18 C -5.5698 -0.0353 0.0 0
M  V30 19 C -2.885 3.6386 0.0 0
M  V30 20 C -6.7239 0.9538 0.0 0
M  V30 21 C -6.1586 -1.4013 0.0 0
M  V30 22 C -3.674 4.9222 0.0 0
M  V30 23 C -3.6151 2.3315 0.0 0
M  V30 24 N -8.0074 0.1884 0.0 0
M  V30 25 N -7.6659 -1.2717 0.0 0
M  V30 26 C -5.1812 4.8986 0.0 0
M  V30 27 C -5.1224 2.308 0.0 0
M  V30 28 C -8.6551 -2.4022 0.0 0
M  V30 29 C -5.9113 3.5915 0.0 0
M  V30 END ATOM
M  V30 BEGIN BOND
M  V30 1 1 1 2
M  V30 2 1 1 3
M  V30 3 1 2 4
M  V30 4 2 2 5
M  V30 5 1 3 6
M  V30 6 2 3 7
M  V30 7 1 4 8
M  V30 8 1 4 9
M  V30 9 1 5 10
M  V30 10 3 6 11
M  V30 11 1 7 12
M  V30 12 2 8 13
M  V30 13 1 8 14
M  V30 14 2 9 15
M  V30 15 1 9 16
M  V30 16 1 10 17
M  V30 17 1 11 18
M  V30 18 1 12 19
M  V30 19 1 18 20
M  V30 20 2 18 21
M  V30 21 2 19 22
M  V30 22 1 19 23
M  V30 23 2 20 24
M  V30 24 1 21 25
M  V30 25 1 22 26
M  V30 26 2 23 27
M  V30 27 1 25 28
M  V30 28 2 26 29
M  V30 29 1 5 7
M  V30 30 1 13 15
M  V30 31 1 14 17
M  V30 32 1 24 25
M  V30 33 1 27 29
M  V30 END BOND
M  V30 END CTAB
M  END
>  <Compound ID>
20

>  <Name>
QCA276

>  <Uniprot>
Q15059

>  <Target>
BRD3

>  <Smiles>
CC1=NN=C2COCC3=C(SC(C#CC4=CN(C)N=C4)=C3CC3=CC=CC=C3)N12

>  <Kd (nM)>


>  <Assay (Kd)>


>  <Ki (nM)>
2.5/6.5

>  <Assay (Ki)>
FP in BRD3 BD1/2

>  <IC50 (nM)>
16.4/35.1

>  <Assay (IC50)>
Displacement of a FAM-labeled fluorescent probe based upon ZBA248 from BRD3 BD1/2 domain by fluorescence polarization based competitive binding affinity assay

>  <EC50 (nM)>


>  <Assay (EC50)>


>  <Article DOI>
10.1021/acs.jmedchem.8b00506

>  <Molecular Weight>
401.495

>  <Exact Mass>
401.131031228

>  <XLogP3>
3.05

>  <Heavy Atom Count>
29

>  <Ring Count>
5

>  <Hydrogen Bond Acceptor Count>
7

>  <Hydrogen Bond Donor Count>
0

>  <Rotatable Bond Count>
2

>  <Topological Polar Surface Area>
57.76

>  <Molecular Formula>
C22H19N5OS

>  <InChI>
InChI=1S/C22H19N5OS/c1-15-24-25-21-14-28-13-19-18(10-16-6-4-3-5-7-16)20(29-22(19)27(15)21)9-8-17-11-23-26(2)12-17/h3-7,11-12H,10,13-14H2,1-2H3

>  <InChI Key>
RPBWYZZANXCAJX-UHFFFAOYSA-N

>  <BindingDB>


>  <PubChem>
130345579

>  <ChEMBL>


$$$$
Compound 30
Actelion Java MolfileCreator 2.0

  0  0  0  0  0  0              0 V3000
M  V30 BEGIN CTAB
M  V30 COUNTS 29 33 0 0 0
M  V30 BEGIN ATOM
M  V30 1 S 0.0 0.0 0.0 0
M  V30 2 C 1.2599 0.7889 0.0 0
M  V30 3 C -1.154 0.9891 0.0 0
M  V30 4 N 2.6024 0.1648 0.0 0
M  V30 5 C 0.8949 2.2609 0.0 0
M  V30 6 C -2.6259 0.6476 0.0 0
M  V30 7 C -0.5887 2.3786 0.0 0
M  V30 8 C 3.933 0.836 0.0 0
M  V30 9 C 2.8026 -1.307 0.0 0
M  V30 10 C 1.8016 3.4502 0.0 0
M  V30 11 C -4.0979 0.3061 0.0 0
M  V30 12 C -1.3777 3.6622 0.0 0
M  V30 13 N 4.9693 -0.2237 0.0 0
M  V30 14 C 4.2392 2.308 0.0 0
M  V30 15 N 4.2627 -1.5426 0.0 0
M  V30 16 C 1.7192 -2.3433 0.0 0
M  V30 17 O 3.2854 3.4738 0.0 0
M  V30 18 C -5.5698 -0.0353 0.0 0
M  V30 19 C -2.885 3.6386 0.0 0
M  V30 20 C -6.7239 0.9538 0.0 0
M  V30 21 C -6.1586 -1.4013 0.0 0
M  V30 22 C -3.674 4.9222 0.0 0
M  V30 23 C -3.6151 2.3315 0.0 0
M  V30 24 N -8.0074 0.1884 0.0 0
M  V30 25 N -7.6659 -1.2717 0.0 0
M  V30 26 C -5.1812 4.8986 0.0 0
M  V30 27 C -5.1224 2.308 0.0 0
M  V30 28 C -8.6551 -2.4022 0.0 0
M  V30 29 C -5.9113 3.5915 0.0 0
M  V30 END ATOM
M  V30 BEGIN BOND
M  V30 1 1 1 2
M  V30 2 1 1 3
M  V30 3 1 2 4
M  V30 4 2 2 5
M  V30 5 1 3 6
M  V30 6 2 3 7
M  V30 7 1 4 8
M  V30 8 1 4 9
M  V30 9 1 5 10
M  V30 10 3 6 11
M  V30 11 1 7 12
M  V30 12 2 8 13
M  V30 13 1 8 14
M  V30 14 2 9 15
M  V30 15 1 9 16
M  V30 16 1 10 17
M  V30 17 1 11 18
M  V30 18 1 12 19
M  V30 19 1 18 20
M  V30 20 2 18 21
M  V30 21 2 19 22
M  V30 22 1 19 23
M  V30 23 2 20 24
M  V30 24 1 21 25
M  V30 25 1 22 26
M  V30 26 2 23 27
M  V30 27 1 25 28
M  V30 28 2 26 29
M  V30 29 1 5 7
M  V30 30 1 13 15
M  V30 31 1 14 17
M  V30 32 1 24 25
M  V30 33 1 27 29
M  V30 END BOND
M  V30 END CTAB
M  END
>  <Compound ID>
20

>  <Name>
QCA276

>  <Uniprot>
O60885

>  <Target>
BRD4

>  <Smiles>
CC1=NN=C2COCC3=C(SC(C#CC4=CN(C)N=C4)=C3CC3=CC=CC=C3)N12

>  <Kd (nM)>


>  <Assay (Kd)>


>  <Ki (nM)>
2.3/18.5

>  <Assay (Ki)>
FP in BRD4 BD1/2

>  <IC50 (nM)>
10.7/66.6

>  <Assay (IC50)>
Displacement of a FAM-labeled fluorescent probe based upon ZBA248 from BRD4 BD1/2 domain by fluorescence polarization based competitive binding affinity assay

>  <EC50 (nM)>


>  <Assay (EC50)>


>  <Article DOI>
10.1021/acs.jmedchem.8b00506

>  <Molecular Weight>
401.495

>  <Exact Mass>
401.131031228

>  <XLogP3>
3.05

>  <Heavy Atom Count>
29

>  <Ring Count>
5

>  <Hydrogen Bond Acceptor Count>
7

>  <Hydrogen Bond Donor Count>
0

>  <Rotatable Bond Count>
2

>  <Topological Polar Surface Area>
57.76

>  <Molecular Formula>
C22H19N5OS

>  <InChI>
InChI=1S/C22H19N5OS/c1-15-24-25-21-14-28-13-19-18(10-16-6-4-3-5-7-16)20(29-22(19)27(15)21)9-8-17-11-23-26(2)12-17/h3-7,11-12H,10,13-14H2,1-2H3

>  <InChI Key>
RPBWYZZANXCAJX-UHFFFAOYSA-N

>  <BindingDB>


>  <PubChem>
130345579

>  <ChEMBL>


$$$$
Compound 31
Actelion Java MolfileCreator 2.0

  0  0  0  0  0  0              0 V3000
M  V30 BEGIN CTAB
M  V30 COUNTS 24 27 0 0 0
M  V30 BEGIN ATOM
M  V30 1 O 0.0 0.0 0.0 0
M  V30 2 C -1.223 0.9055 0.0 0
M  V30 3 N -2.6107 0.3175 0.0 0
M  V30 4 C -1.0701 2.4108 0.0 0
M  V30 5 C 0.294 3.0223 0.0 0
M  V30 6 C -2.2932 3.3163 0.0 0
M  V30 7 N 1.6464 2.4108 0.0 0
M  V30 8 C 0.4468 4.5276 0.0 0
M  V30 9 C -2.1403 4.8216 0.0 0
M  V30 10 N 2.646 3.528 0.0 0
M  V30 11 C -0.7761 5.4331 0.0 0
M  V30 12 C 1.9051 4.8451 0.0 0
M  V30 13 C 4.1277 3.3751 0.0 0
M  V30 14 C 4.7158 2.0109 0.0 0
M  V30 15 C 5.0098 4.5981 0.0 0
M  V30 16 C 6.1975 1.858 0.0 0
M  V30 17 C 6.4915 4.4453 0.0 0
M  V30 18 C 7.0795 3.0811 0.0 0
M  V30 19 C 8.5613 2.9282 0.0 0 CFG=1
M  V30 20 C 9.4433 4.1513 0.0 0
M  V30 21 C 9.1493 1.564 0.0 0
M  V30 22 N 10.9251 3.9984 0.0 0
M  V30 23 C 10.6311 1.4112 0.0 0
M  V30 24 C 11.5131 2.6342 0.0 0
M  V30 END ATOM
M  V30 BEGIN BOND
M  V30 1 2 1 2
M  V30 2 1 2 3
M  V30 3 1 2 4
M  V30 4 1 4 5
M  V30 5 2 4 6
M  V30 6 2 5 7
M  V30 7 1 5 8
M  V30 8 1 6 9
M  V30 9 1 7 10
M  V30 10 1 8 11
M  V30 11 2 8 12
M  V30 12 1 10 13
M  V30 13 2 13 14
M  V30 14 1 13 15
M  V30 15 1 14 16
M  V30 16 2 15 17
M  V30 17 2 16 18
M  V30 18 1 19 18 CFG=1
M  V30 19 1 19 20
M  V30 20 1 19 21
M  V30 21 1 20 22
M  V30 22 1 21 23
M  V30 23 1 22 24
M  V30 24 2 9 11
M  V30 25 1 10 12
M  V30 26 1 17 18
M  V30 27 1 23 24
M  V30 END BOND
M  V30 BEGIN COLLECTION
M  V30 MDLV30/STEABS ATOMS=(1 19)
M  V30 END COLLECTION
M  V30 END CTAB
M  END
>  <Compound ID>
21

>  <Name>
NIRAPARIB

>  <Uniprot>
P09874

>  <Target>
PARP1

>  <Smiles>
NC(=O)C1=CC=CC2=CN(C3=CC=C([C@@H]4CCCNC4)C=C3)N=C12

>  <Kd (nM)>


>  <Assay (Kd)>


>  <Ki (nM)>


>  <Assay (Ki)>


>  <IC50 (nM)>
3.2

>  <Assay (IC50)>
IC50 of human PARP1 was assessed by SPA

>  <EC50 (nM)>


>  <Assay (EC50)>


>  <Article DOI>
10.1021/jm901188v

>  <Molecular Weight>
320.396

>  <Exact Mass>
320.16371126

>  <XLogP3>
2.22

>  <Heavy Atom Count>
24

>  <Ring Count>
4

>  <Hydrogen Bond Acceptor Count>
4

>  <Hydrogen Bond Donor Count>
2

>  <Rotatable Bond Count>
3

>  <Topological Polar Surface Area>
72.94

>  <Molecular Formula>
C19H20N4O

>  <InChI>
InChI=1S/C19H20N4O/c20-19(24)17-5-1-3-15-12-23(22-18(15)17)16-8-6-13(7-9-16)14-4-2-10-21-11-14/h1,3,5-9,12,14,21H,2,4,10-11H2,(H2,20,24)/t14-/m1/s1

>  <InChI Key>
PCHKPVIQAHNQLW-CQSZACIVSA-N

>  <BindingDB>
50316226

>  <PubChem>
24958200

>  <ChEMBL>
CHEMBL1094636

$$$$
Compound 32
Actelion Java MolfileCreator 2.0

  0  0  0  0  0  0              0 V3000
M  V30 BEGIN CTAB
M  V30 COUNTS 32 36 0 0 0
M  V30 BEGIN ATOM
M  V30 1 F 0.0 0.0 0.0 0
M  V30 2 C 1.4912 0.0236 0.0 0
M  V30 3 C 2.2368 -1.2663 0.0 0
M  V30 4 C 2.2249 1.3373 0.0 0
M  V30 5 C 1.4793 -2.5563 0.0 0
M  V30 6 C 3.728 -1.2426 0.0 0
M  V30 7 C 3.7162 1.361 0.0 0
M  V30 8 O 2.2249 -3.8464 0.0 0
M  V30 9 N -0.0355 -2.5563 0.0 0
M  V30 10 C 4.4618 0.071 0.0 0
M  V30 11 C -0.8047 -1.2426 0.0 0
M  V30 12 C -0.7929 -3.8464 0.0 0
M  V30 13 C 5.953 0.0946 0.0 0
M  V30 14 C -2.3196 -1.2426 0.0 0
M  V30 15 C -2.3078 -3.8464 0.0 0
M  V30 16 C 6.6986 -1.1953 0.0 0
M  V30 17 N -3.0771 -2.5327 0.0 0
M  V30 18 N 5.9412 -2.4853 0.0 0
M  V30 19 C 8.1898 -1.1716 0.0 0
M  V30 20 C -4.592 -2.5327 0.0 0
M  V30 21 N 6.6868 -3.7753 0.0 0
M  V30 22 C 8.9354 -2.4616 0.0 0
M  V30 23 C 8.9236 0.142 0.0 0
M  V30 24 O -5.3494 -3.8227 0.0 0
M  V30 25 C -5.3612 -1.219 0.0 0
M  V30 26 C 8.178 -3.7517 0.0 0
M  V30 27 C 10.4267 -2.438 0.0 0
M  V30 28 C 10.4148 0.1656 0.0 0
M  V30 29 C -6.6749 -0.4615 0.0 0
M  V30 30 C -5.3849 0.2958 0.0 0
M  V30 31 O 8.9236 -5.0417 0.0 0
M  V30 32 C 11.1604 -1.1243 0.0 0
M  V30 END ATOM
M  V30 BEGIN BOND
M  V30 1 1 1 2
M  V30 2 2 2 3
M  V30 3 1 2 4
M  V30 4 1 3 5
M  V30 5 1 3 6
M  V30 6 2 4 7
M  V30 7 2 5 8
M  V30 8 1 5 9
M  V30 9 2 6 10
M  V30 10 1 9 11
M  V30 11 1 9 12
M  V30 12 1 10 13
M  V30 13 1 11 14
M  V30 14 1 12 15
M  V30 15 1 13 16
M  V30 16 1 14 17
M  V30 17 2 16 18
M  V30 18 1 16 19
M  V30 19 1 17 20
M  V30 20 1 18 21
M  V30 21 2 19 22
M  V30 22 1 19 23
M  V30 23 2 20 24
M  V30 24 1 20 25
M  V30 25 1 21 26
M  V30 26 1 22 27
M  V30 27 2 23 28
M  V30 28 1 25 29
M  V30 29 1 25 30
M  V30 30 2 26 31
M  V30 31 2 27 32
M  V30 32 1 7 10
M  V30 33 1 15 17
M  V30 34 1 22 26
M  V30 35 1 28 32
M  V30 36 1 29 30
M  V30 END BOND
M  V30 END CTAB
M  END
>  <Compound ID>
22

>  <Name>
Olaparib

>  <Uniprot>
P09874

>  <Target>
PARP1

>  <Smiles>
O=C(C1=CC(CC2=N[NH]C(=O)C3=CC=CC=C23)=CC=C1F)N1CCN(C(=O)C2CC2)CC1

>  <Kd (nM)>


>  <Assay (Kd)>


>  <Ki (nM)>


>  <Assay (Ki)>


>  <IC50 (nM)>
4.1

>  <Assay (IC50)>
IC50 of human recombinant PARP1 was assessed by ELISA

>  <EC50 (nM)>


>  <Assay (EC50)>


>  <Article DOI>
10.1021/jm301825t

>  <Molecular Weight>
434.471

>  <Exact Mass>
434.175418816

>  <XLogP3>
1.9

>  <Heavy Atom Count>
32

>  <Ring Count>
5

>  <Hydrogen Bond Acceptor Count>
4

>  <Hydrogen Bond Donor Count>
1

>  <Rotatable Bond Count>
4

>  <Topological Polar Surface Area>
86.37

>  <Molecular Formula>
C24H23FN4O3

>  <InChI>
InChI=1S/C24H23FN4O3/c25-20-8-5-15(14-21-17-3-1-2-4-18(17)22(30)27-26-21)13-19(20)24(32)29-11-9-28(10-12-29)23(31)16-6-7-16/h1-5,8,13,16H,6-7,9-12,14H2,(H,27,30)

>  <InChI Key>
FDLYAMZZIXQODN-UHFFFAOYSA-N

>  <BindingDB>
27566

>  <PubChem>
23725625

>  <ChEMBL>
CHEMBL521686

$$$$
Compound 33
Actelion Java MolfileCreator 2.0

  0  0  0  0  0  0              0 V3000
M  V30 BEGIN CTAB
M  V30 COUNTS 20 22 0 0 0
M  V30 BEGIN ATOM
M  V30 1 O 0.0 0.0 0.0 0
M  V30 2 C 0.6113 -1.352 0.0 0
M  V30 3 N 2.0927 -1.4814 0.0 0
M  V30 4 C -0.2704 -2.563 0.0 0 CFG=1
M  V30 5 C 2.7041 -2.8334 0.0 0
M  V30 6 N -1.7753 -2.4102 0.0 0
M  V30 7 C 0.3409 -3.9151 0.0 0
M  V30 8 O 4.1855 -2.9628 0.0 0
M  V30 9 C 1.8223 -4.0444 0.0 0
M  V30 10 C -2.7746 -3.5271 0.0 0
M  V30 11 C -2.5513 -1.1051 0.0 0
M  V30 12 O -2.4572 -4.985 0.0 0
M  V30 13 C -4.162 -2.9157 0.0 0
M  V30 14 O -1.9634 0.2821 0.0 0
M  V30 15 C -4.0327 -1.4226 0.0 0
M  V30 16 C -5.5376 -3.5271 0.0 0
M  V30 17 C -5.2672 -0.5408 0.0 0
M  V30 18 N -5.6904 -5.0085 0.0 0
M  V30 19 C -6.7721 -2.6453 0.0 0
M  V30 20 C -6.6427 -1.1522 0.0 0
M  V30 END ATOM
M  V30 BEGIN BOND
M  V30 1 2 1 2
M  V30 2 1 2 3
M  V30 3 1 2 4
M  V30 4 1 3 5
M  V30 5 1 4 6 CFG=3
M  V30 6 1 4 7
M  V30 7 2 5 8
M  V30 8 1 5 9
M  V30 9 1 6 10
M  V30 10 1 6 11
M  V30 11 2 10 12
M  V30 12 1 10 13
M  V30 13 2 11 14
M  V30 14 1 11 15
M  V30 15 1 13 16
M  V30 16 1 15 17
M  V30 17 1 16 18
M  V30 18 2 16 19
M  V30 19 2 17 20
M  V30 20 1 7 9
M  V30 21 2 13 15
M  V30 22 1 19 20
M  V30 END BOND
M  V30 BEGIN COLLECTION
M  V30 MDLV30/STERAC1 ATOMS=(1 4)
M  V30 END COLLECTION
M  V30 END CTAB
M  END
>  <Compound ID>
23

>  <Name>
pomalidomide

>  <Uniprot>
Q96SW2

>  <Target>
CRBN

>  <Smiles>
NC1=CC=CC2=C1C(=O)N(C1CCC(=O)NC1=O)C2=O

>  <Kd (nM)>
157

>  <Assay (Kd)>
FP

>  <Ki (nM)>


>  <Assay (Ki)>


>  <IC50 (nM)>


>  <Assay (IC50)>


>  <EC50 (nM)>


>  <Assay (EC50)>


>  <Article DOI>
10.1038/nature13527

>  <Molecular Weight>
273.248

>  <Exact Mass>
273.074955832

>  <XLogP3>
0.2

>  <Heavy Atom Count>
20

>  <Ring Count>
3

>  <Hydrogen Bond Acceptor Count>
5

>  <Hydrogen Bond Donor Count>
2

>  <Rotatable Bond Count>
1

>  <Topological Polar Surface Area>
109.57

>  <Molecular Formula>
C13H11N3O4

>  <InChI>
InChI=1S/C13H11N3O4/c14-7-3-1-2-6-10(7)13(20)16(12(6)19)8-4-5-9(17)15-11(8)18/h1-3,8H,4-5,14H2,(H,15,17,18)

>  <InChI Key>
UVSMNLNDYGZFPF-UHFFFAOYSA-N

>  <BindingDB>
65456

>  <PubChem>
134780

>  <ChEMBL>
CHEMBL43452

$$$$
Compound 34
Actelion Java MolfileCreator 2.0

  0  0  0  0  0  0              0 V3000
M  V30 BEGIN CTAB
M  V30 COUNTS 29 33 0 0 0
M  V30 BEGIN ATOM
M  V30 1 O 0.0 0.0 0.0 0
M  V30 2 C -1.44 -0.4249 0.0 0
M  V30 3 C 1.0859 -1.015 0.0 0
M  V30 4 C -1.7941 -1.8767 0.0 0
M  V30 5 C -2.5495 0.6137 0.0 0
M  V30 6 C 0.7318 -2.4669 0.0 0
M  V30 7 C 2.5023 -0.5665 0.0 0
M  V30 8 C -3.2341 -2.3016 0.0 0
M  V30 9 C -3.9895 0.1888 0.0 0
M  V30 10 C 1.8177 -3.482 0.0 0
M  V30 11 C 3.5882 -1.5816 0.0 0
M  V30 12 C -4.3436 -1.2629 0.0 0
M  V30 13 C 3.2341 -3.0334 0.0 0
M  V30 14 C -5.7837 -1.6878 0.0 0
M  V30 15 N -6.9876 -0.7672 0.0 0
M  V30 16 C -6.2794 -3.0925 0.0 0
M  V30 17 N -8.227 -1.617 0.0 0
M  V30 18 C -5.5594 -4.3908 0.0 0
M  V30 19 C -7.7903 -3.0571 0.0 0
M  V30 20 C -9.6552 -1.1213 0.0 0
M  V30 21 N -6.3384 -5.6656 0.0 0
M  V30 22 N -4.0722 -4.4026 0.0 0
M  V30 23 N -8.5693 -4.3318 0.0 0
M  V30 24 C -9.9503 0.3659 0.0 0
M  V30 25 C -10.8001 -2.0892 0.0 0
M  V30 26 C -7.8493 -5.6302 0.0 0
M  V30 27 C -11.3785 0.8616 0.0 0
M  V30 28 C -12.2284 -1.5934 0.0 0
M  V30 29 N -12.5234 -0.1062 0.0 0
M  V30 END ATOM
M  V30 BEGIN BOND
M  V30 1 1 1 2
M  V30 2 1 1 3
M  V30 3 2 2 4
M  V30 4 1 2 5
M  V30 5 2 3 6
M  V30 6 1 3 7
M  V30 7 1 4 8
M  V30 8 2 5 9
M  V30 9 1 6 10
M  V30 10 2 7 11
M  V30 11 2 8 12
M  V30 12 2 10 13
M  V30 13 1 12 14
M  V30 14 2 14 15
M  V30 15 1 14 16
M  V30 16 1 15 17
M  V30 17 2 16 18
M  V30 18 1 16 19
M  V30 19 1 17 20
M  V30 20 1 18 21
M  V30 21 1 18 22
M  V30 22 2 19 23
M  V30 23 1 20 24
M  V30 24 1 20 25
M  V30 25 2 21 26
M  V30 26 1 24 27
M  V30 27 1 25 28
M  V30 28 1 27 29
M  V30 29 1 9 12
M  V30 30 1 11 13
M  V30 31 1 17 19
M  V30 32 1 23 26
M  V30 33 1 28 29
M  V30 END BOND
M  V30 END CTAB
M  END
>  <Compound ID>
24

>  <Name>


>  <Uniprot>
Q06187

>  <Target>
BTK

>  <Smiles>
NC1=NC=NC2=C1C(C1=CC=C(OC3=CC=CC=C3)C=C1)=NN2C1CCNCC1

>  <Kd (nM)>


>  <Assay (Kd)>


>  <Ki (nM)>


>  <Assay (Ki)>


>  <IC50 (nM)>
51/30.7

>  <Assay (IC50)>
IC50 of WT/C481S BTK

>  <EC50 (nM)>


>  <Assay (EC50)>


>  <Article DOI>
10.1021/acs.biochem.8b00391

>  <Molecular Weight>
386.459

>  <Exact Mass>
386.185509324

>  <XLogP3>
3.06

>  <Heavy Atom Count>
29

>  <Ring Count>
5

>  <Hydrogen Bond Acceptor Count>
7

>  <Hydrogen Bond Donor Count>
2

>  <Rotatable Bond Count>
4

>  <Topological Polar Surface Area>
90.88

>  <Molecular Formula>
C22H22N6O

>  <InChI>
InChI=1S/C22H22N6O/c23-21-19-20(15-6-8-18(9-7-15)29-17-4-2-1-3-5-17)27-28(22(19)26-14-25-21)16-10-12-24-13-11-16/h1-9,14,16,24H,10-13H2,(H2,23,25,26)

>  <InChI Key>
LGWZZMCTBPCKHR-UHFFFAOYSA-N

>  <BindingDB>


>  <PubChem>
22347262

>  <ChEMBL>


$$$$
Compound 35
Actelion Java MolfileCreator 2.0

  0  0  0  0  0  0              0 V3000
M  V30 BEGIN CTAB
M  V30 COUNTS 31 32 0 0 0
M  V30 BEGIN ATOM
M  V30 1 F 0.0 0.0 0.0 0
M  V30 2 C -0.7686 1.3126 0.0 0
M  V30 3 F 0.5203 2.0813 0.0 0
M  V30 4 F -2.0813 0.5676 0.0 0
M  V30 5 C -1.5373 2.6252 0.0 0
M  V30 6 C -3.051 2.6371 0.0 0
M  V30 7 C -0.8041 3.9379 0.0 0
M  V30 8 N -3.8078 1.3481 0.0 0 CHG=1
M  V30 9 C -3.8196 3.9497 0.0 0
M  V30 10 C -1.5728 5.2505 0.0 0
M  V30 11 O -3.0628 0.0591 0.0 0
M  V30 12 O -5.3215 1.3599 0.0 0 CHG=-1
M  V30 13 C -3.0864 5.2624 0.0 0
M  V30 14 N -0.8396 6.5632 0.0 0
M  V30 15 C 0.6504 6.575 0.0 0
M  V30 16 O 1.3954 5.286 0.0 0
M  V30 17 C 1.3836 7.8877 0.0 0 CFG=1
M  V30 18 O 2.1167 9.2003 0.0 0
M  V30 19 C 2.6725 7.1545 0.0 0
M  V30 20 C 0.0709 8.6445 0.0 0
M  V30 21 O 2.6607 5.6644 0.0 0
M  V30 22 C 3.9497 4.9312 0.0 0
M  V30 23 C 3.9379 3.4412 0.0 0
M  V30 24 C 5.2387 5.6999 0.0 0
M  V30 25 C 5.2269 2.708 0.0 0
M  V30 26 C 6.5277 4.9667 0.0 0
M  V30 27 C 6.5159 3.4767 0.0 0
M  V30 28 N 7.8049 2.7435 0.0 0
M  V30 29 C 7.793 1.2535 0.0 0
M  V30 30 O 6.4804 0.5085 0.0 0
M  V30 31 C 9.082 0.5203 0.0 0
M  V30 END ATOM
M  V30 BEGIN BOND
M  V30 1 1 1 2
M  V30 2 1 2 3
M  V30 3 1 2 4
M  V30 4 1 2 5
M  V30 5 2 5 6
M  V30 6 1 5 7
M  V30 7 1 6 8
M  V30 8 1 6 9
M  V30 9 2 7 10
M  V30 10 2 8 11
M  V30 11 1 8 12
M  V30 12 2 9 13
M  V30 13 1 10 14
M  V30 14 1 14 15
M  V30 15 2 15 16
M  V30 16 1 15 17
M  V30 17 1 17 18 CFG=1
M  V30 18 1 17 19
M  V30 19 1 17 20
M  V30 20 1 19 21
M  V30 21 1 21 22
M  V30 22 2 22 23
M  V30 23 1 22 24
M  V30 24 1 23 25
M  V30 25 2 24 26
M  V30 26 2 25 27
M  V30 27 1 27 28
M  V30 28 1 28 29
M  V30 29 2 29 30
M  V30 30 1 29 31
M  V30 31 1 10 13
M  V30 32 1 26 27
M  V30 END BOND
M  V30 BEGIN COLLECTION
M  V30 MDLV30/STEABS ATOMS=(1 17)
M  V30 END COLLECTION
M  V30 END CTAB
M  END
>  <Compound ID>
25

>  <Name>


>  <Uniprot>
P10275

>  <Target>
AR

>  <Smiles>
CC(=O)NC1=CC=C(OC[C@](C)(O)C(=O)NC2=CC=C([N+](=O)[O-])C(C(F)(F)F)=C2)C=C1

>  <Kd (nM)>


>  <Assay (Kd)>


>  <Ki (nM)>
3.98

>  <Assay (Ki)>
Competition binding assays

>  <IC50 (nM)>


>  <Assay (IC50)>


>  <EC50 (nM)>


>  <Assay (EC50)>


>  <Article DOI>
10.1021/jm030336u

>  <Molecular Weight>
441.362

>  <Exact Mass>
441.114769956

>  <XLogP3>
3.18

>  <Heavy Atom Count>
31

>  <Ring Count>
2

>  <Hydrogen Bond Acceptor Count>
6

>  <Hydrogen Bond Donor Count>
3

>  <Rotatable Bond Count>
7

>  <Topological Polar Surface Area>
130.8

>  <Molecular Formula>
C19H18F3N3O6

>  <InChI>
InChI=1S/C19H18F3N3O6/c1-11(26)23-12-3-6-14(7-4-12)31-10-18(2,28)17(27)24-13-5-8-16(25(29)30)15(9-13)19(20,21)22/h3-9,28H,10H2,1-2H3,(H,23,26)(H,24,27)/t18-/m0/s1

>  <InChI Key>
YVXVTLGIDOACBJ-SFHVURJKSA-N

>  <BindingDB>
18665

>  <PubChem>
9824562

>  <ChEMBL>
CHEMBL125236

$$$$
Compound 36
Actelion Java MolfileCreator 2.0

  0  0  0  0  0  0              0 V3000
M  V30 BEGIN CTAB
M  V30 COUNTS 31 32 0 0 0
M  V30 BEGIN ATOM
M  V30 1 F 0.0 0.0 0.0 0
M  V30 2 C 0.6358 -1.3423 0.0 0
M  V30 3 F 1.9782 -0.6829 0.0 0
M  V30 4 F -0.73 -1.9782 0.0 0
M  V30 5 C 1.2717 -2.6847 0.0 0
M  V30 6 C 0.4121 -3.9093 0.0 0
M  V30 7 C 2.7553 -2.7906 0.0 0
M  V30 8 C 1.0479 -5.2516 0.0 0
M  V30 9 C -1.095 -3.7797 0.0 0
M  V30 10 C 3.3912 -4.133 0.0 0
M  V30 11 C 2.5316 -5.3576 0.0 0
M  V30 12 O -1.9546 -5.0043 0.0 0
M  V30 13 C 4.8748 -4.239 0.0 0
M  V30 14 C -3.4618 -4.8748 0.0 0
M  V30 15 F 6.3585 -4.3449 0.0 0
M  V30 16 F 4.7453 -5.7226 0.0 0
M  V30 17 F 4.9808 -2.7318 0.0 0
M  V30 18 C -4.3214 -6.0994 0.0 0
M  V30 19 C -4.1212 -3.5089 0.0 0
M  V30 20 O -3.6855 -7.4418 0.0 0
M  V30 21 C -5.8286 -5.9699 0.0 0
M  V30 22 C -5.6284 -3.3794 0.0 0
M  V30 23 C -4.5451 -8.6664 0.0 0
M  V30 24 C -6.488 -4.604 0.0 0
M  V30 25 C -7.9952 -4.4745 0.0 0
M  V30 26 C -8.6546 -3.1086 0.0 0
M  V30 27 C -7.8186 -1.8604 0.0 0
M  V30 28 C -10.1618 -2.979 0.0 0
M  V30 29 N -6.9825 -0.6123 0.0 0
M  V30 30 O -11.0214 -4.2036 0.0 0
M  V30 31 N -10.8212 -1.6131 0.0 0
M  V30 END ATOM
M  V30 BEGIN BOND
M  V30 1 1 1 2
M  V30 2 1 2 3
M  V30 3 1 2 4
M  V30 4 1 2 5
M  V30 5 2 5 6
M  V30 6 1 5 7
M  V30 7 1 6 8
M  V30 8 1 6 9
M  V30 9 2 7 10
M  V30 10 2 8 11
M  V30 11 1 9 12
M  V30 12 1 10 13
M  V30 13 1 12 14
M  V30 14 1 13 15
M  V30 15 1 13 16
M  V30 16 1 13 17
M  V30 17 2 14 18
M  V30 18 1 14 19
M  V30 19 1 18 20
M  V30 20 1 18 21
M  V30 21 2 19 22
M  V30 22 1 20 23
M  V30 23 2 21 24
M  V30 24 1 24 25
M  V30 25 2 25 26
M  V30 26 1 26 27
M  V30 27 1 26 28
M  V30 28 3 27 29
M  V30 29 2 28 30
M  V30 30 1 28 31
M  V30 31 1 10 11
M  V30 32 1 22 24
M  V30 END BOND
M  V30 END CTAB
M  END
>  <Compound ID>
26

>  <Name>


>  <Uniprot>
P11474

>  <Target>
ERRalpha

>  <Smiles>
COC1=CC(/C=C(\C#N)C(N)=O)=CC=C1OCC1=CC=C(C(F)(F)F)C=C1C(F)(F)F

>  <Kd (nM)>


>  <Assay (Kd)>


>  <Ki (nM)>


>  <Assay (Ki)>


>  <IC50 (nM)>
4.33

>  <Assay (IC50)>
IC50 of ERRalpha was assessed by a time resolved fluorescence resonance energy transfer assay

>  <EC50 (nM)>


>  <Assay (EC50)>


>  <Article DOI>
10.1021/acsmedchemlett.9b00025

>  <Molecular Weight>
444.331

>  <Exact Mass>
444.090861628

>  <XLogP3>
4.36

>  <Heavy Atom Count>
31

>  <Ring Count>
2

>  <Hydrogen Bond Acceptor Count>
4

>  <Hydrogen Bond Donor Count>
1

>  <Rotatable Bond Count>
6

>  <Topological Polar Surface Area>
85.34

>  <Molecular Formula>
C20H14F6N2O3

>  <InChI>
InChI=1S/C20H14F6N2O3/c1-30-17-7-11(6-13(9-27)18(28)29)2-5-16(17)31-10-12-3-4-14(19(21,22)23)8-15(12)20(24,25)26/h2-8H,10H2,1H3,(H2,28,29)/b13-6+

>  <InChI Key>
AFDDUGFHZUJENJ-AWNIVKPZSA-N

>  <BindingDB>
50501982

>  <PubChem>
149631187

>  <ChEMBL>
CHEMBL4533857

$$$$
Compound 37
Actelion Java MolfileCreator 2.0

  0  0  0  0  0  0              0 V3000
M  V30 BEGIN CTAB
M  V30 COUNTS 29 33 0 0 0
M  V30 BEGIN ATOM
M  V30 1 O 0.0 0.0 0.0 0
M  V30 2 C -1.44 -0.4249 0.0 0
M  V30 3 C 1.0859 -1.015 0.0 0
M  V30 4 C -1.7941 -1.8767 0.0 0
M  V30 5 C -2.5495 0.6137 0.0 0
M  V30 6 C 0.7318 -2.4669 0.0 0
M  V30 7 C 2.5023 -0.5665 0.0 0
M  V30 8 C -3.2341 -2.3016 0.0 0
M  V30 9 C -3.9895 0.1888 0.0 0
M  V30 10 C 1.8177 -3.482 0.0 0
M  V30 11 C 3.5882 -1.5816 0.0 0
M  V30 12 C -4.3436 -1.2629 0.0 0
M  V30 13 C 3.2341 -3.0334 0.0 0
M  V30 14 C -5.7837 -1.6878 0.0 0
M  V30 15 N -6.9876 -0.7672 0.0 0
M  V30 16 C -6.2794 -3.0925 0.0 0
M  V30 17 N -8.227 -1.617 0.0 0
M  V30 18 C -5.5594 -4.3908 0.0 0
M  V30 19 C -7.7903 -3.0571 0.0 0
M  V30 20 C -9.6552 -1.1213 0.0 0 CFG=1
M  V30 21 N -6.3384 -5.6656 0.0 0
M  V30 22 N -4.0722 -4.4026 0.0 0
M  V30 23 N -8.5693 -4.3318 0.0 0
M  V30 24 C -10.8001 -2.0892 0.0 0
M  V30 25 C -9.9503 0.3659 0.0 0
M  V30 26 C -7.8493 -5.6302 0.0 0
M  V30 27 N -12.2284 -1.5934 0.0 0
M  V30 28 C -11.3785 0.8616 0.0 0
M  V30 29 C -12.5234 -0.1062 0.0 0
M  V30 END ATOM
M  V30 BEGIN BOND
M  V30 1 1 1 2
M  V30 2 1 1 3
M  V30 3 2 2 4
M  V30 4 1 2 5
M  V30 5 2 3 6
M  V30 6 1 3 7
M  V30 7 1 4 8
M  V30 8 2 5 9
M  V30 9 1 6 10
M  V30 10 2 7 11
M  V30 11 2 8 12
M  V30 12 2 10 13
M  V30 13 1 12 14
M  V30 14 2 14 15
M  V30 15 1 14 16
M  V30 16 1 15 17
M  V30 17 2 16 18
M  V30 18 1 16 19
M  V30 19 1 20 17 CFG=1
M  V30 20 1 18 21
M  V30 21 1 18 22
M  V30 22 2 19 23
M  V30 23 1 20 24
M  V30 24 1 20 25
M  V30 25 2 21 26
M  V30 26 1 24 27
M  V30 27 1 25 28
M  V30 28 1 27 29
M  V30 29 1 9 12
M  V30 30 1 11 13
M  V30 31 1 17 19
M  V30 32 1 23 26
M  V30 33 1 28 29
M  V30 END BOND
M  V30 BEGIN COLLECTION
M  V30 MDLV30/STEABS ATOMS=(1 20)
M  V30 END COLLECTION
M  V30 END CTAB
M  END
>  <Compound ID>
27

>  <Name>
Despropenoylibrutinib

>  <Uniprot>
Q06187

>  <Target>
BTK

>  <Smiles>
NC1=NC=NC2=C1C(C1=CC=C(OC3=CC=CC=C3)C=C1)=NN2[C@@H]1CCCNC1

>  <Kd (nM)>


>  <Assay (Kd)>


>  <Ki (nM)>


>  <Assay (Ki)>


>  <IC50 (nM)>
65

>  <Assay (IC50)>
IC50 of BTK

>  <EC50 (nM)>


>  <Assay (EC50)>


>  <Article DOI>
10.1039/c8cc08716d

>  <Molecular Weight>
386.459

>  <Exact Mass>
386.185509324

>  <XLogP3>
3.06

>  <Heavy Atom Count>
29

>  <Ring Count>
5

>  <Hydrogen Bond Acceptor Count>
7

>  <Hydrogen Bond Donor Count>
2

>  <Rotatable Bond Count>
4

>  <Topological Polar Surface Area>
90.88

>  <Molecular Formula>
C22H22N6O

>  <InChI>
InChI=1S/C22H22N6O/c23-21-19-20(15-8-10-18(11-9-15)29-17-6-2-1-3-7-17)27-28(22(19)26-14-25-21)16-5-4-12-24-13-16/h1-3,6-11,14,16,24H,4-5,12-13H2,(H2,23,25,26)/t16-/m1/s1

>  <InChI Key>
GPSQYTDPBDNDGI-MRXNPFEDSA-N

>  <BindingDB>


>  <PubChem>
58223272

>  <ChEMBL>


$$$$
Compound 38
Actelion Java MolfileCreator 2.0

  0  0  0  0  0  0              0 V3000
M  V30 BEGIN CTAB
M  V30 COUNTS 33 36 0 0 0
M  V30 BEGIN ATOM
M  V30 1 F 0.0 0.0 0.0 0
M  V30 2 C -0.3779 -1.4408 0.0 0
M  V30 3 C -1.8306 -1.8424 0.0 0
M  V30 4 C 0.685 -2.4683 0.0 0
M  V30 5 O -2.9171 -0.7913 0.0 0
M  V30 6 C -2.2085 -3.2833 0.0 0
M  V30 7 C 0.307 -3.9092 0.0 0
M  V30 8 C -4.3698 -1.1928 0.0 0
M  V30 9 C -1.1456 -4.3108 0.0 0
M  V30 10 F 1.37 -4.9367 0.0 0
M  V30 11 C -4.7478 -2.6337 0.0 0
M  V30 12 C -5.4564 -0.1417 0.0 0
M  V30 13 C -6.2005 -3.0353 0.0 0
M  V30 14 C -6.9091 -0.5432 0.0 0
M  V30 15 C -7.287 -1.9841 0.0 0
M  V30 16 C -8.7397 -2.3857 0.0 0
M  V30 17 N -9.9326 -1.4526 0.0 0
M  V30 18 C -9.2712 -3.7793 0.0 0
M  V30 19 N -11.1845 -2.2794 0.0 0
M  V30 20 C -10.783 -3.7085 0.0 0
M  V30 21 C -8.4445 -5.0076 0.0 0
M  V30 22 C -12.6018 -1.7479 0.0 0 CFG=1
M  V30 23 N -11.716 -4.8777 0.0 0
M  V30 24 O -6.9563 -4.8895 0.0 0
M  V30 25 N -9.1177 -6.3422 0.0 0
M  V30 26 C -13.7592 -2.7046 0.0 0
M  V30 27 C -12.8734 -0.2598 0.0 0
M  V30 28 N -15.1765 -2.1731 0.0 0
M  V30 29 C -14.2907 0.2716 0.0 0
M  V30 30 C -16.3339 -3.1297 0.0 0
M  V30 31 C -15.4481 -0.685 0.0 0
M  V30 32 O -16.0859 -4.5942 0.0 0
M  V30 33 C -17.7512 -2.5983 0.0 0
M  V30 END ATOM
M  V30 BEGIN BOND
M  V30 1 1 1 2
M  V30 2 2 2 3
M  V30 3 1 2 4
M  V30 4 1 3 5
M  V30 5 1 3 6
M  V30 6 2 4 7
M  V30 7 1 5 8
M  V30 8 2 6 9
M  V30 9 1 7 10
M  V30 10 2 8 11
M  V30 11 1 8 12
M  V30 12 1 11 13
M  V30 13 2 12 14
M  V30 14 2 13 15
M  V30 15 1 15 16
M  V30 16 2 16 17
M  V30 17 1 16 18
M  V30 18 1 17 19
M  V30 19 2 18 20
M  V30 20 1 18 21
M  V30 21 1 22 19 CFG=1
M  V30 22 1 20 23
M  V30 23 2 21 24
M  V30 24 1 21 25
M  V30 25 1 22 26
M  V30 26 1 22 27
M  V30 27 1 26 28
M  V30 28 1 27 29
M  V30 29 1 28 30
M  V30 30 1 28 31
M  V30 31 2 30 32
M  V30 32 1 30 33
M  V30 33 1 7 9
M  V30 34 1 14 15
M  V30 35 1 19 20
M  V30 36 1 29 31
M  V30 END BOND
M  V30 BEGIN COLLECTION
M  V30 MDLV30/STEABS ATOMS=(1 22)
M  V30 END COLLECTION
M  V30 END CTAB
M  END
>  <Compound ID>
28

>  <Name>


>  <Uniprot>
Q06187

>  <Target>
BTK

>  <Smiles>
CC(=O)N1CCC[C@@H](N2N=C(C3=CC=C(OC4=CC=C(F)C=C4F)C=C3)C(C(N)=O)=C2N)C1

>  <Kd (nM)>
66

>  <Assay (Kd)>
Kd was assessed by a Biacore SA Chip

>  <Ki (nM)>


>  <Assay (Ki)>


>  <IC50 (nM)>


>  <Assay (IC50)>


>  <EC50 (nM)>


>  <Assay (EC50)>


>  <Article DOI>
10.1073/pnas.1803662115

>  <Molecular Weight>
455.465

>  <Exact Mass>
455.176896036

>  <XLogP3>
2.66

>  <Heavy Atom Count>
33

>  <Ring Count>
4

>  <Hydrogen Bond Acceptor Count>
6

>  <Hydrogen Bond Donor Count>
2

>  <Rotatable Bond Count>
5

>  <Topological Polar Surface Area>
116.47

>  <Molecular Formula>
C23H23F2N5O3

>  <InChI>
InChI=1S/C23H23F2N5O3/c1-13(31)29-10-2-3-16(12-29)30-22(26)20(23(27)32)21(28-30)14-4-7-17(8-5-14)33-19-9-6-15(24)11-18(19)25/h4-9,11,16H,2-3,10,12,26H2,1H3,(H2,27,32)/t16-/m1/s1

>  <InChI Key>
LUINACBFHZLHCO-MRXNPFEDSA-N

>  <BindingDB>


>  <PubChem>


>  <ChEMBL>


$$$$
Compound 39
Actelion Java MolfileCreator 2.0

  0  0  0  0  0  0              0 V3000
M  V30 BEGIN CTAB
M  V30 COUNTS 38 41 0 0 0
M  V30 BEGIN ATOM
M  V30 1 Cl 0.0 0.0 0.0 0
M  V30 2 C 0.9353 -1.1574 0.0 0
M  V30 3 C 0.3858 -2.5487 0.0 0
M  V30 4 C 2.4084 -0.9002 0.0 0
M  V30 5 N 1.3211 -3.7062 0.0 0
M  V30 6 N -1.1106 -2.7825 0.0 0
M  V30 7 N 3.3437 -2.0577 0.0 0
M  V30 8 C 2.7942 -3.449 0.0 0
M  V30 9 C -1.6601 -4.1738 0.0 0
M  V30 10 N 3.7295 -4.6064 0.0 0
M  V30 11 C -3.1567 -4.4077 0.0 0
M  V30 12 C -0.7248 -5.3313 0.0 0
M  V30 13 C 5.2027 -4.3492 0.0 0
M  V30 14 S -4.1154 -3.2268 0.0 0
M  V30 15 C -3.6945 -5.7989 0.0 0
M  V30 16 C -1.2743 -6.7226 0.0 0
M  V30 17 C 5.7288 -2.9345 0.0 0
M  V30 18 C 6.138 -5.5067 0.0 0
M  V30 19 O -2.9579 -2.2681 0.0 0
M  V30 20 O -5.2962 -4.1621 0.0 0
M  V30 21 C -5.0741 -2.046 0.0 0
M  V30 22 C -2.7592 -6.9564 0.0 0
M  V30 23 O 4.7701 -1.7537 0.0 0
M  V30 24 C 7.2019 -2.6773 0.0 0
M  V30 25 C 7.6111 -5.2494 0.0 0
M  V30 26 C -6.5706 -2.2798 0.0 0
M  V30 27 C -4.548 -0.6313 0.0 0
M  V30 28 C 5.2962 -0.339 0.0 0
M  V30 29 C 8.1373 -3.8348 0.0 0
M  V30 30 C 8.5465 -6.4069 0.0 0
M  V30 31 C 4.3375 0.8417 0.0 0
M  V30 32 C 6.7693 -0.0818 0.0 0
M  V30 33 C 9.6104 -3.5776 0.0 0
M  V30 34 C 10.5457 -4.735 0.0 0
M  V30 35 C 10.1365 -2.1629 0.0 0
M  V30 36 C 12.0188 -4.4778 0.0 0
M  V30 37 C 11.6096 -1.9057 0.0 0
M  V30 38 N 12.545 -3.0631 0.0 0
M  V30 END ATOM
M  V30 BEGIN BOND
M  V30 1 1 1 2
M  V30 2 2 2 3
M  V30 3 1 2 4
M  V30 4 1 3 5
M  V30 5 1 3 6
M  V30 6 2 4 7
M  V30 7 2 5 8
M  V30 8 1 6 9
M  V30 9 1 8 10
M  V30 10 2 9 11
M  V30 11 1 9 12
M  V30 12 1 10 13
M  V30 13 1 11 14
M  V30 14 1 11 15
M  V30 15 2 12 16
M  V30 16 2 13 17
M  V30 17 1 13 18
M  V30 18 2 14 19
M  V30 19 2 14 20
M  V30 20 1 14 21
M  V30 21 2 15 22
M  V30 22 1 17 23
M  V30 23 1 17 24
M  V30 24 2 18 25
M  V30 25 1 21 26
M  V30 26 1 21 27
M  V30 27 1 23 28
M  V30 28 2 24 29
M  V30 29 1 25 30
M  V30 30 1 28 31
M  V30 31 1 28 32
M  V30 32 1 29 33
M  V30 33 1 33 34
M  V30 34 1 33 35
M  V30 35 1 34 36
M  V30 36 1 35 37
M  V30 37 1 36 38
M  V30 38 1 7 8
M  V30 39 1 16 22
M  V30 40 1 25 29
M  V30 41 1 37 38
M  V30 END BOND
M  V30 END CTAB
M  END
>  <Compound ID>
29

>  <Name>
Ceritinib

>  <Uniprot>
Q9UM73

>  <Target>
ALK

>  <Smiles>
CC1=CC(NC2=NC=C(Cl)C(NC3=CC=CC=C3S(=O)(=O)C(C)C)=N2)=C(OC(C)C)C=C1C1CCNCC1

>  <Kd (nM)>
1.3

>  <Assay (Kd)>
A competitive binding assay using DNA tag labeled ALK

>  <Ki (nM)>


>  <Assay (Ki)>


>  <IC50 (nM)>


>  <Assay (IC50)>


>  <EC50 (nM)>


>  <Assay (EC50)>


>  <Article DOI>
10.1016/j.ejmech.2018.03.071

>  <Molecular Weight>
558.148

>  <Exact Mass>
557.222738692

>  <XLogP3>
6.42

>  <Heavy Atom Count>
38

>  <Ring Count>
4

>  <Hydrogen Bond Acceptor Count>
8

>  <Hydrogen Bond Donor Count>
3

>  <Rotatable Bond Count>
9

>  <Topological Polar Surface Area>
105.24

>  <Molecular Formula>
C28H36ClN5O3S

>  <InChI>
InChI=1S/C28H36ClN5O3S/c1-17(2)37-25-15-21(20-10-12-30-13-11-20)19(5)14-24(25)33-28-31-16-22(29)27(34-28)32-23-8-6-7-9-26(23)38(35,36)18(3)4/h6-9,14-18,20,30H,10-13H2,1-5H3,(H2,31,32,33,34)

>  <InChI Key>
VERWOWGGCGHDQE-UHFFFAOYSA-N

>  <BindingDB>
50436850

>  <PubChem>
57379345

>  <ChEMBL>
CHEMBL2403108

$$$$
Compound 40
Actelion Java MolfileCreator 2.0

  0  0  0  0  0  0              0 V3000
M  V30 BEGIN CTAB
M  V30 COUNTS 38 41 0 0 0
M  V30 BEGIN ATOM
M  V30 1 Cl 0.0 0.0 0.0 0
M  V30 2 C 0.9353 -1.1574 0.0 0
M  V30 3 C 0.3858 -2.5487 0.0 0
M  V30 4 C 2.4084 -0.9002 0.0 0
M  V30 5 N 1.3211 -3.7062 0.0 0
M  V30 6 N -1.1106 -2.7825 0.0 0
M  V30 7 N 3.3437 -2.0577 0.0 0
M  V30 8 C 2.7942 -3.449 0.0 0
M  V30 9 C -1.6601 -4.1738 0.0 0
M  V30 10 N 3.7295 -4.6064 0.0 0
M  V30 11 C -3.1567 -4.4077 0.0 0
M  V30 12 C -0.7248 -5.3313 0.0 0
M  V30 13 C 5.2027 -4.3492 0.0 0
M  V30 14 S -4.1154 -3.2268 0.0 0
M  V30 15 C -3.6945 -5.7989 0.0 0
M  V30 16 C -1.2743 -6.7226 0.0 0
M  V30 17 C 5.7288 -2.9345 0.0 0
M  V30 18 C 6.138 -5.5067 0.0 0
M  V30 19 O -2.9579 -2.2681 0.0 0
M  V30 20 O -5.2962 -4.1621 0.0 0
M  V30 21 C -5.0741 -2.046 0.0 0
M  V30 22 C -2.7592 -6.9564 0.0 0
M  V30 23 O 4.7701 -1.7537 0.0 0
M  V30 24 C 7.2019 -2.6773 0.0 0
M  V30 25 C 7.6111 -5.2494 0.0 0
M  V30 26 C -6.5706 -2.2798 0.0 0
M  V30 27 C -4.548 -0.6313 0.0 0
M  V30 28 C 5.2962 -0.339 0.0 0
M  V30 29 C 8.1373 -3.8348 0.0 0
M  V30 30 C 8.5465 -6.4069 0.0 0
M  V30 31 C 4.3375 0.8417 0.0 0
M  V30 32 C 6.7693 -0.0818 0.0 0
M  V30 33 C 9.6104 -3.5776 0.0 0
M  V30 34 C 10.5457 -4.735 0.0 0
M  V30 35 C 10.1365 -2.1629 0.0 0
M  V30 36 C 12.0188 -4.4778 0.0 0
M  V30 37 C 11.6096 -1.9057 0.0 0
M  V30 38 N 12.545 -3.0631 0.0 0
M  V30 END ATOM
M  V30 BEGIN BOND
M  V30 1 1 1 2
M  V30 2 2 2 3
M  V30 3 1 2 4
M  V30 4 1 3 5
M  V30 5 1 3 6
M  V30 6 2 4 7
M  V30 7 2 5 8
M  V30 8 1 6 9
M  V30 9 1 8 10
M  V30 10 2 9 11
M  V30 11 1 9 12
M  V30 12 1 10 13
M  V30 13 1 11 14
M  V30 14 1 11 15
M  V30 15 2 12 16
M  V30 16 2 13 17
M  V30 17 1 13 18
M  V30 18 2 14 19
M  V30 19 2 14 20
M  V30 20 1 14 21
M  V30 21 2 15 22
M  V30 22 1 17 23
M  V30 23 1 17 24
M  V30 24 2 18 25
M  V30 25 1 21 26
M  V30 26 1 21 27
M  V30 27 1 23 28
M  V30 28 2 24 29
M  V30 29 1 25 30
M  V30 30 1 28 31
M  V30 31 1 28 32
M  V30 32 1 29 33
M  V30 33 1 33 34
M  V30 34 1 33 35
M  V30 35 1 34 36
M  V30 36 1 35 37
M  V30 37 1 36 38
M  V30 38 1 7 8
M  V30 39 1 16 22
M  V30 40 1 25 29
M  V30 41 1 37 38
M  V30 END BOND
M  V30 END CTAB
M  END
>  <Compound ID>
29

>  <Name>
Ceritinib

>  <Uniprot>
O14965

>  <Target>
AURKA

>  <Smiles>
CC1=CC(NC2=NC=C(Cl)C(NC3=CC=CC=C3S(=O)(=O)C(C)C)=N2)=C(OC(C)C)C=C1C1CCNCC1

>  <Kd (nM)>


>  <Assay (Kd)>


>  <Ki (nM)>


>  <Assay (Ki)>


>  <IC50 (nM)>
6550

>  <Assay (IC50)>
IC50 was assessed by Z'LYTE Assay

>  <EC50 (nM)>


>  <Assay (EC50)>


>  <Article DOI>
10.1021/acs.jmedchem.7b01655

>  <Molecular Weight>
558.148

>  <Exact Mass>
557.222738692

>  <XLogP3>
6.42

>  <Heavy Atom Count>
38

>  <Ring Count>
4

>  <Hydrogen Bond Acceptor Count>
8

>  <Hydrogen Bond Donor Count>
3

>  <Rotatable Bond Count>
9

>  <Topological Polar Surface Area>
105.24

>  <Molecular Formula>
C28H36ClN5O3S

>  <InChI>
InChI=1S/C28H36ClN5O3S/c1-17(2)37-25-15-21(20-10-12-30-13-11-20)19(5)14-24(25)33-28-31-16-22(29)27(34-28)32-23-8-6-7-9-26(23)38(35,36)18(3)4/h6-9,14-18,20,30H,10-13H2,1-5H3,(H2,31,32,33,34)

>  <InChI Key>
VERWOWGGCGHDQE-UHFFFAOYSA-N

>  <BindingDB>
50436850

>  <PubChem>
57379345

>  <ChEMBL>
CHEMBL2403108

$$$$
Compound 41
Actelion Java MolfileCreator 2.0

  0  0  0  0  0  0              0 V3000
M  V30 BEGIN CTAB
M  V30 COUNTS 38 41 0 0 0
M  V30 BEGIN ATOM
M  V30 1 Cl 0.0 0.0 0.0 0
M  V30 2 C 0.9353 -1.1574 0.0 0
M  V30 3 C 0.3858 -2.5487 0.0 0
M  V30 4 C 2.4084 -0.9002 0.0 0
M  V30 5 N 1.3211 -3.7062 0.0 0
M  V30 6 N -1.1106 -2.7825 0.0 0
M  V30 7 N 3.3437 -2.0577 0.0 0
M  V30 8 C 2.7942 -3.449 0.0 0
M  V30 9 C -1.6601 -4.1738 0.0 0
M  V30 10 N 3.7295 -4.6064 0.0 0
M  V30 11 C -3.1567 -4.4077 0.0 0
M  V30 12 C -0.7248 -5.3313 0.0 0
M  V30 13 C 5.2027 -4.3492 0.0 0
M  V30 14 S -4.1154 -3.2268 0.0 0
M  V30 15 C -3.6945 -5.7989 0.0 0
M  V30 16 C -1.2743 -6.7226 0.0 0
M  V30 17 C 5.7288 -2.9345 0.0 0
M  V30 18 C 6.138 -5.5067 0.0 0
M  V30 19 O -2.9579 -2.2681 0.0 0
M  V30 20 O -5.2962 -4.1621 0.0 0
M  V30 21 C -5.0741 -2.046 0.0 0
M  V30 22 C -2.7592 -6.9564 0.0 0
M  V30 23 O 4.7701 -1.7537 0.0 0
M  V30 24 C 7.2019 -2.6773 0.0 0
M  V30 25 C 7.6111 -5.2494 0.0 0
M  V30 26 C -6.5706 -2.2798 0.0 0
M  V30 27 C -4.548 -0.6313 0.0 0
M  V30 28 C 5.2962 -0.339 0.0 0
M  V30 29 C 8.1373 -3.8348 0.0 0
M  V30 30 C 8.5465 -6.4069 0.0 0
M  V30 31 C 4.3375 0.8417 0.0 0
M  V30 32 C 6.7693 -0.0818 0.0 0
M  V30 33 C 9.6104 -3.5776 0.0 0
M  V30 34 C 10.5457 -4.735 0.0 0
M  V30 35 C 10.1365 -2.1629 0.0 0
M  V30 36 C 12.0188 -4.4778 0.0 0
M  V30 37 C 11.6096 -1.9057 0.0 0
M  V30 38 N 12.545 -3.0631 0.0 0
M  V30 END ATOM
M  V30 BEGIN BOND
M  V30 1 1 1 2
M  V30 2 2 2 3
M  V30 3 1 2 4
M  V30 4 1 3 5
M  V30 5 1 3 6
M  V30 6 2 4 7
M  V30 7 2 5 8
M  V30 8 1 6 9
M  V30 9 1 8 10
M  V30 10 2 9 11
M  V30 11 1 9 12
M  V30 12 1 10 13
M  V30 13 1 11 14
M  V30 14 1 11 15
M  V30 15 2 12 16
M  V30 16 2 13 17
M  V30 17 1 13 18
M  V30 18 2 14 19
M  V30 19 2 14 20
M  V30 20 1 14 21
M  V30 21 2 15 22
M  V30 22 1 17 23
M  V30 23 1 17 24
M  V30 24 2 18 25
M  V30 25 1 21 26
M  V30 26 1 21 27
M  V30 27 1 23 28
M  V30 28 2 24 29
M  V30 29 1 25 30
M  V30 30 1 28 31
M  V30 31 1 28 32
M  V30 32 1 29 33
M  V30 33 1 33 34
M  V30 34 1 33 35
M  V30 35 1 34 36
M  V30 36 1 35 37
M  V30 37 1 36 38
M  V30 38 1 7 8
M  V30 39 1 16 22
M  V30 40 1 25 29
M  V30 41 1 37 38
M  V30 END BOND
M  V30 END CTAB
M  END
>  <Compound ID>
29

>  <Name>
Ceritinib

>  <Uniprot>
Q05397

>  <Target>
FAK

>  <Smiles>
CC1=CC(NC2=NC=C(Cl)C(NC3=CC=CC=C3S(=O)(=O)C(C)C)=N2)=C(OC(C)C)C=C1C1CCNCC1

>  <Kd (nM)>


>  <Assay (Kd)>


>  <Ki (nM)>


>  <Assay (Ki)>


>  <IC50 (nM)>
27.9

>  <Assay (IC50)>
IC50 was assessed by Z'LYTE Assay

>  <EC50 (nM)>


>  <Assay (EC50)>


>  <Article DOI>
10.1021/acs.jmedchem.7b01655

>  <Molecular Weight>
558.148

>  <Exact Mass>
557.222738692

>  <XLogP3>
6.42

>  <Heavy Atom Count>
38

>  <Ring Count>
4

>  <Hydrogen Bond Acceptor Count>
8

>  <Hydrogen Bond Donor Count>
3

>  <Rotatable Bond Count>
9

>  <Topological Polar Surface Area>
105.24

>  <Molecular Formula>
C28H36ClN5O3S

>  <InChI>
InChI=1S/C28H36ClN5O3S/c1-17(2)37-25-15-21(20-10-12-30-13-11-20)19(5)14-24(25)33-28-31-16-22(29)27(34-28)32-23-8-6-7-9-26(23)38(35,36)18(3)4/h6-9,14-18,20,30H,10-13H2,1-5H3,(H2,31,32,33,34)

>  <InChI Key>
VERWOWGGCGHDQE-UHFFFAOYSA-N

>  <BindingDB>
50436850

>  <PubChem>
57379345

>  <ChEMBL>
CHEMBL2403108

$$$$
Compound 42
Actelion Java MolfileCreator 2.0

  0  0  0  0  0  0              0 V3000
M  V30 BEGIN CTAB
M  V30 COUNTS 38 41 0 0 0
M  V30 BEGIN ATOM
M  V30 1 Cl 0.0 0.0 0.0 0
M  V30 2 C 0.9353 -1.1574 0.0 0
M  V30 3 C 0.3858 -2.5487 0.0 0
M  V30 4 C 2.4084 -0.9002 0.0 0
M  V30 5 N 1.3211 -3.7062 0.0 0
M  V30 6 N -1.1106 -2.7825 0.0 0
M  V30 7 N 3.3437 -2.0577 0.0 0
M  V30 8 C 2.7942 -3.449 0.0 0
M  V30 9 C -1.6601 -4.1738 0.0 0
M  V30 10 N 3.7295 -4.6064 0.0 0
M  V30 11 C -3.1567 -4.4077 0.0 0
M  V30 12 C -0.7248 -5.3313 0.0 0
M  V30 13 C 5.2027 -4.3492 0.0 0
M  V30 14 S -4.1154 -3.2268 0.0 0
M  V30 15 C -3.6945 -5.7989 0.0 0
M  V30 16 C -1.2743 -6.7226 0.0 0
M  V30 17 C 5.7288 -2.9345 0.0 0
M  V30 18 C 6.138 -5.5067 0.0 0
M  V30 19 O -2.9579 -2.2681 0.0 0
M  V30 20 O -5.2962 -4.1621 0.0 0
M  V30 21 C -5.0741 -2.046 0.0 0
M  V30 22 C -2.7592 -6.9564 0.0 0
M  V30 23 O 4.7701 -1.7537 0.0 0
M  V30 24 C 7.2019 -2.6773 0.0 0
M  V30 25 C 7.6111 -5.2494 0.0 0
M  V30 26 C -6.5706 -2.2798 0.0 0
M  V30 27 C -4.548 -0.6313 0.0 0
M  V30 28 C 5.2962 -0.339 0.0 0
M  V30 29 C 8.1373 -3.8348 0.0 0
M  V30 30 C 8.5465 -6.4069 0.0 0
M  V30 31 C 4.3375 0.8417 0.0 0
M  V30 32 C 6.7693 -0.0818 0.0 0
M  V30 33 C 9.6104 -3.5776 0.0 0
M  V30 34 C 10.5457 -4.735 0.0 0
M  V30 35 C 10.1365 -2.1629 0.0 0
M  V30 36 C 12.0188 -4.4778 0.0 0
M  V30 37 C 11.6096 -1.9057 0.0 0
M  V30 38 N 12.545 -3.0631 0.0 0
M  V30 END ATOM
M  V30 BEGIN BOND
M  V30 1 1 1 2
M  V30 2 2 2 3
M  V30 3 1 2 4
M  V30 4 1 3 5
M  V30 5 1 3 6
M  V30 6 2 4 7
M  V30 7 2 5 8
M  V30 8 1 6 9
M  V30 9 1 8 10
M  V30 10 2 9 11
M  V30 11 1 9 12
M  V30 12 1 10 13
M  V30 13 1 11 14
M  V30 14 1 11 15
M  V30 15 2 12 16
M  V30 16 2 13 17
M  V30 17 1 13 18
M  V30 18 2 14 19
M  V30 19 2 14 20
M  V30 20 1 14 21
M  V30 21 2 15 22
M  V30 22 1 17 23
M  V30 23 1 17 24
M  V30 24 2 18 25
M  V30 25 1 21 26
M  V30 26 1 21 27
M  V30 27 1 23 28
M  V30 28 2 24 29
M  V30 29 1 25 30
M  V30 30 1 28 31
M  V30 31 1 28 32
M  V30 32 1 29 33
M  V30 33 1 33 34
M  V30 34 1 33 35
M  V30 35 1 34 36
M  V30 36 1 35 37
M  V30 37 1 36 38
M  V30 38 1 7 8
M  V30 39 1 16 22
M  V30 40 1 25 29
M  V30 41 1 37 38
M  V30 END BOND
M  V30 END CTAB
M  END
>  <Compound ID>
29

>  <Name>
Ceritinib

>  <Uniprot>
P16591

>  <Target>
FER

>  <Smiles>
CC1=CC(NC2=NC=C(Cl)C(NC3=CC=CC=C3S(=O)(=O)C(C)C)=N2)=C(OC(C)C)C=C1C1CCNCC1

>  <Kd (nM)>


>  <Assay (Kd)>


>  <Ki (nM)>


>  <Assay (Ki)>


>  <IC50 (nM)>
15.8

>  <Assay (IC50)>
IC50 was assessed by Z'LYTE Assay

>  <EC50 (nM)>


>  <Assay (EC50)>


>  <Article DOI>
10.1021/acs.jmedchem.7b01655

>  <Molecular Weight>
558.148

>  <Exact Mass>
557.222738692

>  <XLogP3>
6.42

>  <Heavy Atom Count>
38

>  <Ring Count>
4

>  <Hydrogen Bond Acceptor Count>
8

>  <Hydrogen Bond Donor Count>
3

>  <Rotatable Bond Count>
9

>  <Topological Polar Surface Area>
105.24

>  <Molecular Formula>
C28H36ClN5O3S

>  <InChI>
InChI=1S/C28H36ClN5O3S/c1-17(2)37-25-15-21(20-10-12-30-13-11-20)19(5)14-24(25)33-28-31-16-22(29)27(34-28)32-23-8-6-7-9-26(23)38(35,36)18(3)4/h6-9,14-18,20,30H,10-13H2,1-5H3,(H2,31,32,33,34)

>  <InChI Key>
VERWOWGGCGHDQE-UHFFFAOYSA-N

>  <BindingDB>
50436850

>  <PubChem>
57379345

>  <ChEMBL>
CHEMBL2403108

$$$$
Compound 43
Actelion Java MolfileCreator 2.0

  0  0  0  0  0  0              0 V3000
M  V30 BEGIN CTAB
M  V30 COUNTS 38 41 0 0 0
M  V30 BEGIN ATOM
M  V30 1 Cl 0.0 0.0 0.0 0
M  V30 2 C 0.9353 -1.1574 0.0 0
M  V30 3 C 0.3858 -2.5487 0.0 0
M  V30 4 C 2.4084 -0.9002 0.0 0
M  V30 5 N 1.3211 -3.7062 0.0 0
M  V30 6 N -1.1106 -2.7825 0.0 0
M  V30 7 N 3.3437 -2.0577 0.0 0
M  V30 8 C 2.7942 -3.449 0.0 0
M  V30 9 C -1.6601 -4.1738 0.0 0
M  V30 10 N 3.7295 -4.6064 0.0 0
M  V30 11 C -3.1567 -4.4077 0.0 0
M  V30 12 C -0.7248 -5.3313 0.0 0
M  V30 13 C 5.2027 -4.3492 0.0 0
M  V30 14 S -4.1154 -3.2268 0.0 0
M  V30 15 C -3.6945 -5.7989 0.0 0
M  V30 16 C -1.2743 -6.7226 0.0 0
M  V30 17 C 5.7288 -2.9345 0.0 0
M  V30 18 C 6.138 -5.5067 0.0 0
M  V30 19 O -2.9579 -2.2681 0.0 0
M  V30 20 O -5.2962 -4.1621 0.0 0
M  V30 21 C -5.0741 -2.046 0.0 0
M  V30 22 C -2.7592 -6.9564 0.0 0
M  V30 23 O 4.7701 -1.7537 0.0 0
M  V30 24 C 7.2019 -2.6773 0.0 0
M  V30 25 C 7.6111 -5.2494 0.0 0
M  V30 26 C -6.5706 -2.2798 0.0 0
M  V30 27 C -4.548 -0.6313 0.0 0
M  V30 28 C 5.2962 -0.339 0.0 0
M  V30 29 C 8.1373 -3.8348 0.0 0
M  V30 30 C 8.5465 -6.4069 0.0 0
M  V30 31 C 4.3375 0.8417 0.0 0
M  V30 32 C 6.7693 -0.0818 0.0 0
M  V30 33 C 9.6104 -3.5776 0.0 0
M  V30 34 C 10.5457 -4.735 0.0 0
M  V30 35 C 10.1365 -2.1629 0.0 0
M  V30 36 C 12.0188 -4.4778 0.0 0
M  V30 37 C 11.6096 -1.9057 0.0 0
M  V30 38 N 12.545 -3.0631 0.0 0
M  V30 END ATOM
M  V30 BEGIN BOND
M  V30 1 1 1 2
M  V30 2 2 2 3
M  V30 3 1 2 4
M  V30 4 1 3 5
M  V30 5 1 3 6
M  V30 6 2 4 7
M  V30 7 2 5 8
M  V30 8 1 6 9
M  V30 9 1 8 10
M  V30 10 2 9 11
M  V30 11 1 9 12
M  V30 12 1 10 13
M  V30 13 1 11 14
M  V30 14 1 11 15
M  V30 15 2 12 16
M  V30 16 2 13 17
M  V30 17 1 13 18
M  V30 18 2 14 19
M  V30 19 2 14 20
M  V30 20 1 14 21
M  V30 21 2 15 22
M  V30 22 1 17 23
M  V30 23 1 17 24
M  V30 24 2 18 25
M  V30 25 1 21 26
M  V30 26 1 21 27
M  V30 27 1 23 28
M  V30 28 2 24 29
M  V30 29 1 25 30
M  V30 30 1 28 31
M  V30 31 1 28 32
M  V30 32 1 29 33
M  V30 33 1 33 34
M  V30 34 1 33 35
M  V30 35 1 34 36
M  V30 36 1 35 37
M  V30 37 1 36 38
M  V30 38 1 7 8
M  V30 39 1 16 22
M  V30 40 1 25 29
M  V30 41 1 37 38
M  V30 END BOND
M  V30 END CTAB
M  END
>  <Compound ID>
29

>  <Name>
Ceritinib

>  <Uniprot>
Q15418

>  <Target>
RPS6KA1

>  <Smiles>
CC1=CC(NC2=NC=C(Cl)C(NC3=CC=CC=C3S(=O)(=O)C(C)C)=N2)=C(OC(C)C)C=C1C1CCNCC1

>  <Kd (nM)>


>  <Assay (Kd)>


>  <Ki (nM)>


>  <Assay (Ki)>


>  <IC50 (nM)>
316

>  <Assay (IC50)>
IC50 was assessed by Z'LYTE Assay

>  <EC50 (nM)>


>  <Assay (EC50)>


>  <Article DOI>
10.1021/acs.jmedchem.7b01655

>  <Molecular Weight>
558.148

>  <Exact Mass>
557.222738692

>  <XLogP3>
6.42

>  <Heavy Atom Count>
38

>  <Ring Count>
4

>  <Hydrogen Bond Acceptor Count>
8

>  <Hydrogen Bond Donor Count>
3

>  <Rotatable Bond Count>
9

>  <Topological Polar Surface Area>
105.24

>  <Molecular Formula>
C28H36ClN5O3S

>  <InChI>
InChI=1S/C28H36ClN5O3S/c1-17(2)37-25-15-21(20-10-12-30-13-11-20)19(5)14-24(25)33-28-31-16-22(29)27(34-28)32-23-8-6-7-9-26(23)38(35,36)18(3)4/h6-9,14-18,20,30H,10-13H2,1-5H3,(H2,31,32,33,34)

>  <InChI Key>
VERWOWGGCGHDQE-UHFFFAOYSA-N

>  <BindingDB>
50436850

>  <PubChem>
57379345

>  <ChEMBL>
CHEMBL2403108

$$$$
Compound 44
Actelion Java MolfileCreator 2.0

  0  0  0  0  0  0              0 V3000
M  V30 BEGIN CTAB
M  V30 COUNTS 23 23 0 0 0
M  V30 BEGIN ATOM
M  V30 1 O 0.0 0.0 0.0 0
M  V30 2 C -0.1638 -1.4745 0.0 0
M  V30 3 N 1.0298 -2.3405 0.0 0
M  V30 4 C -1.5447 -2.0713 0.0 0
M  V30 5 O 2.3873 -1.7202 0.0 0
M  V30 6 C -2.7617 -1.1819 0.0 0
M  V30 7 C -4.1426 -1.7787 0.0 0
M  V30 8 C -5.3597 -0.8893 0.0 0
M  V30 9 C -6.7406 -1.4862 0.0 0
M  V30 10 C -7.9577 -0.5968 0.0 0
M  V30 11 C -9.3386 -1.1936 0.0 0
M  V30 12 O -9.5024 -2.6681 0.0 0
M  V30 13 N -10.5556 -0.3042 0.0 0
M  V30 14 N -11.9365 -0.901 0.0 0
M  V30 15 C -13.1536 -0.0117 0.0 0
M  V30 16 C -14.5345 -0.6085 0.0 0
M  V30 17 C -15.7516 0.2808 0.0 0
M  V30 18 C -14.6983 -2.083 0.0 0
M  V30 19 C -17.1325 -0.3159 0.0 0
M  V30 20 C -16.0792 -2.6798 0.0 0
M  V30 21 C -17.2963 -1.7904 0.0 0
M  V30 22 O -18.6772 -2.3873 0.0 0
M  V30 23 C -19.8943 -1.4979 0.0 0
M  V30 END ATOM
M  V30 BEGIN BOND
M  V30 1 2 1 2
M  V30 2 1 2 3
M  V30 3 1 2 4
M  V30 4 1 3 5
M  V30 5 1 4 6
M  V30 6 1 6 7
M  V30 7 1 7 8
M  V30 8 1 8 9
M  V30 9 1 9 10
M  V30 10 1 10 11
M  V30 11 2 11 12
M  V30 12 1 11 13
M  V30 13 1 13 14
M  V30 14 2 14 15
M  V30 15 1 15 16
M  V30 16 2 16 17
M  V30 17 1 16 18
M  V30 18 1 17 19
M  V30 19 2 18 20
M  V30 20 2 19 21
M  V30 21 1 21 22
M  V30 22 1 22 23
M  V30 23 1 20 21
M  V30 END BOND
M  V30 END CTAB
M  END
>  <Compound ID>
30

>  <Name>


>  <Uniprot>
Q9UBN7

>  <Target>
HDAC6

>  <Smiles>
COC1=CC=C(/C=N/NC(=O)CCCCCCC(=O)NO)C=C1

>  <Kd (nM)>


>  <Assay (Kd)>


>  <Ki (nM)>


>  <Assay (Ki)>


>  <IC50 (nM)>
35.8

>  <Assay (IC50)>
IC50 of human recombinant HDAC6 was assessed by the HDAC-Glo I/II Assay

>  <EC50 (nM)>


>  <Assay (EC50)>


>  <Article DOI>
10.1158/1535-7163.MCT-14-0073

>  <Molecular Weight>
321.377

>  <Exact Mass>
321.168856216

>  <XLogP3>
1.63

>  <Heavy Atom Count>
23

>  <Ring Count>
1

>  <Hydrogen Bond Acceptor Count>
5

>  <Hydrogen Bond Donor Count>
3

>  <Rotatable Bond Count>
10

>  <Topological Polar Surface Area>
100.02

>  <Molecular Formula>
C16H23N3O4

>  <InChI>
InChI=1S/C16H23N3O4/c1-23-14-10-8-13(9-11-14)12-17-18-15(20)6-4-2-3-5-7-16(21)19-22/h8-12,22H,2-7H2,1H3,(H,18,20)(H,19,21)/b17-12+

>  <InChI Key>
BSNPAQAXSJBCQS-SFQUDFHCSA-N

>  <BindingDB>


>  <PubChem>


>  <ChEMBL>


$$$$
Compound 45
Actelion Java MolfileCreator 2.0

  0  0  0  0  0  0              0 V3000
M  V30 BEGIN CTAB
M  V30 COUNTS 31 32 0 0 0
M  V30 BEGIN ATOM
M  V30 1 S 0.0 0.0 0.0 0
M  V30 2 O -0.438 -1.4292 0.0 0
M  V30 3 O 0.4149 1.4523 0.0 0
M  V30 4 C 1.4292 -0.4149 0.0 0
M  V30 5 C -1.4523 0.438 0.0 0
M  V30 6 C 1.7635 -1.8673 0.0 0
M  V30 7 C -2.5588 -0.5878 0.0 0
M  V30 8 C 3.1928 -2.2822 0.0 0
M  V30 9 C -2.2246 -2.0402 0.0 0
M  V30 10 C -4.0112 -0.1498 0.0 0
M  V30 11 C 3.5271 -3.7346 0.0 0
M  V30 12 C 4.2763 -1.2333 0.0 0
M  V30 13 C -3.3311 -3.066 0.0 0
M  V30 14 C -5.1177 -1.1757 0.0 0
M  V30 15 O 2.4205 -4.7604 0.0 0
M  V30 16 C 4.9564 -4.1495 0.0 0
M  V30 17 O 3.919 0.242 0.0 0
M  V30 18 C 5.7056 -1.6482 0.0 0
M  V30 19 N -2.9969 -4.5184 0.0 0
M  V30 20 C -4.7835 -2.628 0.0 0
M  V30 21 C 2.7548 -6.2128 0.0 0
M  V30 22 C 6.0399 -3.1006 0.0 0
M  V30 23 C 5.0025 1.2909 0.0 0
M  V30 24 C -1.5676 -4.9333 0.0 0
M  V30 25 O -5.89 -3.6539 0.0 0
M  V30 26 O 7.4692 -3.5156 0.0 0
M  V30 27 C -1.2333 -6.3857 0.0 0
M  V30 28 C -7.3424 -3.2159 0.0 0
M  V30 29 C 7.8034 -4.9679 0.0 0
M  V30 30 O -2.3398 -7.4115 0.0 0
M  V30 31 O 0.1959 -6.8006 0.0 0
M  V30 END ATOM
M  V30 BEGIN BOND
M  V30 1 2 1 2
M  V30 2 2 1 3
M  V30 3 1 1 4
M  V30 4 1 1 5
M  V30 5 2 4 6
M  V30 6 1 5 7
M  V30 7 1 6 8
M  V30 8 2 7 9
M  V30 9 1 7 10
M  V30 10 2 8 11
M  V30 11 1 8 12
M  V30 12 1 9 13
M  V30 13 2 10 14
M  V30 14 1 11 15
M  V30 15 1 11 16
M  V30 16 1 12 17
M  V30 17 2 12 18
M  V30 18 1 13 19
M  V30 19 2 13 20
M  V30 20 1 15 21
M  V30 21 2 16 22
M  V30 22 1 17 23
M  V30 23 1 19 24
M  V30 24 1 20 25
M  V30 25 1 22 26
M  V30 26 1 24 27
M  V30 27 1 25 28
M  V30 28 1 26 29
M  V30 29 2 27 30
M  V30 30 1 27 31
M  V30 31 1 14 20
M  V30 32 1 18 22
M  V30 END BOND
M  V30 END CTAB
M  END
>  <Compound ID>
31

>  <Name>
RIGOSERTIB

>  <Uniprot>
P15056

>  <Target>
BRAF

>  <Smiles>
COC1=CC(OC)=C(/C=C/S(=O)(=O)CC2=CC=C(OC)C(NCC(=O)O)=C2)C(OC)=C1

>  <Kd (nM)>
0.71

>  <Assay (Kd)>
Microscale thermophoresis

>  <Ki (nM)>


>  <Assay (Ki)>


>  <IC50 (nM)>


>  <Assay (IC50)>


>  <EC50 (nM)>


>  <Assay (EC50)>


>  <Article DOI>
10.1016/j.cell.2016.03.045

>  <Molecular Weight>
451.497

>  <Exact Mass>
451.13008776

>  <XLogP3>
2.54

>  <Heavy Atom Count>
31

>  <Ring Count>
2

>  <Hydrogen Bond Acceptor Count>
8

>  <Hydrogen Bond Donor Count>
2

>  <Rotatable Bond Count>
11

>  <Topological Polar Surface Area>
120.39

>  <Molecular Formula>
C21H25NO8S

>  <InChI>
InChI=1S/C21H25NO8S/c1-27-15-10-19(29-3)16(20(11-15)30-4)7-8-31(25,26)13-14-5-6-18(28-2)17(9-14)22-12-21(23)24/h5-11,22H,12-13H2,1-4H3,(H,23,24)/b8-7+

>  <InChI Key>
OWBFCJROIKNMGD-BQYQJAHWSA-N

>  <BindingDB>
50060917

>  <PubChem>
6918736

>  <ChEMBL>
CHEMBL1241855

$$$$
Compound 46
Actelion Java MolfileCreator 2.0

  0  0  0  0  0  0              0 V3000
M  V30 BEGIN CTAB
M  V30 COUNTS 33 37 0 0 0
M  V30 BEGIN ATOM
M  V30 1 O 0.0 0.0 0.0 0
M  V30 2 C 1.4164 -0.4603 0.0 0
M  V30 3 N 2.526 0.5547 0.0 0
M  V30 4 C 1.7115 -1.924 0.0 0
M  V30 5 C 3.9425 0.0944 0.0 0
M  V30 6 C 2.2073 2.042 0.0 0
M  V30 7 C 3.128 -2.3844 0.0 0
M  V30 8 C 0.5783 -2.9155 0.0 0
M  V30 9 N 5.0521 1.1095 0.0 0
M  V30 10 C 4.2376 -1.3692 0.0 0
M  V30 11 C 0.8144 2.6676 0.0 0
M  V30 12 C 3.2106 3.1752 0.0 0
M  V30 13 C 3.4231 -3.848 0.0 0
M  V30 14 O 0.8734 -4.3792 0.0 0
M  V30 15 C -0.8616 -2.4316 0.0 0
M  V30 16 C 6.4685 0.6492 0.0 0
M  V30 17 C 5.6541 -1.8296 0.0 0
M  V30 18 C 0.9679 4.1786 0.0 0
M  V30 19 C 2.4434 4.4973 0.0 0
M  V30 20 N 6.7636 -0.8144 0.0 0
M  V30 21 N 7.5781 1.6643 0.0 0
M  V30 22 C 8.9946 1.204 0.0 0
M  V30 23 N 10.1042 2.2191 0.0 0
M  V30 24 C 9.2897 -0.2596 0.0 0
M  V30 25 C 11.5206 1.7587 0.0 0
M  V30 26 C 10.7062 -0.72 0.0 0
M  V30 27 C 11.8157 0.295 0.0 0
M  V30 28 N 13.2322 -0.1652 0.0 0
M  V30 29 C 13.5273 -1.6289 0.0 0
M  V30 30 C 14.3418 0.8498 0.0 0
M  V30 31 C 14.9438 -2.0893 0.0 0
M  V30 32 C 15.7583 0.3895 0.0 0
M  V30 33 N 16.0534 -1.0741 0.0 0
M  V30 END ATOM
M  V30 BEGIN BOND
M  V30 1 2 1 2
M  V30 2 1 2 3
M  V30 3 1 2 4
M  V30 4 1 3 5
M  V30 5 1 3 6
M  V30 6 2 4 7
M  V30 7 1 4 8
M  V30 8 2 5 9
M  V30 9 1 5 10
M  V30 10 1 6 11
M  V30 11 1 6 12
M  V30 12 1 7 13
M  V30 13 2 8 14
M  V30 14 1 8 15
M  V30 15 1 9 16
M  V30 16 2 10 17
M  V30 17 1 11 18
M  V30 18 1 12 19
M  V30 19 2 16 20
M  V30 20 1 16 21
M  V30 21 1 21 22
M  V30 22 2 22 23
M  V30 23 1 22 24
M  V30 24 1 23 25
M  V30 25 2 24 26
M  V30 26 2 25 27
M  V30 27 1 27 28
M  V30 28 1 28 29
M  V30 29 1 28 30
M  V30 30 1 29 31
M  V30 31 1 30 32
M  V30 32 1 31 33
M  V30 33 1 7 10
M  V30 34 1 17 20
M  V30 35 1 18 19
M  V30 36 1 26 27
M  V30 37 1 32 33
M  V30 END BOND
M  V30 END CTAB
M  END
>  <Compound ID>
32

>  <Name>
Palbociclib

>  <Uniprot>
O14874

>  <Target>
BCKDK

>  <Smiles>
CC(=O)C1=C(C)C2=CN=C(NC3=CC=C(N4CCNCC4)C=N3)N=C2N(C2CCCC2)C1=O

>  <Kd (nM)>


>  <Assay (Kd)>


>  <Ki (nM)>


>  <Assay (Ki)>


>  <IC50 (nM)>


>  <Assay (IC50)>


>  <EC50 (nM)>


>  <Assay (EC50)>


>  <Article DOI>
10.1016/j.cell.2020.10.038

>  <Molecular Weight>
447.543

>  <Exact Mass>
447.238273168

>  <XLogP3>
1.81

>  <Heavy Atom Count>
33

>  <Ring Count>
5

>  <Hydrogen Bond Acceptor Count>
9

>  <Hydrogen Bond Donor Count>
2

>  <Rotatable Bond Count>
5

>  <Topological Polar Surface Area>
105.04

>  <Molecular Formula>
C24H29N7O2

>  <InChI>
InChI=1S/C24H29N7O2/c1-15-19-14-27-24(28-20-8-7-18(13-26-20)30-11-9-25-10-12-30)29-22(19)31(17-5-3-4-6-17)23(33)21(15)16(2)32/h7-8,13-14,17,25H,3-6,9-12H2,1-2H3,(H,26,27,28,29)

>  <InChI Key>
AHJRHEGDXFFMBM-UHFFFAOYSA-N

>  <BindingDB>
6309

>  <PubChem>
5330286

>  <ChEMBL>
CHEMBL189963

$$$$
Compound 47
Actelion Java MolfileCreator 2.0

  0  0  0  0  0  0              0 V3000
M  V30 BEGIN CTAB
M  V30 COUNTS 33 37 0 0 0
M  V30 BEGIN ATOM
M  V30 1 O 0.0 0.0 0.0 0
M  V30 2 C 1.4164 -0.4603 0.0 0
M  V30 3 N 2.526 0.5547 0.0 0
M  V30 4 C 1.7115 -1.924 0.0 0
M  V30 5 C 3.9425 0.0944 0.0 0
M  V30 6 C 2.2073 2.042 0.0 0
M  V30 7 C 3.128 -2.3844 0.0 0
M  V30 8 C 0.5783 -2.9155 0.0 0
M  V30 9 N 5.0521 1.1095 0.0 0
M  V30 10 C 4.2376 -1.3692 0.0 0
M  V30 11 C 0.8144 2.6676 0.0 0
M  V30 12 C 3.2106 3.1752 0.0 0
M  V30 13 C 3.4231 -3.848 0.0 0
M  V30 14 O 0.8734 -4.3792 0.0 0
M  V30 15 C -0.8616 -2.4316 0.0 0
M  V30 16 C 6.4685 0.6492 0.0 0
M  V30 17 C 5.6541 -1.8296 0.0 0
M  V30 18 C 0.9679 4.1786 0.0 0
M  V30 19 C 2.4434 4.4973 0.0 0
M  V30 20 N 6.7636 -0.8144 0.0 0
M  V30 21 N 7.5781 1.6643 0.0 0
M  V30 22 C 8.9946 1.204 0.0 0
M  V30 23 N 10.1042 2.2191 0.0 0
M  V30 24 C 9.2897 -0.2596 0.0 0
M  V30 25 C 11.5206 1.7587 0.0 0
M  V30 26 C 10.7062 -0.72 0.0 0
M  V30 27 C 11.8157 0.295 0.0 0
M  V30 28 N 13.2322 -0.1652 0.0 0
M  V30 29 C 13.5273 -1.6289 0.0 0
M  V30 30 C 14.3418 0.8498 0.0 0
M  V30 31 C 14.9438 -2.0893 0.0 0
M  V30 32 C 15.7583 0.3895 0.0 0
M  V30 33 N 16.0534 -1.0741 0.0 0
M  V30 END ATOM
M  V30 BEGIN BOND
M  V30 1 2 1 2
M  V30 2 1 2 3
M  V30 3 1 2 4
M  V30 4 1 3 5
M  V30 5 1 3 6
M  V30 6 2 4 7
M  V30 7 1 4 8
M  V30 8 2 5 9
M  V30 9 1 5 10
M  V30 10 1 6 11
M  V30 11 1 6 12
M  V30 12 1 7 13
M  V30 13 2 8 14
M  V30 14 1 8 15
M  V30 15 1 9 16
M  V30 16 2 10 17
M  V30 17 1 11 18
M  V30 18 1 12 19
M  V30 19 2 16 20
M  V30 20 1 16 21
M  V30 21 1 21 22
M  V30 22 2 22 23
M  V30 23 1 22 24
M  V30 24 1 23 25
M  V30 25 2 24 26
M  V30 26 2 25 27
M  V30 27 1 27 28
M  V30 28 1 28 29
M  V30 29 1 28 30
M  V30 30 1 29 31
M  V30 31 1 30 32
M  V30 32 1 31 33
M  V30 33 1 7 10
M  V30 34 1 17 20
M  V30 35 1 18 19
M  V30 36 1 26 27
M  V30 37 1 32 33
M  V30 END BOND
M  V30 END CTAB
M  END
>  <Compound ID>
32

>  <Name>
Palbociclib

>  <Uniprot>
P11802

>  <Target>
CDK4

>  <Smiles>
CC(=O)C1=C(C)C2=CN=C(NC3=CC=C(N4CCNCC4)C=N3)N=C2N(C2CCCC2)C1=O

>  <Kd (nM)>


>  <Assay (Kd)>


>  <Ki (nM)>


>  <Assay (Ki)>


>  <IC50 (nM)>


>  <Assay (IC50)>


>  <EC50 (nM)>


>  <Assay (EC50)>


>  <Article DOI>
10.1016/j.cell.2020.10.038

>  <Molecular Weight>
447.543

>  <Exact Mass>
447.238273168

>  <XLogP3>
1.81

>  <Heavy Atom Count>
33

>  <Ring Count>
5

>  <Hydrogen Bond Acceptor Count>
9

>  <Hydrogen Bond Donor Count>
2

>  <Rotatable Bond Count>
5

>  <Topological Polar Surface Area>
105.04

>  <Molecular Formula>
C24H29N7O2

>  <InChI>
InChI=1S/C24H29N7O2/c1-15-19-14-27-24(28-20-8-7-18(13-26-20)30-11-9-25-10-12-30)29-22(19)31(17-5-3-4-6-17)23(33)21(15)16(2)32/h7-8,13-14,17,25H,3-6,9-12H2,1-2H3,(H,26,27,28,29)

>  <InChI Key>
AHJRHEGDXFFMBM-UHFFFAOYSA-N

>  <BindingDB>
6309

>  <PubChem>
5330286

>  <ChEMBL>
CHEMBL189963

$$$$
Compound 48
Actelion Java MolfileCreator 2.0

  0  0  0  0  0  0              0 V3000
M  V30 BEGIN CTAB
M  V30 COUNTS 33 37 0 0 0
M  V30 BEGIN ATOM
M  V30 1 O 0.0 0.0 0.0 0
M  V30 2 C 1.4164 -0.4603 0.0 0
M  V30 3 N 2.526 0.5547 0.0 0
M  V30 4 C 1.7115 -1.924 0.0 0
M  V30 5 C 3.9425 0.0944 0.0 0
M  V30 6 C 2.2073 2.042 0.0 0
M  V30 7 C 3.128 -2.3844 0.0 0
M  V30 8 C 0.5783 -2.9155 0.0 0
M  V30 9 N 5.0521 1.1095 0.0 0
M  V30 10 C 4.2376 -1.3692 0.0 0
M  V30 11 C 0.8144 2.6676 0.0 0
M  V30 12 C 3.2106 3.1752 0.0 0
M  V30 13 C 3.4231 -3.848 0.0 0
M  V30 14 O 0.8734 -4.3792 0.0 0
M  V30 15 C -0.8616 -2.4316 0.0 0
M  V30 16 C 6.4685 0.6492 0.0 0
M  V30 17 C 5.6541 -1.8296 0.0 0
M  V30 18 C 0.9679 4.1786 0.0 0
M  V30 19 C 2.4434 4.4973 0.0 0
M  V30 20 N 6.7636 -0.8144 0.0 0
M  V30 21 N 7.5781 1.6643 0.0 0
M  V30 22 C 8.9946 1.204 0.0 0
M  V30 23 N 10.1042 2.2191 0.0 0
M  V30 24 C 9.2897 -0.2596 0.0 0
M  V30 25 C 11.5206 1.7587 0.0 0
M  V30 26 C 10.7062 -0.72 0.0 0
M  V30 27 C 11.8157 0.295 0.0 0
M  V30 28 N 13.2322 -0.1652 0.0 0
M  V30 29 C 13.5273 -1.6289 0.0 0
M  V30 30 C 14.3418 0.8498 0.0 0
M  V30 31 C 14.9438 -2.0893 0.0 0
M  V30 32 C 15.7583 0.3895 0.0 0
M  V30 33 N 16.0534 -1.0741 0.0 0
M  V30 END ATOM
M  V30 BEGIN BOND
M  V30 1 2 1 2
M  V30 2 1 2 3
M  V30 3 1 2 4
M  V30 4 1 3 5
M  V30 5 1 3 6
M  V30 6 2 4 7
M  V30 7 1 4 8
M  V30 8 2 5 9
M  V30 9 1 5 10
M  V30 10 1 6 11
M  V30 11 1 6 12
M  V30 12 1 7 13
M  V30 13 2 8 14
M  V30 14 1 8 15
M  V30 15 1 9 16
M  V30 16 2 10 17
M  V30 17 1 11 18
M  V30 18 1 12 19
M  V30 19 2 16 20
M  V30 20 1 16 21
M  V30 21 1 21 22
M  V30 22 2 22 23
M  V30 23 1 22 24
M  V30 24 1 23 25
M  V30 25 2 24 26
M  V30 26 2 25 27
M  V30 27 1 27 28
M  V30 28 1 28 29
M  V30 29 1 28 30
M  V30 30 1 29 31
M  V30 31 1 30 32
M  V30 32 1 31 33
M  V30 33 1 7 10
M  V30 34 1 17 20
M  V30 35 1 18 19
M  V30 36 1 26 27
M  V30 37 1 32 33
M  V30 END BOND
M  V30 END CTAB
M  END
>  <Compound ID>
32

>  <Name>
Palbociclib

>  <Uniprot>
Q00534

>  <Target>
CDK6

>  <Smiles>
CC(=O)C1=C(C)C2=CN=C(NC3=CC=C(N4CCNCC4)C=N3)N=C2N(C2CCCC2)C1=O

>  <Kd (nM)>


>  <Assay (Kd)>


>  <Ki (nM)>


>  <Assay (Ki)>


>  <IC50 (nM)>
6.2/30.7

>  <Assay (IC50)>
IC50 of CDK6-cyclin D1/CDK6-cyclin D3

>  <EC50 (nM)>


>  <Assay (EC50)>


>  <Article DOI>
10.1016/j.chembiol.2018.11.006

>  <Molecular Weight>
447.543

>  <Exact Mass>
447.238273168

>  <XLogP3>
1.81

>  <Heavy Atom Count>
33

>  <Ring Count>
5

>  <Hydrogen Bond Acceptor Count>
9

>  <Hydrogen Bond Donor Count>
2

>  <Rotatable Bond Count>
5

>  <Topological Polar Surface Area>
105.04

>  <Molecular Formula>
C24H29N7O2

>  <InChI>
InChI=1S/C24H29N7O2/c1-15-19-14-27-24(28-20-8-7-18(13-26-20)30-11-9-25-10-12-30)29-22(19)31(17-5-3-4-6-17)23(33)21(15)16(2)32/h7-8,13-14,17,25H,3-6,9-12H2,1-2H3,(H,26,27,28,29)

>  <InChI Key>
AHJRHEGDXFFMBM-UHFFFAOYSA-N

>  <BindingDB>
6309

>  <PubChem>
5330286

>  <ChEMBL>
CHEMBL189963

$$$$
Compound 49
Actelion Java MolfileCreator 2.0

  0  0  0  0  0  0              0 V3000
M  V30 BEGIN CTAB
M  V30 COUNTS 33 37 0 0 0
M  V30 BEGIN ATOM
M  V30 1 O 0.0 0.0 0.0 0
M  V30 2 C 1.4164 -0.4603 0.0 0
M  V30 3 N 2.526 0.5547 0.0 0
M  V30 4 C 1.7115 -1.924 0.0 0
M  V30 5 C 3.9425 0.0944 0.0 0
M  V30 6 C 2.2073 2.042 0.0 0
M  V30 7 C 3.128 -2.3844 0.0 0
M  V30 8 C 0.5783 -2.9155 0.0 0
M  V30 9 N 5.0521 1.1095 0.0 0
M  V30 10 C 4.2376 -1.3692 0.0 0
M  V30 11 C 0.8144 2.6676 0.0 0
M  V30 12 C 3.2106 3.1752 0.0 0
M  V30 13 C 3.4231 -3.848 0.0 0
M  V30 14 O 0.8734 -4.3792 0.0 0
M  V30 15 C -0.8616 -2.4316 0.0 0
M  V30 16 C 6.4685 0.6492 0.0 0
M  V30 17 C 5.6541 -1.8296 0.0 0
M  V30 18 C 0.9679 4.1786 0.0 0
M  V30 19 C 2.4434 4.4973 0.0 0
M  V30 20 N 6.7636 -0.8144 0.0 0
M  V30 21 N 7.5781 1.6643 0.0 0
M  V30 22 C 8.9946 1.204 0.0 0
M  V30 23 N 10.1042 2.2191 0.0 0
M  V30 24 C 9.2897 -0.2596 0.0 0
M  V30 25 C 11.5206 1.7587 0.0 0
M  V30 26 C 10.7062 -0.72 0.0 0
M  V30 27 C 11.8157 0.295 0.0 0
M  V30 28 N 13.2322 -0.1652 0.0 0
M  V30 29 C 13.5273 -1.6289 0.0 0
M  V30 30 C 14.3418 0.8498 0.0 0
M  V30 31 C 14.9438 -2.0893 0.0 0
M  V30 32 C 15.7583 0.3895 0.0 0
M  V30 33 N 16.0534 -1.0741 0.0 0
M  V30 END ATOM
M  V30 BEGIN BOND
M  V30 1 2 1 2
M  V30 2 1 2 3
M  V30 3 1 2 4
M  V30 4 1 3 5
M  V30 5 1 3 6
M  V30 6 2 4 7
M  V30 7 1 4 8
M  V30 8 2 5 9
M  V30 9 1 5 10
M  V30 10 1 6 11
M  V30 11 1 6 12
M  V30 12 1 7 13
M  V30 13 2 8 14
M  V30 14 1 8 15
M  V30 15 1 9 16
M  V30 16 2 10 17
M  V30 17 1 11 18
M  V30 18 1 12 19
M  V30 19 2 16 20
M  V30 20 1 16 21
M  V30 21 1 21 22
M  V30 22 2 22 23
M  V30 23 1 22 24
M  V30 24 1 23 25
M  V30 25 2 24 26
M  V30 26 2 25 27
M  V30 27 1 27 28
M  V30 28 1 28 29
M  V30 29 1 28 30
M  V30 30 1 29 31
M  V30 31 1 30 32
M  V30 32 1 31 33
M  V30 33 1 7 10
M  V30 34 1 17 20
M  V30 35 1 18 19
M  V30 36 1 26 27
M  V30 37 1 32 33
M  V30 END BOND
M  V30 END CTAB
M  END
>  <Compound ID>
32

>  <Name>
Palbociclib

>  <Uniprot>
Q8NI60

>  <Target>
COQ8A

>  <Smiles>
CC(=O)C1=C(C)C2=CN=C(NC3=CC=C(N4CCNCC4)C=N3)N=C2N(C2CCCC2)C1=O

>  <Kd (nM)>


>  <Assay (Kd)>


>  <Ki (nM)>


>  <Assay (Ki)>


>  <IC50 (nM)>


>  <Assay (IC50)>


>  <EC50 (nM)>


>  <Assay (EC50)>


>  <Article DOI>
10.1016/j.cell.2020.10.038

>  <Molecular Weight>
447.543

>  <Exact Mass>
447.238273168

>  <XLogP3>
1.81

>  <Heavy Atom Count>
33

>  <Ring Count>
5

>  <Hydrogen Bond Acceptor Count>
9

>  <Hydrogen Bond Donor Count>
2

>  <Rotatable Bond Count>
5

>  <Topological Polar Surface Area>
105.04

>  <Molecular Formula>
C24H29N7O2

>  <InChI>
InChI=1S/C24H29N7O2/c1-15-19-14-27-24(28-20-8-7-18(13-26-20)30-11-9-25-10-12-30)29-22(19)31(17-5-3-4-6-17)23(33)21(15)16(2)32/h7-8,13-14,17,25H,3-6,9-12H2,1-2H3,(H,26,27,28,29)

>  <InChI Key>
AHJRHEGDXFFMBM-UHFFFAOYSA-N

>  <BindingDB>
6309

>  <PubChem>
5330286

>  <ChEMBL>
CHEMBL189963

$$$$
Compound 50
Actelion Java MolfileCreator 2.0

  0  0  0  0  0  0              0 V3000
M  V30 BEGIN CTAB
M  V30 COUNTS 33 37 0 0 0
M  V30 BEGIN ATOM
M  V30 1 O 0.0 0.0 0.0 0
M  V30 2 C 1.4164 -0.4603 0.0 0
M  V30 3 N 2.526 0.5547 0.0 0
M  V30 4 C 1.7115 -1.924 0.0 0
M  V30 5 C 3.9425 0.0944 0.0 0
M  V30 6 C 2.2073 2.042 0.0 0
M  V30 7 C 3.128 -2.3844 0.0 0
M  V30 8 C 0.5783 -2.9155 0.0 0
M  V30 9 N 5.0521 1.1095 0.0 0
M  V30 10 C 4.2376 -1.3692 0.0 0
M  V30 11 C 0.8144 2.6676 0.0 0
M  V30 12 C 3.2106 3.1752 0.0 0
M  V30 13 C 3.4231 -3.848 0.0 0
M  V30 14 O 0.8734 -4.3792 0.0 0
M  V30 15 C -0.8616 -2.4316 0.0 0
M  V30 16 C 6.4685 0.6492 0.0 0
M  V30 17 C 5.6541 -1.8296 0.0 0
M  V30 18 C 0.9679 4.1786 0.0 0
M  V30 19 C 2.4434 4.4973 0.0 0
M  V30 20 N 6.7636 -0.8144 0.0 0
M  V30 21 N 7.5781 1.6643 0.0 0
M  V30 22 C 8.9946 1.204 0.0 0
M  V30 23 N 10.1042 2.2191 0.0 0
M  V30 24 C 9.2897 -0.2596 0.0 0
M  V30 25 C 11.5206 1.7587 0.0 0
M  V30 26 C 10.7062 -0.72 0.0 0
M  V30 27 C 11.8157 0.295 0.0 0
M  V30 28 N 13.2322 -0.1652 0.0 0
M  V30 29 C 13.5273 -1.6289 0.0 0
M  V30 30 C 14.3418 0.8498 0.0 0
M  V30 31 C 14.9438 -2.0893 0.0 0
M  V30 32 C 15.7583 0.3895 0.0 0
M  V30 33 N 16.0534 -1.0741 0.0 0
M  V30 END ATOM
M  V30 BEGIN BOND
M  V30 1 2 1 2
M  V30 2 1 2 3
M  V30 3 1 2 4
M  V30 4 1 3 5
M  V30 5 1 3 6
M  V30 6 2 4 7
M  V30 7 1 4 8
M  V30 8 2 5 9
M  V30 9 1 5 10
M  V30 10 1 6 11
M  V30 11 1 6 12
M  V30 12 1 7 13
M  V30 13 2 8 14
M  V30 14 1 8 15
M  V30 15 1 9 16
M  V30 16 2 10 17
M  V30 17 1 11 18
M  V30 18 1 12 19
M  V30 19 2 16 20
M  V30 20 1 16 21
M  V30 21 1 21 22
M  V30 22 2 22 23
M  V30 23 1 22 24
M  V30 24 1 23 25
M  V30 25 2 24 26
M  V30 26 2 25 27
M  V30 27 1 27 28
M  V30 28 1 28 29
M  V30 29 1 28 30
M  V30 30 1 29 31
M  V30 31 1 30 32
M  V30 32 1 31 33
M  V30 33 1 7 10
M  V30 34 1 17 20
M  V30 35 1 18 19
M  V30 36 1 26 27
M  V30 37 1 32 33
M  V30 END BOND
M  V30 END CTAB
M  END
>  <Compound ID>
32

>  <Name>
Palbociclib

>  <Uniprot>
Q15118

>  <Target>
PDK1

>  <Smiles>
CC(=O)C1=C(C)C2=CN=C(NC3=CC=C(N4CCNCC4)C=N3)N=C2N(C2CCCC2)C1=O

>  <Kd (nM)>


>  <Assay (Kd)>


>  <Ki (nM)>


>  <Assay (Ki)>


>  <IC50 (nM)>


>  <Assay (IC50)>


>  <EC50 (nM)>


>  <Assay (EC50)>


>  <Article DOI>
10.1016/j.cell.2020.10.038

>  <Molecular Weight>
447.543

>  <Exact Mass>
447.238273168

>  <XLogP3>
1.81

>  <Heavy Atom Count>
33

>  <Ring Count>
5

>  <Hydrogen Bond Acceptor Count>
9

>  <Hydrogen Bond Donor Count>
2

>  <Rotatable Bond Count>
5

>  <Topological Polar Surface Area>
105.04

>  <Molecular Formula>
C24H29N7O2

>  <InChI>
InChI=1S/C24H29N7O2/c1-15-19-14-27-24(28-20-8-7-18(13-26-20)30-11-9-25-10-12-30)29-22(19)31(17-5-3-4-6-17)23(33)21(15)16(2)32/h7-8,13-14,17,25H,3-6,9-12H2,1-2H3,(H,26,27,28,29)

>  <InChI Key>
AHJRHEGDXFFMBM-UHFFFAOYSA-N

>  <BindingDB>
6309

>  <PubChem>
5330286

>  <ChEMBL>
CHEMBL189963

$$$$
Compound 51
Actelion Java MolfileCreator 2.0

  0  0  0  0  0  0              0 V3000
M  V30 BEGIN CTAB
M  V30 COUNTS 33 37 0 0 0
M  V30 BEGIN ATOM
M  V30 1 O 0.0 0.0 0.0 0
M  V30 2 C 1.4164 -0.4603 0.0 0
M  V30 3 N 2.526 0.5547 0.0 0
M  V30 4 C 1.7115 -1.924 0.0 0
M  V30 5 C 3.9425 0.0944 0.0 0
M  V30 6 C 2.2073 2.042 0.0 0
M  V30 7 C 3.128 -2.3844 0.0 0
M  V30 8 C 0.5783 -2.9155 0.0 0
M  V30 9 N 5.0521 1.1095 0.0 0
M  V30 10 C 4.2376 -1.3692 0.0 0
M  V30 11 C 0.8144 2.6676 0.0 0
M  V30 12 C 3.2106 3.1752 0.0 0
M  V30 13 C 3.4231 -3.848 0.0 0
M  V30 14 O 0.8734 -4.3792 0.0 0
M  V30 15 C -0.8616 -2.4316 0.0 0
M  V30 16 C 6.4685 0.6492 0.0 0
M  V30 17 C 5.6541 -1.8296 0.0 0
M  V30 18 C 0.9679 4.1786 0.0 0
M  V30 19 C 2.4434 4.4973 0.0 0
M  V30 20 N 6.7636 -0.8144 0.0 0
M  V30 21 N 7.5781 1.6643 0.0 0
M  V30 22 C 8.9946 1.204 0.0 0
M  V30 23 N 10.1042 2.2191 0.0 0
M  V30 24 C 9.2897 -0.2596 0.0 0
M  V30 25 C 11.5206 1.7587 0.0 0
M  V30 26 C 10.7062 -0.72 0.0 0
M  V30 27 C 11.8157 0.295 0.0 0
M  V30 28 N 13.2322 -0.1652 0.0 0
M  V30 29 C 13.5273 -1.6289 0.0 0
M  V30 30 C 14.3418 0.8498 0.0 0
M  V30 31 C 14.9438 -2.0893 0.0 0
M  V30 32 C 15.7583 0.3895 0.0 0
M  V30 33 N 16.0534 -1.0741 0.0 0
M  V30 END ATOM
M  V30 BEGIN BOND
M  V30 1 2 1 2
M  V30 2 1 2 3
M  V30 3 1 2 4
M  V30 4 1 3 5
M  V30 5 1 3 6
M  V30 6 2 4 7
M  V30 7 1 4 8
M  V30 8 2 5 9
M  V30 9 1 5 10
M  V30 10 1 6 11
M  V30 11 1 6 12
M  V30 12 1 7 13
M  V30 13 2 8 14
M  V30 14 1 8 15
M  V30 15 1 9 16
M  V30 16 2 10 17
M  V30 17 1 11 18
M  V30 18 1 12 19
M  V30 19 2 16 20
M  V30 20 1 16 21
M  V30 21 1 21 22
M  V30 22 2 22 23
M  V30 23 1 22 24
M  V30 24 1 23 25
M  V30 25 2 24 26
M  V30 26 2 25 27
M  V30 27 1 27 28
M  V30 28 1 28 29
M  V30 29 1 28 30
M  V30 30 1 29 31
M  V30 31 1 30 32
M  V30 32 1 31 33
M  V30 33 1 7 10
M  V30 34 1 17 20
M  V30 35 1 18 19
M  V30 36 1 26 27
M  V30 37 1 32 33
M  V30 END BOND
M  V30 END CTAB
M  END
>  <Compound ID>
32

>  <Name>
Palbociclib

>  <Uniprot>
Q15119

>  <Target>
PDK2

>  <Smiles>
CC(=O)C1=C(C)C2=CN=C(NC3=CC=C(N4CCNCC4)C=N3)N=C2N(C2CCCC2)C1=O

>  <Kd (nM)>


>  <Assay (Kd)>


>  <Ki (nM)>


>  <Assay (Ki)>


>  <IC50 (nM)>


>  <Assay (IC50)>


>  <EC50 (nM)>


>  <Assay (EC50)>


>  <Article DOI>
10.1016/j.cell.2020.10.038

>  <Molecular Weight>
447.543

>  <Exact Mass>
447.238273168

>  <XLogP3>
1.81

>  <Heavy Atom Count>
33

>  <Ring Count>
5

>  <Hydrogen Bond Acceptor Count>
9

>  <Hydrogen Bond Donor Count>
2

>  <Rotatable Bond Count>
5

>  <Topological Polar Surface Area>
105.04

>  <Molecular Formula>
C24H29N7O2

>  <InChI>
InChI=1S/C24H29N7O2/c1-15-19-14-27-24(28-20-8-7-18(13-26-20)30-11-9-25-10-12-30)29-22(19)31(17-5-3-4-6-17)23(33)21(15)16(2)32/h7-8,13-14,17,25H,3-6,9-12H2,1-2H3,(H,26,27,28,29)

>  <InChI Key>
AHJRHEGDXFFMBM-UHFFFAOYSA-N

>  <BindingDB>
6309

>  <PubChem>
5330286

>  <ChEMBL>
CHEMBL189963

$$$$
Compound 52
Actelion Java MolfileCreator 2.0

  0  0  0  0  0  0              0 V3000
M  V30 BEGIN CTAB
M  V30 COUNTS 33 37 0 0 0
M  V30 BEGIN ATOM
M  V30 1 O 0.0 0.0 0.0 0
M  V30 2 C 1.4164 -0.4603 0.0 0
M  V30 3 N 2.526 0.5547 0.0 0
M  V30 4 C 1.7115 -1.924 0.0 0
M  V30 5 C 3.9425 0.0944 0.0 0
M  V30 6 C 2.2073 2.042 0.0 0
M  V30 7 C 3.128 -2.3844 0.0 0
M  V30 8 C 0.5783 -2.9155 0.0 0
M  V30 9 N 5.0521 1.1095 0.0 0
M  V30 10 C 4.2376 -1.3692 0.0 0
M  V30 11 C 0.8144 2.6676 0.0 0
M  V30 12 C 3.2106 3.1752 0.0 0
M  V30 13 C 3.4231 -3.848 0.0 0
M  V30 14 O 0.8734 -4.3792 0.0 0
M  V30 15 C -0.8616 -2.4316 0.0 0
M  V30 16 C 6.4685 0.6492 0.0 0
M  V30 17 C 5.6541 -1.8296 0.0 0
M  V30 18 C 0.9679 4.1786 0.0 0
M  V30 19 C 2.4434 4.4973 0.0 0
M  V30 20 N 6.7636 -0.8144 0.0 0
M  V30 21 N 7.5781 1.6643 0.0 0
M  V30 22 C 8.9946 1.204 0.0 0
M  V30 23 N 10.1042 2.2191 0.0 0
M  V30 24 C 9.2897 -0.2596 0.0 0
M  V30 25 C 11.5206 1.7587 0.0 0
M  V30 26 C 10.7062 -0.72 0.0 0
M  V30 27 C 11.8157 0.295 0.0 0
M  V30 28 N 13.2322 -0.1652 0.0 0
M  V30 29 C 13.5273 -1.6289 0.0 0
M  V30 30 C 14.3418 0.8498 0.0 0
M  V30 31 C 14.9438 -2.0893 0.0 0
M  V30 32 C 15.7583 0.3895 0.0 0
M  V30 33 N 16.0534 -1.0741 0.0 0
M  V30 END ATOM
M  V30 BEGIN BOND
M  V30 1 2 1 2
M  V30 2 1 2 3
M  V30 3 1 2 4
M  V30 4 1 3 5
M  V30 5 1 3 6
M  V30 6 2 4 7
M  V30 7 1 4 8
M  V30 8 2 5 9
M  V30 9 1 5 10
M  V30 10 1 6 11
M  V30 11 1 6 12
M  V30 12 1 7 13
M  V30 13 2 8 14
M  V30 14 1 8 15
M  V30 15 1 9 16
M  V30 16 2 10 17
M  V30 17 1 11 18
M  V30 18 1 12 19
M  V30 19 2 16 20
M  V30 20 1 16 21
M  V30 21 1 21 22
M  V30 22 2 22 23
M  V30 23 1 22 24
M  V30 24 1 23 25
M  V30 25 2 24 26
M  V30 26 2 25 27
M  V30 27 1 27 28
M  V30 28 1 28 29
M  V30 29 1 28 30
M  V30 30 1 29 31
M  V30 31 1 30 32
M  V30 32 1 31 33
M  V30 33 1 7 10
M  V30 34 1 17 20
M  V30 35 1 18 19
M  V30 36 1 26 27
M  V30 37 1 32 33
M  V30 END BOND
M  V30 END CTAB
M  END
>  <Compound ID>
32

>  <Name>
Palbociclib

>  <Uniprot>
Q15120

>  <Target>
PDK3

>  <Smiles>
CC(=O)C1=C(C)C2=CN=C(NC3=CC=C(N4CCNCC4)C=N3)N=C2N(C2CCCC2)C1=O

>  <Kd (nM)>


>  <Assay (Kd)>


>  <Ki (nM)>


>  <Assay (Ki)>


>  <IC50 (nM)>


>  <Assay (IC50)>


>  <EC50 (nM)>


>  <Assay (EC50)>


>  <Article DOI>
10.1016/j.cell.2020.10.038

>  <Molecular Weight>
447.543

>  <Exact Mass>
447.238273168

>  <XLogP3>
1.81

>  <Heavy Atom Count>
33

>  <Ring Count>
5

>  <Hydrogen Bond Acceptor Count>
9

>  <Hydrogen Bond Donor Count>
2

>  <Rotatable Bond Count>
5

>  <Topological Polar Surface Area>
105.04

>  <Molecular Formula>
C24H29N7O2

>  <InChI>
InChI=1S/C24H29N7O2/c1-15-19-14-27-24(28-20-8-7-18(13-26-20)30-11-9-25-10-12-30)29-22(19)31(17-5-3-4-6-17)23(33)21(15)16(2)32/h7-8,13-14,17,25H,3-6,9-12H2,1-2H3,(H,26,27,28,29)

>  <InChI Key>
AHJRHEGDXFFMBM-UHFFFAOYSA-N

>  <BindingDB>
6309

>  <PubChem>
5330286

>  <ChEMBL>
CHEMBL189963

$$$$
Compound 53
Actelion Java MolfileCreator 2.0

  0  0  0  0  0  0              0 V3000
M  V30 BEGIN CTAB
M  V30 COUNTS 33 37 0 0 0
M  V30 BEGIN ATOM
M  V30 1 O 0.0 0.0 0.0 0
M  V30 2 C 1.4164 -0.4603 0.0 0
M  V30 3 N 2.526 0.5547 0.0 0
M  V30 4 C 1.7115 -1.924 0.0 0
M  V30 5 C 3.9425 0.0944 0.0 0
M  V30 6 C 2.2073 2.042 0.0 0
M  V30 7 C 3.128 -2.3844 0.0 0
M  V30 8 C 0.5783 -2.9155 0.0 0
M  V30 9 N 5.0521 1.1095 0.0 0
M  V30 10 C 4.2376 -1.3692 0.0 0
M  V30 11 C 0.8144 2.6676 0.0 0
M  V30 12 C 3.2106 3.1752 0.0 0
M  V30 13 C 3.4231 -3.848 0.0 0
M  V30 14 O 0.8734 -4.3792 0.0 0
M  V30 15 C -0.8616 -2.4316 0.0 0
M  V30 16 C 6.4685 0.6492 0.0 0
M  V30 17 C 5.6541 -1.8296 0.0 0
M  V30 18 C 0.9679 4.1786 0.0 0
M  V30 19 C 2.4434 4.4973 0.0 0
M  V30 20 N 6.7636 -0.8144 0.0 0
M  V30 21 N 7.5781 1.6643 0.0 0
M  V30 22 C 8.9946 1.204 0.0 0
M  V30 23 N 10.1042 2.2191 0.0 0
M  V30 24 C 9.2897 -0.2596 0.0 0
M  V30 25 C 11.5206 1.7587 0.0 0
M  V30 26 C 10.7062 -0.72 0.0 0
M  V30 27 C 11.8157 0.295 0.0 0
M  V30 28 N 13.2322 -0.1652 0.0 0
M  V30 29 C 13.5273 -1.6289 0.0 0
M  V30 30 C 14.3418 0.8498 0.0 0
M  V30 31 C 14.9438 -2.0893 0.0 0
M  V30 32 C 15.7583 0.3895 0.0 0
M  V30 33 N 16.0534 -1.0741 0.0 0
M  V30 END ATOM
M  V30 BEGIN BOND
M  V30 1 2 1 2
M  V30 2 1 2 3
M  V30 3 1 2 4
M  V30 4 1 3 5
M  V30 5 1 3 6
M  V30 6 2 4 7
M  V30 7 1 4 8
M  V30 8 2 5 9
M  V30 9 1 5 10
M  V30 10 1 6 11
M  V30 11 1 6 12
M  V30 12 1 7 13
M  V30 13 2 8 14
M  V30 14 1 8 15
M  V30 15 1 9 16
M  V30 16 2 10 17
M  V30 17 1 11 18
M  V30 18 1 12 19
M  V30 19 2 16 20
M  V30 20 1 16 21
M  V30 21 1 21 22
M  V30 22 2 22 23
M  V30 23 1 22 24
M  V30 24 1 23 25
M  V30 25 2 24 26
M  V30 26 2 25 27
M  V30 27 1 27 28
M  V30 28 1 28 29
M  V30 29 1 28 30
M  V30 30 1 29 31
M  V30 31 1 30 32
M  V30 32 1 31 33
M  V30 33 1 7 10
M  V30 34 1 17 20
M  V30 35 1 18 19
M  V30 36 1 26 27
M  V30 37 1 32 33
M  V30 END BOND
M  V30 END CTAB
M  END
>  <Compound ID>
32

>  <Name>
Palbociclib

>  <Uniprot>
P30291

>  <Target>
Wee1

>  <Smiles>
CC(=O)C1=C(C)C2=CN=C(NC3=CC=C(N4CCNCC4)C=N3)N=C2N(C2CCCC2)C1=O

>  <Kd (nM)>
>30000

>  <Assay (Kd)>
Kd apparent of Wee1

>  <Ki (nM)>


>  <Assay (Ki)>


>  <IC50 (nM)>


>  <Assay (IC50)>


>  <EC50 (nM)>


>  <Assay (EC50)>


>  <Article DOI>
10.1126/science.aan4368

>  <Molecular Weight>
447.543

>  <Exact Mass>
447.238273168

>  <XLogP3>
1.81

>  <Heavy Atom Count>
33

>  <Ring Count>
5

>  <Hydrogen Bond Acceptor Count>
9

>  <Hydrogen Bond Donor Count>
2

>  <Rotatable Bond Count>
5

>  <Topological Polar Surface Area>
105.04

>  <Molecular Formula>
C24H29N7O2

>  <InChI>
InChI=1S/C24H29N7O2/c1-15-19-14-27-24(28-20-8-7-18(13-26-20)30-11-9-25-10-12-30)29-22(19)31(17-5-3-4-6-17)23(33)21(15)16(2)32/h7-8,13-14,17,25H,3-6,9-12H2,1-2H3,(H,26,27,28,29)

>  <InChI Key>
AHJRHEGDXFFMBM-UHFFFAOYSA-N

>  <BindingDB>
6309

>  <PubChem>
5330286

>  <ChEMBL>
CHEMBL189963

$$$$
Compound 54
Actelion Java MolfileCreator 2.0

  0  0  0  0  0  0              0 V3000
M  V30 BEGIN CTAB
M  V30 COUNTS 31 33 0 0 0
M  V30 BEGIN ATOM
M  V30 1 F 0.0 0.0 0.0 0
M  V30 2 C -1.2537 -0.8085 0.0 0
M  V30 3 C -2.6012 -0.1288 0.0 0
M  V30 4 C -1.1717 -2.2848 0.0 0
M  V30 5 N -3.855 -0.9373 0.0 0
M  V30 6 N -2.7067 1.3709 0.0 0
M  V30 7 N -2.4255 -3.0933 0.0 0
M  V30 8 C -3.773 -2.4137 0.0 0
M  V30 9 C -4.0542 2.0505 0.0 0
M  V30 10 N -5.0267 -3.2222 0.0 0
M  V30 11 C -5.3079 1.242 0.0 0
M  V30 12 C -4.1596 3.5503 0.0 0
M  V30 13 C -6.3742 -2.5426 0.0 0
M  V30 14 C -6.6554 1.9216 0.0 0
M  V30 15 C -5.5071 4.2299 0.0 0
M  V30 16 C -6.4797 -1.0428 0.0 0
M  V30 17 C -7.628 -3.3511 0.0 0
M  V30 18 N -7.9092 1.1131 0.0 0
M  V30 19 C -6.7609 3.4214 0.0 0
M  V30 20 C -7.8272 -0.3632 0.0 0
M  V30 21 C -8.9755 -2.6715 0.0 0
M  V30 22 C -9.2567 1.7927 0.0 0
M  V30 23 C -9.0809 -1.1717 0.0 0
M  V30 24 O -9.3622 3.2925 0.0 0
M  V30 25 C -10.5105 0.9842 0.0 0
M  V30 26 O -10.4284 -0.4921 0.0 0
M  V30 27 C -11.858 1.6638 0.0 0
M  V30 28 C -11.6822 -1.3006 0.0 0
M  V30 29 C -13.0297 -0.621 0.0 0
M  V30 30 O -14.2835 -1.4295 0.0 0
M  V30 31 C -15.631 -0.7499 0.0 0
M  V30 END ATOM
M  V30 BEGIN BOND
M  V30 1 1 1 2
M  V30 2 2 2 3
M  V30 3 1 2 4
M  V30 4 1 3 5
M  V30 5 1 3 6
M  V30 6 2 4 7
M  V30 7 2 5 8
M  V30 8 1 6 9
M  V30 9 1 8 10
M  V30 10 2 9 11
M  V30 11 1 9 12
M  V30 12 1 10 13
M  V30 13 1 11 14
M  V30 14 2 12 15
M  V30 15 2 13 16
M  V30 16 1 13 17
M  V30 17 1 14 18
M  V30 18 2 14 19
M  V30 19 1 16 20
M  V30 20 2 17 21
M  V30 21 1 18 22
M  V30 22 2 20 23
M  V30 23 2 22 24
M  V30 24 1 22 25
M  V30 25 1 23 26
M  V30 26 2 25 27
M  V30 27 1 26 28
M  V30 28 1 28 29
M  V30 29 1 29 30
M  V30 30 1 30 31
M  V30 31 1 7 8
M  V30 32 1 15 19
M  V30 33 1 21 23
M  V30 END BOND
M  V30 END CTAB
M  END
>  <Compound ID>
33

>  <Name>
Spebrutinib

>  <Uniprot>
Q06187

>  <Target>
BTK

>  <Smiles>
C=CC(=O)NC1=CC=CC(NC2=NC(NC3=CC=C(OCCOC)C=C3)=NC=C2F)=C1

>  <Kd (nM)>


>  <Assay (Kd)>


>  <Ki (nM)>


>  <Assay (Ki)>


>  <IC50 (nM)>
0.72

>  <Assay (IC50)>
IC50 of BTK was assessed by ADP-Glo luminescence assay

>  <EC50 (nM)>


>  <Assay (EC50)>


>  <Article DOI>
10.1016/j.ejmech.2016.11.047

>  <Molecular Weight>
423.448

>  <Exact Mass>
423.170667784

>  <XLogP3>
3.64

>  <Heavy Atom Count>
31

>  <Ring Count>
3

>  <Hydrogen Bond Acceptor Count>
7

>  <Hydrogen Bond Donor Count>
3

>  <Rotatable Bond Count>
10

>  <Topological Polar Surface Area>
97.4

>  <Molecular Formula>
C22H22FN5O3

>  <InChI>
InChI=1S/C22H22FN5O3/c1-3-20(29)25-16-5-4-6-17(13-16)26-21-19(23)14-24-22(28-21)27-15-7-9-18(10-8-15)31-12-11-30-2/h3-10,13-14H,1,11-12H2,2H3,(H,25,29)(H2,24,26,27,28)

>  <InChI Key>
KXBDTLQSDKGAEB-UHFFFAOYSA-N

>  <BindingDB>
50161162

>  <PubChem>
59174488

>  <ChEMBL>
CHEMBL3301625

$$$$
Compound 55
Actelion Java MolfileCreator 2.0

  0  0  0  0  0  0              0 V3000
M  V30 BEGIN CTAB
M  V30 COUNTS 38 42 0 0 0
M  V30 BEGIN ATOM
M  V30 1 Cl 0.0 0.0 0.0 0
M  V30 2 C -0.8956 -1.2103 0.0 0
M  V30 3 C -0.2904 -2.5659 0.0 0
M  V30 4 C -2.3964 -1.0409 0.0 0
M  V30 5 N -1.7792 -2.8443 0.0 0
M  V30 6 N 1.1498 -2.929 0.0 0
M  V30 7 N -3.2921 -2.2512 0.0 0
M  V30 8 C -2.9895 -3.7399 0.0 0
M  V30 9 C 2.2875 -3.8852 0.0 0
M  V30 10 N -3.6915 -5.0592 0.0 0
M  V30 11 C 2.8927 -5.2408 0.0 0
M  V30 12 C 3.8126 -3.8973 0.0 0
M  V30 13 C -3.752 -6.548 0.0 0 CFG=1
M  V30 14 C -4.9866 -4.2604 0.0 0
M  V30 15 C 2.8322 -6.7295 0.0 0
M  V30 16 C 4.7929 -5.0108 0.0 0
M  V30 17 C -3.1469 -7.9036 0.0 0
M  V30 18 C -5.0834 -7.25 0.0 0
M  V30 19 C -6.318 -4.9624 0.0 0
M  V30 20 O 2.1302 -8.0488 0.0 0
M  V30 21 C 4.2967 -6.4269 0.0 0
M  V30 22 C 6.2575 -4.7082 0.0 0
M  V30 23 O -2.0091 -8.8597 0.0 0
M  V30 24 N -6.3785 -6.4511 0.0 0
M  V30 25 C 0.9198 -8.9445 0.0 0
M  V30 26 N 5.2771 -7.5404 0.0 0
M  V30 27 C 7.2379 -5.8217 0.0 0
M  V30 28 C -0.5688 -9.2228 0.0 0
M  V30 29 C -7.7099 -7.1531 0.0 0
M  V30 30 C 6.7416 -7.2379 0.0 0
M  V30 31 C 4.7808 -8.9566 0.0 0
M  V30 32 O -7.7704 -8.6419 0.0 0
M  V30 33 C -9.005 -6.3543 0.0 0
M  V30 34 O 7.722 -8.3514 0.0 0
M  V30 35 C -10.3364 -7.0563 0.0 0
M  V30 36 C -11.6314 -6.2575 0.0 0
M  V30 37 C -12.9628 -6.9595 0.0 0
M  V30 38 C -11.5951 -4.7445 0.0 0
M  V30 END ATOM
M  V30 BEGIN BOND
M  V30 1 1 1 2
M  V30 2 2 2 3
M  V30 3 1 2 4
M  V30 4 1 3 5
M  V30 5 1 3 6
M  V30 6 2 4 7
M  V30 7 2 5 8
M  V30 8 1 6 9
M  V30 9 1 8 10
M  V30 10 2 9 11
M  V30 11 1 9 12
M  V30 12 1 13 10 CFG=1
M  V30 13 1 10 14
M  V30 14 1 11 15
M  V30 15 2 12 16
M  V30 16 1 13 17
M  V30 17 1 13 18
M  V30 18 1 14 19
M  V30 19 1 15 20
M  V30 20 2 15 21
M  V30 21 1 16 22
M  V30 22 1 17 23
M  V30 23 1 18 24
M  V30 24 1 20 25
M  V30 25 1 21 26
M  V30 26 1 22 27
M  V30 27 1 23 28
M  V30 28 1 24 29
M  V30 29 1 26 30
M  V30 30 1 26 31
M  V30 31 2 29 32
M  V30 32 1 29 33
M  V30 33 2 30 34
M  V30 34 1 33 35
M  V30 35 1 35 36
M  V30 36 1 36 37
M  V30 37 1 36 38
M  V30 38 1 7 8
M  V30 39 1 16 21
M  V30 40 1 19 24
M  V30 41 1 25 28
M  V30 42 1 27 30
M  V30 END BOND
M  V30 BEGIN COLLECTION
M  V30 MDLV30/STEABS ATOMS=(1 13)
M  V30 END COLLECTION
M  V30 END CTAB
M  END
>  <Compound ID>
34

>  <Name>


>  <Uniprot>
P41182

>  <Target>
BCL6

>  <Smiles>
CC(C)CCC(=O)N1CCN2C3=NC=C(Cl)C(=N3)NC3=CC4=C(C(=C3)OCCOC[C@H]2C1)N(C)C(=O)CC4

>  <Kd (nM)>


>  <Assay (Kd)>


>  <Ki (nM)>


>  <Assay (Ki)>


>  <IC50 (nM)>
63

>  <Assay (IC50)>
IC50 of BCL6 was assessed by a time resolved fluorescence resonance energy transfer assay

>  <EC50 (nM)>


>  <Assay (EC50)>


>  <Article DOI>
10.1021/acschembio.8b00698

>  <Molecular Weight>
543.068

>  <Exact Mass>
542.24083128

>  <XLogP3>
3.05

>  <Heavy Atom Count>
38

>  <Ring Count>
5

>  <Hydrogen Bond Acceptor Count>
8

>  <Hydrogen Bond Donor Count>
1

>  <Rotatable Bond Count>
3

>  <Topological Polar Surface Area>
100.13

>  <Molecular Formula>
C27H35ClN6O4

>  <InChI>
InChI=1S/C27H35ClN6O4/c1-17(2)4-6-24(36)33-8-9-34-20(15-33)16-37-10-11-38-22-13-19(30-26-21(28)14-29-27(34)31-26)12-18-5-7-23(35)32(3)25(18)22/h12-14,17,20H,4-11,15-16H2,1-3H3,(H,29,30,31)/t20-/m1/s1

>  <InChI Key>
GPOLUVUMJCGZBW-HXUWFJFHSA-N

>  <BindingDB>


>  <PubChem>


>  <ChEMBL>


$$$$
Compound 56
Actelion Java MolfileCreator 2.0

  0  0  0  0  0  0              0 V3000
M  V30 BEGIN CTAB
M  V30 COUNTS 35 37 0 0 0
M  V30 BEGIN ATOM
M  V30 1 S 0.0 0.0 0.0 0
M  V30 2 O 0.1175 -1.4807 0.0 0
M  V30 3 O -0.141 1.5042 0.0 0
M  V30 4 N 1.4807 0.141 0.0 0
M  V30 5 C -1.5042 -0.1175 0.0 0
M  V30 6 C 2.3269 -1.0811 0.0 0
M  V30 7 C 2.1036 1.5042 0.0 0
M  V30 8 N 3.8076 -0.9401 0.0 0
M  V30 9 C 1.6805 -2.4209 0.0 0
M  V30 10 C 4.6538 -2.1623 0.0 0
M  V30 11 N 2.5266 -3.6431 0.0 0
M  V30 12 C 0.1762 -2.5384 0.0 0
M  V30 13 C 4.0074 -3.5021 0.0 0
M  V30 14 N -0.47 -3.8781 0.0 0
M  V30 15 C -1.9743 -3.9956 0.0 0
M  V30 16 N -2.8439 -2.7499 0.0 0
M  V30 17 C -2.6207 -5.3354 0.0 0
M  V30 18 C -4.3482 -2.8674 0.0 0
M  V30 19 C -4.1249 -5.4529 0.0 0
M  V30 20 C -1.7745 -6.5576 0.0 0
M  V30 21 N -4.9946 -4.2072 0.0 0
M  V30 22 N -5.2179 -1.6217 0.0 0
M  V30 23 F -0.9284 -7.7798 0.0 0
M  V30 24 F -3.0202 -7.4037 0.0 0
M  V30 25 F -0.5523 -5.6879 0.0 0
M  V30 26 C -6.7221 -1.7393 0.0 0
M  V30 27 C -7.5918 -0.4935 0.0 0
M  V30 28 C -7.3685 -3.079 0.0 0
M  V30 29 C -9.096 -0.6111 0.0 0
M  V30 30 C -8.8727 -3.1965 0.0 0
M  V30 31 C -9.7424 -1.9508 0.0 0
M  V30 32 C -11.2467 -2.0683 0.0 0
M  V30 33 O -11.893 -3.408 0.0 0
M  V30 34 N -12.1163 -0.8226 0.0 0
M  V30 35 C -13.6206 -0.9401 0.0 0
M  V30 END ATOM
M  V30 BEGIN BOND
M  V30 1 2 1 2
M  V30 2 2 1 3
M  V30 3 1 1 4
M  V30 4 1 1 5
M  V30 5 1 4 6
M  V30 6 1 4 7
M  V30 7 2 6 8
M  V30 8 1 6 9
M  V30 9 1 8 10
M  V30 10 2 9 11
M  V30 11 1 9 12
M  V30 12 2 10 13
M  V30 13 1 12 14
M  V30 14 1 14 15
M  V30 15 2 15 16
M  V30 16 1 15 17
M  V30 17 1 16 18
M  V30 18 2 17 19
M  V30 19 1 17 20
M  V30 20 2 18 21
M  V30 21 1 18 22
M  V30 22 1 20 23
M  V30 23 1 20 24
M  V30 24 1 20 25
M  V30 25 1 22 26
M  V30 26 2 26 27
M  V30 27 1 26 28
M  V30 28 1 27 29
M  V30 29 2 28 30
M  V30 30 2 29 31
M  V30 31 1 31 32
M  V30 32 2 32 33
M  V30 33 1 32 34
M  V30 34 1 34 35
M  V30 35 1 11 13
M  V30 36 1 19 21
M  V30 37 1 30 31
M  V30 END BOND
M  V30 END CTAB
M  END
>  <Compound ID>
35

>  <Name>
Defactinib

>  <Uniprot>
Q05397

>  <Target>
FAK

>  <Smiles>
CNC(=O)C1=CC=C(NC2=NC=C(C(F)(F)F)C(NCC3=NC=CN=C3N(C)S(C)(=O)=O)=N2)C=C1

>  <Kd (nM)>


>  <Assay (Kd)>


>  <Ki (nM)>


>  <Assay (Ki)>


>  <IC50 (nM)>
3.9

>  <Assay (IC50)>
Inhibition of FAK

>  <EC50 (nM)>


>  <Assay (EC50)>


>  <Article DOI>
10.1021/jacs.8b08008

>  <Molecular Weight>
510.502

>  <Exact Mass>
510.140942192

>  <XLogP3>
1.43

>  <Heavy Atom Count>
35

>  <Ring Count>
3

>  <Hydrogen Bond Acceptor Count>
9

>  <Hydrogen Bond Donor Count>
3

>  <Rotatable Bond Count>
8

>  <Topological Polar Surface Area>
142.1

>  <Molecular Formula>
C20H21F3N8O3S

>  <InChI>
InChI=1S/C20H21F3N8O3S/c1-24-18(32)12-4-6-13(7-5-12)29-19-28-10-14(20(21,22)23)16(30-19)27-11-15-17(26-9-8-25-15)31(2)35(3,33)34/h4-10H,11H2,1-3H3,(H,24,32)(H2,27,28,29,30)

>  <InChI Key>
FWLMVFUGMHIOAA-UHFFFAOYSA-N

>  <BindingDB>
418817

>  <PubChem>
25117126

>  <ChEMBL>
CHEMBL3137331

$$$$
Compound 57
Actelion Java MolfileCreator 2.0

  0  0  0  0  0  0              0 V3000
M  V30 BEGIN CTAB
M  V30 COUNTS 40 45 0 0 0
M  V30 BEGIN ATOM
M  V30 1 S 0.0 0.0 0.0 0
M  V30 2 C -1.4994 0.1874 0.0 0
M  V30 3 C 0.6091 1.3705 0.0 0
M  V30 4 N -2.8114 -0.5388 0.0 0
M  V30 5 N -1.8039 1.6634 0.0 0
M  V30 6 C -0.5037 2.3897 0.0 0
M  V30 7 C 2.0265 1.8274 0.0 0
M  V30 8 C -3.9242 0.4802 0.0 0
M  V30 9 C -3.3034 1.8508 0.0 0
M  V30 10 C -0.1874 3.8656 0.0 0
M  V30 11 C 2.3428 3.3034 0.0 0
M  V30 12 C -5.4002 0.1991 0.0 0
M  V30 13 C 1.2299 4.3225 0.0 0
M  V30 14 O 3.7602 3.7602 0.0 0
M  V30 15 C -5.8922 -1.2065 0.0 0
M  V30 16 C -6.3959 1.3354 0.0 0
M  V30 17 C 4.8496 2.7645 0.0 0
M  V30 18 C -7.3682 -1.4877 0.0 0
M  V30 19 C -7.8719 1.0542 0.0 0
M  V30 20 C 6.2671 3.2214 0.0 0
M  V30 21 C -8.3639 -0.3514 0.0 0
M  V30 22 N 7.3565 2.2257 0.0 0
M  V30 23 N -9.8399 -0.6325 0.0 0
M  V30 24 C 7.0168 0.7731 0.0 0
M  V30 25 C 8.7739 2.6825 0.0 0
M  V30 26 C -10.8356 0.5037 0.0 0
M  V30 27 C 8.1062 -0.2225 0.0 0
M  V30 28 C 9.8633 1.6868 0.0 0
M  V30 29 O -10.367 1.9328 0.0 0
M  V30 30 N -12.3116 0.2225 0.0 0
M  V30 31 O 9.5236 0.2342 0.0 0
M  V30 32 C -13.3073 1.3588 0.0 0
M  V30 33 N -12.991 2.8348 0.0 0
M  V30 34 C -14.8067 1.2299 0.0 0
M  V30 35 O -14.2913 3.6079 0.0 0
M  V30 36 C -15.4159 2.6122 0.0 0
M  V30 37 C -16.8919 2.9519 0.0 0
M  V30 38 C -16.5756 4.4279 0.0 0
M  V30 39 C -17.2316 1.4994 0.0 0
M  V30 40 C -18.3679 3.2917 0.0 0
M  V30 END ATOM
M  V30 BEGIN BOND
M  V30 1 1 1 2
M  V30 2 1 1 3
M  V30 3 2 2 4
M  V30 4 1 2 5
M  V30 5 2 3 6
M  V30 6 1 3 7
M  V30 7 1 4 8
M  V30 8 1 5 9
M  V30 9 1 6 10
M  V30 10 2 7 11
M  V30 11 1 8 12
M  V30 12 2 10 13
M  V30 13 1 11 14
M  V30 14 2 12 15
M  V30 15 1 12 16
M  V30 16 1 14 17
M  V30 17 1 15 18
M  V30 18 2 16 19
M  V30 19 1 17 20
M  V30 20 2 18 21
M  V30 21 1 20 22
M  V30 22 1 21 23
M  V30 23 1 22 24
M  V30 24 1 22 25
M  V30 25 1 23 26
M  V30 26 1 24 27
M  V30 27 1 25 28
M  V30 28 2 26 29
M  V30 29 1 26 30
M  V30 30 1 27 31
M  V30 31 1 30 32
M  V30 32 2 32 33
M  V30 33 1 32 34
M  V30 34 1 33 35
M  V30 35 2 34 36
M  V30 36 1 36 37
M  V30 37 1 37 38
M  V30 38 1 37 39
M  V30 39 1 37 40
M  V30 40 1 5 6
M  V30 41 2 8 9
M  V30 42 1 11 13
M  V30 43 1 19 21
M  V30 44 1 28 31
M  V30 45 1 35 36
M  V30 END BOND
M  V30 END CTAB
M  END
>  <Compound ID>
36

>  <Name>
Quizartinib

>  <Uniprot>
P51451

>  <Target>
BLK

>  <Smiles>
CC(C)(C)C1=CC(NC(=O)NC2=CC=C(C3=CN4C(=N3)SC3=CC(OCCN5CCOCC5)=CC=C34)C=C2)=NO1

>  <Kd (nM)>
>10000

>  <Assay (Kd)>
Kd was assessed by competition binding assays

>  <Ki (nM)>


>  <Assay (Ki)>


>  <IC50 (nM)>


>  <Assay (IC50)>


>  <EC50 (nM)>


>  <Assay (EC50)>


>  <Article DOI>
10.1038/nbt.1990

>  <Molecular Weight>
560.68

>  <Exact Mass>
560.220574504

>  <XLogP3>
5.64

>  <Heavy Atom Count>
40

>  <Ring Count>
6

>  <Hydrogen Bond Acceptor Count>
9

>  <Hydrogen Bond Donor Count>
2

>  <Rotatable Bond Count>
7

>  <Topological Polar Surface Area>
106.16

>  <Molecular Formula>
C29H32N6O4S

>  <InChI>
InChI=1S/C29H32N6O4S/c1-29(2,3)25-17-26(33-39-25)32-27(36)30-20-6-4-19(5-7-20)22-18-35-23-9-8-21(16-24(23)40-28(35)31-22)38-15-12-34-10-13-37-14-11-34/h4-9,16-18H,10-15H2,1-3H3,(H2,30,32,33,36)

>  <InChI Key>
CVWXJKQAOSCOAB-UHFFFAOYSA-N

>  <BindingDB>
50300690

>  <PubChem>
24889392

>  <ChEMBL>
CHEMBL576982

$$$$
Compound 58
Actelion Java MolfileCreator 2.0

  0  0  0  0  0  0              0 V3000
M  V30 BEGIN CTAB
M  V30 COUNTS 40 45 0 0 0
M  V30 BEGIN ATOM
M  V30 1 S 0.0 0.0 0.0 0
M  V30 2 C -1.4994 0.1874 0.0 0
M  V30 3 C 0.6091 1.3705 0.0 0
M  V30 4 N -2.8114 -0.5388 0.0 0
M  V30 5 N -1.8039 1.6634 0.0 0
M  V30 6 C -0.5037 2.3897 0.0 0
M  V30 7 C 2.0265 1.8274 0.0 0
M  V30 8 C -3.9242 0.4802 0.0 0
M  V30 9 C -3.3034 1.8508 0.0 0
M  V30 10 C -0.1874 3.8656 0.0 0
M  V30 11 C 2.3428 3.3034 0.0 0
M  V30 12 C -5.4002 0.1991 0.0 0
M  V30 13 C 1.2299 4.3225 0.0 0
M  V30 14 O 3.7602 3.7602 0.0 0
M  V30 15 C -5.8922 -1.2065 0.0 0
M  V30 16 C -6.3959 1.3354 0.0 0
M  V30 17 C 4.8496 2.7645 0.0 0
M  V30 18 C -7.3682 -1.4877 0.0 0
M  V30 19 C -7.8719 1.0542 0.0 0
M  V30 20 C 6.2671 3.2214 0.0 0
M  V30 21 C -8.3639 -0.3514 0.0 0
M  V30 22 N 7.3565 2.2257 0.0 0
M  V30 23 N -9.8399 -0.6325 0.0 0
M  V30 24 C 7.0168 0.7731 0.0 0
M  V30 25 C 8.7739 2.6825 0.0 0
M  V30 26 C -10.8356 0.5037 0.0 0
M  V30 27 C 8.1062 -0.2225 0.0 0
M  V30 28 C 9.8633 1.6868 0.0 0
M  V30 29 O -10.367 1.9328 0.0 0
M  V30 30 N -12.3116 0.2225 0.0 0
M  V30 31 O 9.5236 0.2342 0.0 0
M  V30 32 C -13.3073 1.3588 0.0 0
M  V30 33 N -12.991 2.8348 0.0 0
M  V30 34 C -14.8067 1.2299 0.0 0
M  V30 35 O -14.2913 3.6079 0.0 0
M  V30 36 C -15.4159 2.6122 0.0 0
M  V30 37 C -16.8919 2.9519 0.0 0
M  V30 38 C -16.5756 4.4279 0.0 0
M  V30 39 C -17.2316 1.4994 0.0 0
M  V30 40 C -18.3679 3.2917 0.0 0
M  V30 END ATOM
M  V30 BEGIN BOND
M  V30 1 1 1 2
M  V30 2 1 1 3
M  V30 3 2 2 4
M  V30 4 1 2 5
M  V30 5 2 3 6
M  V30 6 1 3 7
M  V30 7 1 4 8
M  V30 8 1 5 9
M  V30 9 1 6 10
M  V30 10 2 7 11
M  V30 11 1 8 12
M  V30 12 2 10 13
M  V30 13 1 11 14
M  V30 14 2 12 15
M  V30 15 1 12 16
M  V30 16 1 14 17
M  V30 17 1 15 18
M  V30 18 2 16 19
M  V30 19 1 17 20
M  V30 20 2 18 21
M  V30 21 1 20 22
M  V30 22 1 21 23
M  V30 23 1 22 24
M  V30 24 1 22 25
M  V30 25 1 23 26
M  V30 26 1 24 27
M  V30 27 1 25 28
M  V30 28 2 26 29
M  V30 29 1 26 30
M  V30 30 1 27 31
M  V30 31 1 30 32
M  V30 32 2 32 33
M  V30 33 1 32 34
M  V30 34 1 33 35
M  V30 35 2 34 36
M  V30 36 1 36 37
M  V30 37 1 37 38
M  V30 38 1 37 39
M  V30 39 1 37 40
M  V30 40 1 5 6
M  V30 41 2 8 9
M  V30 42 1 11 13
M  V30 43 1 19 21
M  V30 44 1 28 31
M  V30 45 1 35 36
M  V30 END BOND
M  V30 END CTAB
M  END
>  <Compound ID>
36

>  <Name>
Quizartinib

>  <Uniprot>
Q00535

>  <Target>
CDK5

>  <Smiles>
CC(C)(C)C1=CC(NC(=O)NC2=CC=C(C3=CN4C(=N3)SC3=CC(OCCN5CCOCC5)=CC=C34)C=C2)=NO1

>  <Kd (nM)>
>10000

>  <Assay (Kd)>
Kd was assessed by competition binding assays

>  <Ki (nM)>


>  <Assay (Ki)>


>  <IC50 (nM)>


>  <Assay (IC50)>


>  <EC50 (nM)>


>  <Assay (EC50)>


>  <Article DOI>
10.1038/nbt.1990

>  <Molecular Weight>
560.68

>  <Exact Mass>
560.220574504

>  <XLogP3>
5.64

>  <Heavy Atom Count>
40

>  <Ring Count>
6

>  <Hydrogen Bond Acceptor Count>
9

>  <Hydrogen Bond Donor Count>
2

>  <Rotatable Bond Count>
7

>  <Topological Polar Surface Area>
106.16

>  <Molecular Formula>
C29H32N6O4S

>  <InChI>
InChI=1S/C29H32N6O4S/c1-29(2,3)25-17-26(33-39-25)32-27(36)30-20-6-4-19(5-7-20)22-18-35-23-9-8-21(16-24(23)40-28(35)31-22)38-15-12-34-10-13-37-14-11-34/h4-9,16-18H,10-15H2,1-3H3,(H2,30,32,33,36)

>  <InChI Key>
CVWXJKQAOSCOAB-UHFFFAOYSA-N

>  <BindingDB>
50300690

>  <PubChem>
24889392

>  <ChEMBL>
CHEMBL576982

$$$$
Compound 59
Actelion Java MolfileCreator 2.0

  0  0  0  0  0  0              0 V3000
M  V30 BEGIN CTAB
M  V30 COUNTS 40 45 0 0 0
M  V30 BEGIN ATOM
M  V30 1 S 0.0 0.0 0.0 0
M  V30 2 C -1.4994 0.1874 0.0 0
M  V30 3 C 0.6091 1.3705 0.0 0
M  V30 4 N -2.8114 -0.5388 0.0 0
M  V30 5 N -1.8039 1.6634 0.0 0
M  V30 6 C -0.5037 2.3897 0.0 0
M  V30 7 C 2.0265 1.8274 0.0 0
M  V30 8 C -3.9242 0.4802 0.0 0
M  V30 9 C -3.3034 1.8508 0.0 0
M  V30 10 C -0.1874 3.8656 0.0 0
M  V30 11 C 2.3428 3.3034 0.0 0
M  V30 12 C -5.4002 0.1991 0.0 0
M  V30 13 C 1.2299 4.3225 0.0 0
M  V30 14 O 3.7602 3.7602 0.0 0
M  V30 15 C -5.8922 -1.2065 0.0 0
M  V30 16 C -6.3959 1.3354 0.0 0
M  V30 17 C 4.8496 2.7645 0.0 0
M  V30 18 C -7.3682 -1.4877 0.0 0
M  V30 19 C -7.8719 1.0542 0.0 0
M  V30 20 C 6.2671 3.2214 0.0 0
M  V30 21 C -8.3639 -0.3514 0.0 0
M  V30 22 N 7.3565 2.2257 0.0 0
M  V30 23 N -9.8399 -0.6325 0.0 0
M  V30 24 C 7.0168 0.7731 0.0 0
M  V30 25 C 8.7739 2.6825 0.0 0
M  V30 26 C -10.8356 0.5037 0.0 0
M  V30 27 C 8.1062 -0.2225 0.0 0
M  V30 28 C 9.8633 1.6868 0.0 0
M  V30 29 O -10.367 1.9328 0.0 0
M  V30 30 N -12.3116 0.2225 0.0 0
M  V30 31 O 9.5236 0.2342 0.0 0
M  V30 32 C -13.3073 1.3588 0.0 0
M  V30 33 N -12.991 2.8348 0.0 0
M  V30 34 C -14.8067 1.2299 0.0 0
M  V30 35 O -14.2913 3.6079 0.0 0
M  V30 36 C -15.4159 2.6122 0.0 0
M  V30 37 C -16.8919 2.9519 0.0 0
M  V30 38 C -16.5756 4.4279 0.0 0
M  V30 39 C -17.2316 1.4994 0.0 0
M  V30 40 C -18.3679 3.2917 0.0 0
M  V30 END ATOM
M  V30 BEGIN BOND
M  V30 1 1 1 2
M  V30 2 1 1 3
M  V30 3 2 2 4
M  V30 4 1 2 5
M  V30 5 2 3 6
M  V30 6 1 3 7
M  V30 7 1 4 8
M  V30 8 1 5 9
M  V30 9 1 6 10
M  V30 10 2 7 11
M  V30 11 1 8 12
M  V30 12 2 10 13
M  V30 13 1 11 14
M  V30 14 2 12 15
M  V30 15 1 12 16
M  V30 16 1 14 17
M  V30 17 1 15 18
M  V30 18 2 16 19
M  V30 19 1 17 20
M  V30 20 2 18 21
M  V30 21 1 20 22
M  V30 22 1 21 23
M  V30 23 1 22 24
M  V30 24 1 22 25
M  V30 25 1 23 26
M  V30 26 1 24 27
M  V30 27 1 25 28
M  V30 28 2 26 29
M  V30 29 1 26 30
M  V30 30 1 27 31
M  V30 31 1 30 32
M  V30 32 2 32 33
M  V30 33 1 32 34
M  V30 34 1 33 35
M  V30 35 2 34 36
M  V30 36 1 36 37
M  V30 37 1 37 38
M  V30 38 1 37 39
M  V30 39 1 37 40
M  V30 40 1 5 6
M  V30 41 2 8 9
M  V30 42 1 11 13
M  V30 43 1 19 21
M  V30 44 1 28 31
M  V30 45 1 35 36
M  V30 END BOND
M  V30 END CTAB
M  END
>  <Compound ID>
36

>  <Name>
Quizartinib

>  <Uniprot>
P16591

>  <Target>
FER

>  <Smiles>
CC(C)(C)C1=CC(NC(=O)NC2=CC=C(C3=CN4C(=N3)SC3=CC(OCCN5CCOCC5)=CC=C34)C=C2)=NO1

>  <Kd (nM)>
>10000

>  <Assay (Kd)>
Kd was assessed by competition binding assays

>  <Ki (nM)>


>  <Assay (Ki)>


>  <IC50 (nM)>


>  <Assay (IC50)>


>  <EC50 (nM)>


>  <Assay (EC50)>


>  <Article DOI>
10.1038/nbt.1990

>  <Molecular Weight>
560.68

>  <Exact Mass>
560.220574504

>  <XLogP3>
5.64

>  <Heavy Atom Count>
40

>  <Ring Count>
6

>  <Hydrogen Bond Acceptor Count>
9

>  <Hydrogen Bond Donor Count>
2

>  <Rotatable Bond Count>
7

>  <Topological Polar Surface Area>
106.16

>  <Molecular Formula>
C29H32N6O4S

>  <InChI>
InChI=1S/C29H32N6O4S/c1-29(2,3)25-17-26(33-39-25)32-27(36)30-20-6-4-19(5-7-20)22-18-35-23-9-8-21(16-24(23)40-28(35)31-22)38-15-12-34-10-13-37-14-11-34/h4-9,16-18H,10-15H2,1-3H3,(H2,30,32,33,36)

>  <InChI Key>
CVWXJKQAOSCOAB-UHFFFAOYSA-N

>  <BindingDB>
50300690

>  <PubChem>
24889392

>  <ChEMBL>
CHEMBL576982

$$$$
Compound 60
Actelion Java MolfileCreator 2.0

  0  0  0  0  0  0              0 V3000
M  V30 BEGIN CTAB
M  V30 COUNTS 40 45 0 0 0
M  V30 BEGIN ATOM
M  V30 1 S 0.0 0.0 0.0 0
M  V30 2 C -1.4994 0.1874 0.0 0
M  V30 3 C 0.6091 1.3705 0.0 0
M  V30 4 N -2.8114 -0.5388 0.0 0
M  V30 5 N -1.8039 1.6634 0.0 0
M  V30 6 C -0.5037 2.3897 0.0 0
M  V30 7 C 2.0265 1.8274 0.0 0
M  V30 8 C -3.9242 0.4802 0.0 0
M  V30 9 C -3.3034 1.8508 0.0 0
M  V30 10 C -0.1874 3.8656 0.0 0
M  V30 11 C 2.3428 3.3034 0.0 0
M  V30 12 C -5.4002 0.1991 0.0 0
M  V30 13 C 1.2299 4.3225 0.0 0
M  V30 14 O 3.7602 3.7602 0.0 0
M  V30 15 C -5.8922 -1.2065 0.0 0
M  V30 16 C -6.3959 1.3354 0.0 0
M  V30 17 C 4.8496 2.7645 0.0 0
M  V30 18 C -7.3682 -1.4877 0.0 0
M  V30 19 C -7.8719 1.0542 0.0 0
M  V30 20 C 6.2671 3.2214 0.0 0
M  V30 21 C -8.3639 -0.3514 0.0 0
M  V30 22 N 7.3565 2.2257 0.0 0
M  V30 23 N -9.8399 -0.6325 0.0 0
M  V30 24 C 7.0168 0.7731 0.0 0
M  V30 25 C 8.7739 2.6825 0.0 0
M  V30 26 C -10.8356 0.5037 0.0 0
M  V30 27 C 8.1062 -0.2225 0.0 0
M  V30 28 C 9.8633 1.6868 0.0 0
M  V30 29 O -10.367 1.9328 0.0 0
M  V30 30 N -12.3116 0.2225 0.0 0
M  V30 31 O 9.5236 0.2342 0.0 0
M  V30 32 C -13.3073 1.3588 0.0 0
M  V30 33 N -12.991 2.8348 0.0 0
M  V30 34 C -14.8067 1.2299 0.0 0
M  V30 35 O -14.2913 3.6079 0.0 0
M  V30 36 C -15.4159 2.6122 0.0 0
M  V30 37 C -16.8919 2.9519 0.0 0
M  V30 38 C -16.5756 4.4279 0.0 0
M  V30 39 C -17.2316 1.4994 0.0 0
M  V30 40 C -18.3679 3.2917 0.0 0
M  V30 END ATOM
M  V30 BEGIN BOND
M  V30 1 1 1 2
M  V30 2 1 1 3
M  V30 3 2 2 4
M  V30 4 1 2 5
M  V30 5 2 3 6
M  V30 6 1 3 7
M  V30 7 1 4 8
M  V30 8 1 5 9
M  V30 9 1 6 10
M  V30 10 2 7 11
M  V30 11 1 8 12
M  V30 12 2 10 13
M  V30 13 1 11 14
M  V30 14 2 12 15
M  V30 15 1 12 16
M  V30 16 1 14 17
M  V30 17 1 15 18
M  V30 18 2 16 19
M  V30 19 1 17 20
M  V30 20 2 18 21
M  V30 21 1 20 22
M  V30 22 1 21 23
M  V30 23 1 22 24
M  V30 24 1 22 25
M  V30 25 1 23 26
M  V30 26 1 24 27
M  V30 27 1 25 28
M  V30 28 2 26 29
M  V30 29 1 26 30
M  V30 30 1 27 31
M  V30 31 1 30 32
M  V30 32 2 32 33
M  V30 33 1 32 34
M  V30 34 1 33 35
M  V30 35 2 34 36
M  V30 36 1 36 37
M  V30 37 1 37 38
M  V30 38 1 37 39
M  V30 39 1 37 40
M  V30 40 1 5 6
M  V30 41 2 8 9
M  V30 42 1 11 13
M  V30 43 1 19 21
M  V30 44 1 28 31
M  V30 45 1 35 36
M  V30 END BOND
M  V30 END CTAB
M  END
>  <Compound ID>
36

>  <Name>
Quizartinib

>  <Uniprot>
P36888

>  <Target>
FLT3

>  <Smiles>
CC(C)(C)C1=CC(NC(=O)NC2=CC=C(C3=CN4C(=N3)SC3=CC(OCCN5CCOCC5)=CC=C34)C=C2)=NO1

>  <Kd (nM)>


>  <Assay (Kd)>


>  <Ki (nM)>


>  <Assay (Ki)>


>  <IC50 (nM)>
7.4

>  <Assay (IC50)>
IC50 of FLT-3

>  <EC50 (nM)>


>  <Assay (EC50)>


>  <Article DOI>
10.1021/jacs.8b10320

>  <Molecular Weight>
560.68

>  <Exact Mass>
560.220574504

>  <XLogP3>
5.64

>  <Heavy Atom Count>
40

>  <Ring Count>
6

>  <Hydrogen Bond Acceptor Count>
9

>  <Hydrogen Bond Donor Count>
2

>  <Rotatable Bond Count>
7

>  <Topological Polar Surface Area>
106.16

>  <Molecular Formula>
C29H32N6O4S

>  <InChI>
InChI=1S/C29H32N6O4S/c1-29(2,3)25-17-26(33-39-25)32-27(36)30-20-6-4-19(5-7-20)22-18-35-23-9-8-21(16-24(23)40-28(35)31-22)38-15-12-34-10-13-37-14-11-34/h4-9,16-18H,10-15H2,1-3H3,(H2,30,32,33,36)

>  <InChI Key>
CVWXJKQAOSCOAB-UHFFFAOYSA-N

>  <BindingDB>
50300690

>  <PubChem>
24889392

>  <ChEMBL>
CHEMBL576982

$$$$
Compound 61
Actelion Java MolfileCreator 2.0

  0  0  0  0  0  0              0 V3000
M  V30 BEGIN CTAB
M  V30 COUNTS 40 45 0 0 0
M  V30 BEGIN ATOM
M  V30 1 S 0.0 0.0 0.0 0
M  V30 2 C -1.4994 0.1874 0.0 0
M  V30 3 C 0.6091 1.3705 0.0 0
M  V30 4 N -2.8114 -0.5388 0.0 0
M  V30 5 N -1.8039 1.6634 0.0 0
M  V30 6 C -0.5037 2.3897 0.0 0
M  V30 7 C 2.0265 1.8274 0.0 0
M  V30 8 C -3.9242 0.4802 0.0 0
M  V30 9 C -3.3034 1.8508 0.0 0
M  V30 10 C -0.1874 3.8656 0.0 0
M  V30 11 C 2.3428 3.3034 0.0 0
M  V30 12 C -5.4002 0.1991 0.0 0
M  V30 13 C 1.2299 4.3225 0.0 0
M  V30 14 O 3.7602 3.7602 0.0 0
M  V30 15 C -5.8922 -1.2065 0.0 0
M  V30 16 C -6.3959 1.3354 0.0 0
M  V30 17 C 4.8496 2.7645 0.0 0
M  V30 18 C -7.3682 -1.4877 0.0 0
M  V30 19 C -7.8719 1.0542 0.0 0
M  V30 20 C 6.2671 3.2214 0.0 0
M  V30 21 C -8.3639 -0.3514 0.0 0
M  V30 22 N 7.3565 2.2257 0.0 0
M  V30 23 N -9.8399 -0.6325 0.0 0
M  V30 24 C 7.0168 0.7731 0.0 0
M  V30 25 C 8.7739 2.6825 0.0 0
M  V30 26 C -10.8356 0.5037 0.0 0
M  V30 27 C 8.1062 -0.2225 0.0 0
M  V30 28 C 9.8633 1.6868 0.0 0
M  V30 29 O -10.367 1.9328 0.0 0
M  V30 30 N -12.3116 0.2225 0.0 0
M  V30 31 O 9.5236 0.2342 0.0 0
M  V30 32 C -13.3073 1.3588 0.0 0
M  V30 33 N -12.991 2.8348 0.0 0
M  V30 34 C -14.8067 1.2299 0.0 0
M  V30 35 O -14.2913 3.6079 0.0 0
M  V30 36 C -15.4159 2.6122 0.0 0
M  V30 37 C -16.8919 2.9519 0.0 0
M  V30 38 C -16.5756 4.4279 0.0 0
M  V30 39 C -17.2316 1.4994 0.0 0
M  V30 40 C -18.3679 3.2917 0.0 0
M  V30 END ATOM
M  V30 BEGIN BOND
M  V30 1 1 1 2
M  V30 2 1 1 3
M  V30 3 2 2 4
M  V30 4 1 2 5
M  V30 5 2 3 6
M  V30 6 1 3 7
M  V30 7 1 4 8
M  V30 8 1 5 9
M  V30 9 1 6 10
M  V30 10 2 7 11
M  V30 11 1 8 12
M  V30 12 2 10 13
M  V30 13 1 11 14
M  V30 14 2 12 15
M  V30 15 1 12 16
M  V30 16 1 14 17
M  V30 17 1 15 18
M  V30 18 2 16 19
M  V30 19 1 17 20
M  V30 20 2 18 21
M  V30 21 1 20 22
M  V30 22 1 21 23
M  V30 23 1 22 24
M  V30 24 1 22 25
M  V30 25 1 23 26
M  V30 26 1 24 27
M  V30 27 1 25 28
M  V30 28 2 26 29
M  V30 29 1 26 30
M  V30 30 1 27 31
M  V30 31 1 30 32
M  V30 32 2 32 33
M  V30 33 1 32 34
M  V30 34 1 33 35
M  V30 35 2 34 36
M  V30 36 1 36 37
M  V30 37 1 37 38
M  V30 38 1 37 39
M  V30 39 1 37 40
M  V30 40 1 5 6
M  V30 41 2 8 9
M  V30 42 1 11 13
M  V30 43 1 19 21
M  V30 44 1 28 31
M  V30 45 1 35 36
M  V30 END BOND
M  V30 END CTAB
M  END
>  <Compound ID>
36

>  <Name>
Quizartinib

>  <Uniprot>
O14976

>  <Target>
GAK

>  <Smiles>
CC(C)(C)C1=CC(NC(=O)NC2=CC=C(C3=CN4C(=N3)SC3=CC(OCCN5CCOCC5)=CC=C34)C=C2)=NO1

>  <Kd (nM)>
>10000

>  <Assay (Kd)>
Kd was assessed by competition binding assays

>  <Ki (nM)>


>  <Assay (Ki)>


>  <IC50 (nM)>


>  <Assay (IC50)>


>  <EC50 (nM)>


>  <Assay (EC50)>


>  <Article DOI>
10.1038/nbt.1990

>  <Molecular Weight>
560.68

>  <Exact Mass>
560.220574504

>  <XLogP3>
5.64

>  <Heavy Atom Count>
40

>  <Ring Count>
6

>  <Hydrogen Bond Acceptor Count>
9

>  <Hydrogen Bond Donor Count>
2

>  <Rotatable Bond Count>
7

>  <Topological Polar Surface Area>
106.16

>  <Molecular Formula>
C29H32N6O4S

>  <InChI>
InChI=1S/C29H32N6O4S/c1-29(2,3)25-17-26(33-39-25)32-27(36)30-20-6-4-19(5-7-20)22-18-35-23-9-8-21(16-24(23)40-28(35)31-22)38-15-12-34-10-13-37-14-11-34/h4-9,16-18H,10-15H2,1-3H3,(H2,30,32,33,36)

>  <InChI Key>
CVWXJKQAOSCOAB-UHFFFAOYSA-N

>  <BindingDB>
50300690

>  <PubChem>
24889392

>  <ChEMBL>
CHEMBL576982

$$$$
Compound 62
Actelion Java MolfileCreator 2.0

  0  0  0  0  0  0              0 V3000
M  V30 BEGIN CTAB
M  V30 COUNTS 40 45 0 0 0
M  V30 BEGIN ATOM
M  V30 1 S 0.0 0.0 0.0 0
M  V30 2 C -1.4994 0.1874 0.0 0
M  V30 3 C 0.6091 1.3705 0.0 0
M  V30 4 N -2.8114 -0.5388 0.0 0
M  V30 5 N -1.8039 1.6634 0.0 0
M  V30 6 C -0.5037 2.3897 0.0 0
M  V30 7 C 2.0265 1.8274 0.0 0
M  V30 8 C -3.9242 0.4802 0.0 0
M  V30 9 C -3.3034 1.8508 0.0 0
M  V30 10 C -0.1874 3.8656 0.0 0
M  V30 11 C 2.3428 3.3034 0.0 0
M  V30 12 C -5.4002 0.1991 0.0 0
M  V30 13 C 1.2299 4.3225 0.0 0
M  V30 14 O 3.7602 3.7602 0.0 0
M  V30 15 C -5.8922 -1.2065 0.0 0
M  V30 16 C -6.3959 1.3354 0.0 0
M  V30 17 C 4.8496 2.7645 0.0 0
M  V30 18 C -7.3682 -1.4877 0.0 0
M  V30 19 C -7.8719 1.0542 0.0 0
M  V30 20 C 6.2671 3.2214 0.0 0
M  V30 21 C -8.3639 -0.3514 0.0 0
M  V30 22 N 7.3565 2.2257 0.0 0
M  V30 23 N -9.8399 -0.6325 0.0 0
M  V30 24 C 7.0168 0.7731 0.0 0
M  V30 25 C 8.7739 2.6825 0.0 0
M  V30 26 C -10.8356 0.5037 0.0 0
M  V30 27 C 8.1062 -0.2225 0.0 0
M  V30 28 C 9.8633 1.6868 0.0 0
M  V30 29 O -10.367 1.9328 0.0 0
M  V30 30 N -12.3116 0.2225 0.0 0
M  V30 31 O 9.5236 0.2342 0.0 0
M  V30 32 C -13.3073 1.3588 0.0 0
M  V30 33 N -12.991 2.8348 0.0 0
M  V30 34 C -14.8067 1.2299 0.0 0
M  V30 35 O -14.2913 3.6079 0.0 0
M  V30 36 C -15.4159 2.6122 0.0 0
M  V30 37 C -16.8919 2.9519 0.0 0
M  V30 38 C -16.5756 4.4279 0.0 0
M  V30 39 C -17.2316 1.4994 0.0 0
M  V30 40 C -18.3679 3.2917 0.0 0
M  V30 END ATOM
M  V30 BEGIN BOND
M  V30 1 1 1 2
M  V30 2 1 1 3
M  V30 3 2 2 4
M  V30 4 1 2 5
M  V30 5 2 3 6
M  V30 6 1 3 7
M  V30 7 1 4 8
M  V30 8 1 5 9
M  V30 9 1 6 10
M  V30 10 2 7 11
M  V30 11 1 8 12
M  V30 12 2 10 13
M  V30 13 1 11 14
M  V30 14 2 12 15
M  V30 15 1 12 16
M  V30 16 1 14 17
M  V30 17 1 15 18
M  V30 18 2 16 19
M  V30 19 1 17 20
M  V30 20 2 18 21
M  V30 21 1 20 22
M  V30 22 1 21 23
M  V30 23 1 22 24
M  V30 24 1 22 25
M  V30 25 1 23 26
M  V30 26 1 24 27
M  V30 27 1 25 28
M  V30 28 2 26 29
M  V30 29 1 26 30
M  V30 30 1 27 31
M  V30 31 1 30 32
M  V30 32 2 32 33
M  V30 33 1 32 34
M  V30 34 1 33 35
M  V30 35 2 34 36
M  V30 36 1 36 37
M  V30 37 1 37 38
M  V30 38 1 37 39
M  V30 39 1 37 40
M  V30 40 1 5 6
M  V30 41 2 8 9
M  V30 42 1 11 13
M  V30 43 1 19 21
M  V30 44 1 28 31
M  V30 45 1 35 36
M  V30 END BOND
M  V30 END CTAB
M  END
>  <Compound ID>
36

>  <Name>
Quizartinib

>  <Uniprot>
P51617

>  <Target>
IRAK1

>  <Smiles>
CC(C)(C)C1=CC(NC(=O)NC2=CC=C(C3=CN4C(=N3)SC3=CC(OCCN5CCOCC5)=CC=C34)C=C2)=NO1

>  <Kd (nM)>
>10000

>  <Assay (Kd)>
Kd was assessed by competition binding assays

>  <Ki (nM)>


>  <Assay (Ki)>


>  <IC50 (nM)>


>  <Assay (IC50)>


>  <EC50 (nM)>


>  <Assay (EC50)>


>  <Article DOI>
10.1038/nbt.1990

>  <Molecular Weight>
560.68

>  <Exact Mass>
560.220574504

>  <XLogP3>
5.64

>  <Heavy Atom Count>
40

>  <Ring Count>
6

>  <Hydrogen Bond Acceptor Count>
9

>  <Hydrogen Bond Donor Count>
2

>  <Rotatable Bond Count>
7

>  <Topological Polar Surface Area>
106.16

>  <Molecular Formula>
C29H32N6O4S

>  <InChI>
InChI=1S/C29H32N6O4S/c1-29(2,3)25-17-26(33-39-25)32-27(36)30-20-6-4-19(5-7-20)22-18-35-23-9-8-21(16-24(23)40-28(35)31-22)38-15-12-34-10-13-37-14-11-34/h4-9,16-18H,10-15H2,1-3H3,(H2,30,32,33,36)

>  <InChI Key>
CVWXJKQAOSCOAB-UHFFFAOYSA-N

>  <BindingDB>
50300690

>  <PubChem>
24889392

>  <ChEMBL>
CHEMBL576982

$$$$
Compound 63
Actelion Java MolfileCreator 2.0

  0  0  0  0  0  0              0 V3000
M  V30 BEGIN CTAB
M  V30 COUNTS 40 45 0 0 0
M  V30 BEGIN ATOM
M  V30 1 S 0.0 0.0 0.0 0
M  V30 2 C -1.4994 0.1874 0.0 0
M  V30 3 C 0.6091 1.3705 0.0 0
M  V30 4 N -2.8114 -0.5388 0.0 0
M  V30 5 N -1.8039 1.6634 0.0 0
M  V30 6 C -0.5037 2.3897 0.0 0
M  V30 7 C 2.0265 1.8274 0.0 0
M  V30 8 C -3.9242 0.4802 0.0 0
M  V30 9 C -3.3034 1.8508 0.0 0
M  V30 10 C -0.1874 3.8656 0.0 0
M  V30 11 C 2.3428 3.3034 0.0 0
M  V30 12 C -5.4002 0.1991 0.0 0
M  V30 13 C 1.2299 4.3225 0.0 0
M  V30 14 O 3.7602 3.7602 0.0 0
M  V30 15 C -5.8922 -1.2065 0.0 0
M  V30 16 C -6.3959 1.3354 0.0 0
M  V30 17 C 4.8496 2.7645 0.0 0
M  V30 18 C -7.3682 -1.4877 0.0 0
M  V30 19 C -7.8719 1.0542 0.0 0
M  V30 20 C 6.2671 3.2214 0.0 0
M  V30 21 C -8.3639 -0.3514 0.0 0
M  V30 22 N 7.3565 2.2257 0.0 0
M  V30 23 N -9.8399 -0.6325 0.0 0
M  V30 24 C 7.0168 0.7731 0.0 0
M  V30 25 C 8.7739 2.6825 0.0 0
M  V30 26 C -10.8356 0.5037 0.0 0
M  V30 27 C 8.1062 -0.2225 0.0 0
M  V30 28 C 9.8633 1.6868 0.0 0
M  V30 29 O -10.367 1.9328 0.0 0
M  V30 30 N -12.3116 0.2225 0.0 0
M  V30 31 O 9.5236 0.2342 0.0 0
M  V30 32 C -13.3073 1.3588 0.0 0
M  V30 33 N -12.991 2.8348 0.0 0
M  V30 34 C -14.8067 1.2299 0.0 0
M  V30 35 O -14.2913 3.6079 0.0 0
M  V30 36 C -15.4159 2.6122 0.0 0
M  V30 37 C -16.8919 2.9519 0.0 0
M  V30 38 C -16.5756 4.4279 0.0 0
M  V30 39 C -17.2316 1.4994 0.0 0
M  V30 40 C -18.3679 3.2917 0.0 0
M  V30 END ATOM
M  V30 BEGIN BOND
M  V30 1 1 1 2
M  V30 2 1 1 3
M  V30 3 2 2 4
M  V30 4 1 2 5
M  V30 5 2 3 6
M  V30 6 1 3 7
M  V30 7 1 4 8
M  V30 8 1 5 9
M  V30 9 1 6 10
M  V30 10 2 7 11
M  V30 11 1 8 12
M  V30 12 2 10 13
M  V30 13 1 11 14
M  V30 14 2 12 15
M  V30 15 1 12 16
M  V30 16 1 14 17
M  V30 17 1 15 18
M  V30 18 2 16 19
M  V30 19 1 17 20
M  V30 20 2 18 21
M  V30 21 1 20 22
M  V30 22 1 21 23
M  V30 23 1 22 24
M  V30 24 1 22 25
M  V30 25 1 23 26
M  V30 26 1 24 27
M  V30 27 1 25 28
M  V30 28 2 26 29
M  V30 29 1 26 30
M  V30 30 1 27 31
M  V30 31 1 30 32
M  V30 32 2 32 33
M  V30 33 1 32 34
M  V30 34 1 33 35
M  V30 35 2 34 36
M  V30 36 1 36 37
M  V30 37 1 37 38
M  V30 38 1 37 39
M  V30 39 1 37 40
M  V30 40 1 5 6
M  V30 41 2 8 9
M  V30 42 1 11 13
M  V30 43 1 19 21
M  V30 44 1 28 31
M  V30 45 1 35 36
M  V30 END BOND
M  V30 END CTAB
M  END
>  <Compound ID>
36

>  <Name>
Quizartinib

>  <Uniprot>
P06239

>  <Target>
LCK

>  <Smiles>
CC(C)(C)C1=CC(NC(=O)NC2=CC=C(C3=CN4C(=N3)SC3=CC(OCCN5CCOCC5)=CC=C34)C=C2)=NO1

>  <Kd (nM)>
2500

>  <Assay (Kd)>
Kd was assessed by competition binding assays

>  <Ki (nM)>


>  <Assay (Ki)>


>  <IC50 (nM)>


>  <Assay (IC50)>


>  <EC50 (nM)>


>  <Assay (EC50)>


>  <Article DOI>
10.1038/nbt.1990

>  <Molecular Weight>
560.68

>  <Exact Mass>
560.220574504

>  <XLogP3>
5.64

>  <Heavy Atom Count>
40

>  <Ring Count>
6

>  <Hydrogen Bond Acceptor Count>
9

>  <Hydrogen Bond Donor Count>
2

>  <Rotatable Bond Count>
7

>  <Topological Polar Surface Area>
106.16

>  <Molecular Formula>
C29H32N6O4S

>  <InChI>
InChI=1S/C29H32N6O4S/c1-29(2,3)25-17-26(33-39-25)32-27(36)30-20-6-4-19(5-7-20)22-18-35-23-9-8-21(16-24(23)40-28(35)31-22)38-15-12-34-10-13-37-14-11-34/h4-9,16-18H,10-15H2,1-3H3,(H2,30,32,33,36)

>  <InChI Key>
CVWXJKQAOSCOAB-UHFFFAOYSA-N

>  <BindingDB>
50300690

>  <PubChem>
24889392

>  <ChEMBL>
CHEMBL576982

$$$$
Compound 64
Actelion Java MolfileCreator 2.0

  0  0  0  0  0  0              0 V3000
M  V30 BEGIN CTAB
M  V30 COUNTS 40 45 0 0 0
M  V30 BEGIN ATOM
M  V30 1 S 0.0 0.0 0.0 0
M  V30 2 C -1.4994 0.1874 0.0 0
M  V30 3 C 0.6091 1.3705 0.0 0
M  V30 4 N -2.8114 -0.5388 0.0 0
M  V30 5 N -1.8039 1.6634 0.0 0
M  V30 6 C -0.5037 2.3897 0.0 0
M  V30 7 C 2.0265 1.8274 0.0 0
M  V30 8 C -3.9242 0.4802 0.0 0
M  V30 9 C -3.3034 1.8508 0.0 0
M  V30 10 C -0.1874 3.8656 0.0 0
M  V30 11 C 2.3428 3.3034 0.0 0
M  V30 12 C -5.4002 0.1991 0.0 0
M  V30 13 C 1.2299 4.3225 0.0 0
M  V30 14 O 3.7602 3.7602 0.0 0
M  V30 15 C -5.8922 -1.2065 0.0 0
M  V30 16 C -6.3959 1.3354 0.0 0
M  V30 17 C 4.8496 2.7645 0.0 0
M  V30 18 C -7.3682 -1.4877 0.0 0
M  V30 19 C -7.8719 1.0542 0.0 0
M  V30 20 C 6.2671 3.2214 0.0 0
M  V30 21 C -8.3639 -0.3514 0.0 0
M  V30 22 N 7.3565 2.2257 0.0 0
M  V30 23 N -9.8399 -0.6325 0.0 0
M  V30 24 C 7.0168 0.7731 0.0 0
M  V30 25 C 8.7739 2.6825 0.0 0
M  V30 26 C -10.8356 0.5037 0.0 0
M  V30 27 C 8.1062 -0.2225 0.0 0
M  V30 28 C 9.8633 1.6868 0.0 0
M  V30 29 O -10.367 1.9328 0.0 0
M  V30 30 N -12.3116 0.2225 0.0 0
M  V30 31 O 9.5236 0.2342 0.0 0
M  V30 32 C -13.3073 1.3588 0.0 0
M  V30 33 N -12.991 2.8348 0.0 0
M  V30 34 C -14.8067 1.2299 0.0 0
M  V30 35 O -14.2913 3.6079 0.0 0
M  V30 36 C -15.4159 2.6122 0.0 0
M  V30 37 C -16.8919 2.9519 0.0 0
M  V30 38 C -16.5756 4.4279 0.0 0
M  V30 39 C -17.2316 1.4994 0.0 0
M  V30 40 C -18.3679 3.2917 0.0 0
M  V30 END ATOM
M  V30 BEGIN BOND
M  V30 1 1 1 2
M  V30 2 1 1 3
M  V30 3 2 2 4
M  V30 4 1 2 5
M  V30 5 2 3 6
M  V30 6 1 3 7
M  V30 7 1 4 8
M  V30 8 1 5 9
M  V30 9 1 6 10
M  V30 10 2 7 11
M  V30 11 1 8 12
M  V30 12 2 10 13
M  V30 13 1 11 14
M  V30 14 2 12 15
M  V30 15 1 12 16
M  V30 16 1 14 17
M  V30 17 1 15 18
M  V30 18 2 16 19
M  V30 19 1 17 20
M  V30 20 2 18 21
M  V30 21 1 20 22
M  V30 22 1 21 23
M  V30 23 1 22 24
M  V30 24 1 22 25
M  V30 25 1 23 26
M  V30 26 1 24 27
M  V30 27 1 25 28
M  V30 28 2 26 29
M  V30 29 1 26 30
M  V30 30 1 27 31
M  V30 31 1 30 32
M  V30 32 2 32 33
M  V30 33 1 32 34
M  V30 34 1 33 35
M  V30 35 2 34 36
M  V30 36 1 36 37
M  V30 37 1 37 38
M  V30 38 1 37 39
M  V30 39 1 37 40
M  V30 40 1 5 6
M  V30 41 2 8 9
M  V30 42 1 11 13
M  V30 43 1 19 21
M  V30 44 1 28 31
M  V30 45 1 35 36
M  V30 END BOND
M  V30 END CTAB
M  END
>  <Compound ID>
36

>  <Name>
Quizartinib

>  <Uniprot>
Q12851

>  <Target>
MAP4K2

>  <Smiles>
CC(C)(C)C1=CC(NC(=O)NC2=CC=C(C3=CN4C(=N3)SC3=CC(OCCN5CCOCC5)=CC=C34)C=C2)=NO1

>  <Kd (nM)>
>10000

>  <Assay (Kd)>
Kd was assessed by competition binding assays

>  <Ki (nM)>


>  <Assay (Ki)>


>  <IC50 (nM)>


>  <Assay (IC50)>


>  <EC50 (nM)>


>  <Assay (EC50)>


>  <Article DOI>
10.1038/nbt.1990

>  <Molecular Weight>
560.68

>  <Exact Mass>
560.220574504

>  <XLogP3>
5.64

>  <Heavy Atom Count>
40

>  <Ring Count>
6

>  <Hydrogen Bond Acceptor Count>
9

>  <Hydrogen Bond Donor Count>
2

>  <Rotatable Bond Count>
7

>  <Topological Polar Surface Area>
106.16

>  <Molecular Formula>
C29H32N6O4S

>  <InChI>
InChI=1S/C29H32N6O4S/c1-29(2,3)25-17-26(33-39-25)32-27(36)30-20-6-4-19(5-7-20)22-18-35-23-9-8-21(16-24(23)40-28(35)31-22)38-15-12-34-10-13-37-14-11-34/h4-9,16-18H,10-15H2,1-3H3,(H2,30,32,33,36)

>  <InChI Key>
CVWXJKQAOSCOAB-UHFFFAOYSA-N

>  <BindingDB>
50300690

>  <PubChem>
24889392

>  <ChEMBL>
CHEMBL576982

$$$$
Compound 65
Actelion Java MolfileCreator 2.0

  0  0  0  0  0  0              0 V3000
M  V30 BEGIN CTAB
M  V30 COUNTS 40 45 0 0 0
M  V30 BEGIN ATOM
M  V30 1 S 0.0 0.0 0.0 0
M  V30 2 C -1.4994 0.1874 0.0 0
M  V30 3 C 0.6091 1.3705 0.0 0
M  V30 4 N -2.8114 -0.5388 0.0 0
M  V30 5 N -1.8039 1.6634 0.0 0
M  V30 6 C -0.5037 2.3897 0.0 0
M  V30 7 C 2.0265 1.8274 0.0 0
M  V30 8 C -3.9242 0.4802 0.0 0
M  V30 9 C -3.3034 1.8508 0.0 0
M  V30 10 C -0.1874 3.8656 0.0 0
M  V30 11 C 2.3428 3.3034 0.0 0
M  V30 12 C -5.4002 0.1991 0.0 0
M  V30 13 C 1.2299 4.3225 0.0 0
M  V30 14 O 3.7602 3.7602 0.0 0
M  V30 15 C -5.8922 -1.2065 0.0 0
M  V30 16 C -6.3959 1.3354 0.0 0
M  V30 17 C 4.8496 2.7645 0.0 0
M  V30 18 C -7.3682 -1.4877 0.0 0
M  V30 19 C -7.8719 1.0542 0.0 0
M  V30 20 C 6.2671 3.2214 0.0 0
M  V30 21 C -8.3639 -0.3514 0.0 0
M  V30 22 N 7.3565 2.2257 0.0 0
M  V30 23 N -9.8399 -0.6325 0.0 0
M  V30 24 C 7.0168 0.7731 0.0 0
M  V30 25 C 8.7739 2.6825 0.0 0
M  V30 26 C -10.8356 0.5037 0.0 0
M  V30 27 C 8.1062 -0.2225 0.0 0
M  V30 28 C 9.8633 1.6868 0.0 0
M  V30 29 O -10.367 1.9328 0.0 0
M  V30 30 N -12.3116 0.2225 0.0 0
M  V30 31 O 9.5236 0.2342 0.0 0
M  V30 32 C -13.3073 1.3588 0.0 0
M  V30 33 N -12.991 2.8348 0.0 0
M  V30 34 C -14.8067 1.2299 0.0 0
M  V30 35 O -14.2913 3.6079 0.0 0
M  V30 36 C -15.4159 2.6122 0.0 0
M  V30 37 C -16.8919 2.9519 0.0 0
M  V30 38 C -16.5756 4.4279 0.0 0
M  V30 39 C -17.2316 1.4994 0.0 0
M  V30 40 C -18.3679 3.2917 0.0 0
M  V30 END ATOM
M  V30 BEGIN BOND
M  V30 1 1 1 2
M  V30 2 1 1 3
M  V30 3 2 2 4
M  V30 4 1 2 5
M  V30 5 2 3 6
M  V30 6 1 3 7
M  V30 7 1 4 8
M  V30 8 1 5 9
M  V30 9 1 6 10
M  V30 10 2 7 11
M  V30 11 1 8 12
M  V30 12 2 10 13
M  V30 13 1 11 14
M  V30 14 2 12 15
M  V30 15 1 12 16
M  V30 16 1 14 17
M  V30 17 1 15 18
M  V30 18 2 16 19
M  V30 19 1 17 20
M  V30 20 2 18 21
M  V30 21 1 20 22
M  V30 22 1 21 23
M  V30 23 1 22 24
M  V30 24 1 22 25
M  V30 25 1 23 26
M  V30 26 1 24 27
M  V30 27 1 25 28
M  V30 28 2 26 29
M  V30 29 1 26 30
M  V30 30 1 27 31
M  V30 31 1 30 32
M  V30 32 2 32 33
M  V30 33 1 32 34
M  V30 34 1 33 35
M  V30 35 2 34 36
M  V30 36 1 36 37
M  V30 37 1 37 38
M  V30 38 1 37 39
M  V30 39 1 37 40
M  V30 40 1 5 6
M  V30 41 2 8 9
M  V30 42 1 11 13
M  V30 43 1 19 21
M  V30 44 1 28 31
M  V30 45 1 35 36
M  V30 END BOND
M  V30 END CTAB
M  END
>  <Compound ID>
36

>  <Name>
Quizartinib

>  <Uniprot>
Q16539

>  <Target>
p38alpha

>  <Smiles>
CC(C)(C)C1=CC(NC(=O)NC2=CC=C(C3=CN4C(=N3)SC3=CC(OCCN5CCOCC5)=CC=C34)C=C2)=NO1

>  <Kd (nM)>
>10000

>  <Assay (Kd)>
Kd was assessed by competition binding assays

>  <Ki (nM)>


>  <Assay (Ki)>


>  <IC50 (nM)>


>  <Assay (IC50)>


>  <EC50 (nM)>


>  <Assay (EC50)>


>  <Article DOI>
10.1038/nbt.1990

>  <Molecular Weight>
560.68

>  <Exact Mass>
560.220574504

>  <XLogP3>
5.64

>  <Heavy Atom Count>
40

>  <Ring Count>
6

>  <Hydrogen Bond Acceptor Count>
9

>  <Hydrogen Bond Donor Count>
2

>  <Rotatable Bond Count>
7

>  <Topological Polar Surface Area>
106.16

>  <Molecular Formula>
C29H32N6O4S

>  <InChI>
InChI=1S/C29H32N6O4S/c1-29(2,3)25-17-26(33-39-25)32-27(36)30-20-6-4-19(5-7-20)22-18-35-23-9-8-21(16-24(23)40-28(35)31-22)38-15-12-34-10-13-37-14-11-34/h4-9,16-18H,10-15H2,1-3H3,(H2,30,32,33,36)

>  <InChI Key>
CVWXJKQAOSCOAB-UHFFFAOYSA-N

>  <BindingDB>
50300690

>  <PubChem>
24889392

>  <ChEMBL>
CHEMBL576982

$$$$
Compound 66
Actelion Java MolfileCreator 2.0

  0  0  0  0  0  0              0 V3000
M  V30 BEGIN CTAB
M  V30 COUNTS 40 45 0 0 0
M  V30 BEGIN ATOM
M  V30 1 S 0.0 0.0 0.0 0
M  V30 2 C -1.4994 0.1874 0.0 0
M  V30 3 C 0.6091 1.3705 0.0 0
M  V30 4 N -2.8114 -0.5388 0.0 0
M  V30 5 N -1.8039 1.6634 0.0 0
M  V30 6 C -0.5037 2.3897 0.0 0
M  V30 7 C 2.0265 1.8274 0.0 0
M  V30 8 C -3.9242 0.4802 0.0 0
M  V30 9 C -3.3034 1.8508 0.0 0
M  V30 10 C -0.1874 3.8656 0.0 0
M  V30 11 C 2.3428 3.3034 0.0 0
M  V30 12 C -5.4002 0.1991 0.0 0
M  V30 13 C 1.2299 4.3225 0.0 0
M  V30 14 O 3.7602 3.7602 0.0 0
M  V30 15 C -5.8922 -1.2065 0.0 0
M  V30 16 C -6.3959 1.3354 0.0 0
M  V30 17 C 4.8496 2.7645 0.0 0
M  V30 18 C -7.3682 -1.4877 0.0 0
M  V30 19 C -7.8719 1.0542 0.0 0
M  V30 20 C 6.2671 3.2214 0.0 0
M  V30 21 C -8.3639 -0.3514 0.0 0
M  V30 22 N 7.3565 2.2257 0.0 0
M  V30 23 N -9.8399 -0.6325 0.0 0
M  V30 24 C 7.0168 0.7731 0.0 0
M  V30 25 C 8.7739 2.6825 0.0 0
M  V30 26 C -10.8356 0.5037 0.0 0
M  V30 27 C 8.1062 -0.2225 0.0 0
M  V30 28 C 9.8633 1.6868 0.0 0
M  V30 29 O -10.367 1.9328 0.0 0
M  V30 30 N -12.3116 0.2225 0.0 0
M  V30 31 O 9.5236 0.2342 0.0 0
M  V30 32 C -13.3073 1.3588 0.0 0
M  V30 33 N -12.991 2.8348 0.0 0
M  V30 34 C -14.8067 1.2299 0.0 0
M  V30 35 O -14.2913 3.6079 0.0 0
M  V30 36 C -15.4159 2.6122 0.0 0
M  V30 37 C -16.8919 2.9519 0.0 0
M  V30 38 C -16.5756 4.4279 0.0 0
M  V30 39 C -17.2316 1.4994 0.0 0
M  V30 40 C -18.3679 3.2917 0.0 0
M  V30 END ATOM
M  V30 BEGIN BOND
M  V30 1 1 1 2
M  V30 2 1 1 3
M  V30 3 2 2 4
M  V30 4 1 2 5
M  V30 5 2 3 6
M  V30 6 1 3 7
M  V30 7 1 4 8
M  V30 8 1 5 9
M  V30 9 1 6 10
M  V30 10 2 7 11
M  V30 11 1 8 12
M  V30 12 2 10 13
M  V30 13 1 11 14
M  V30 14 2 12 15
M  V30 15 1 12 16
M  V30 16 1 14 17
M  V30 17 1 15 18
M  V30 18 2 16 19
M  V30 19 1 17 20
M  V30 20 2 18 21
M  V30 21 1 20 22
M  V30 22 1 21 23
M  V30 23 1 22 24
M  V30 24 1 22 25
M  V30 25 1 23 26
M  V30 26 1 24 27
M  V30 27 1 25 28
M  V30 28 2 26 29
M  V30 29 1 26 30
M  V30 30 1 27 31
M  V30 31 1 30 32
M  V30 32 2 32 33
M  V30 33 1 32 34
M  V30 34 1 33 35
M  V30 35 2 34 36
M  V30 36 1 36 37
M  V30 37 1 37 38
M  V30 38 1 37 39
M  V30 39 1 37 40
M  V30 40 1 5 6
M  V30 41 2 8 9
M  V30 42 1 11 13
M  V30 43 1 19 21
M  V30 44 1 28 31
M  V30 45 1 35 36
M  V30 END BOND
M  V30 END CTAB
M  END
>  <Compound ID>
36

>  <Name>
Quizartinib

>  <Uniprot>
Q13546

>  <Target>
RIPK1

>  <Smiles>
CC(C)(C)C1=CC(NC(=O)NC2=CC=C(C3=CN4C(=N3)SC3=CC(OCCN5CCOCC5)=CC=C34)C=C2)=NO1

>  <Kd (nM)>
890

>  <Assay (Kd)>
Kd was assessed by competition binding assays

>  <Ki (nM)>


>  <Assay (Ki)>


>  <IC50 (nM)>


>  <Assay (IC50)>


>  <EC50 (nM)>


>  <Assay (EC50)>


>  <Article DOI>
10.1038/nbt.1990

>  <Molecular Weight>
560.68

>  <Exact Mass>
560.220574504

>  <XLogP3>
5.64

>  <Heavy Atom Count>
40

>  <Ring Count>
6

>  <Hydrogen Bond Acceptor Count>
9

>  <Hydrogen Bond Donor Count>
2

>  <Rotatable Bond Count>
7

>  <Topological Polar Surface Area>
106.16

>  <Molecular Formula>
C29H32N6O4S

>  <InChI>
InChI=1S/C29H32N6O4S/c1-29(2,3)25-17-26(33-39-25)32-27(36)30-20-6-4-19(5-7-20)22-18-35-23-9-8-21(16-24(23)40-28(35)31-22)38-15-12-34-10-13-37-14-11-34/h4-9,16-18H,10-15H2,1-3H3,(H2,30,32,33,36)

>  <InChI Key>
CVWXJKQAOSCOAB-UHFFFAOYSA-N

>  <BindingDB>
50300690

>  <PubChem>
24889392

>  <ChEMBL>
CHEMBL576982

$$$$
Compound 67
Actelion Java MolfileCreator 2.0

  0  0  0  0  0  0              0 V3000
M  V30 BEGIN CTAB
M  V30 COUNTS 40 45 0 0 0
M  V30 BEGIN ATOM
M  V30 1 S 0.0 0.0 0.0 0
M  V30 2 C -1.4994 0.1874 0.0 0
M  V30 3 C 0.6091 1.3705 0.0 0
M  V30 4 N -2.8114 -0.5388 0.0 0
M  V30 5 N -1.8039 1.6634 0.0 0
M  V30 6 C -0.5037 2.3897 0.0 0
M  V30 7 C 2.0265 1.8274 0.0 0
M  V30 8 C -3.9242 0.4802 0.0 0
M  V30 9 C -3.3034 1.8508 0.0 0
M  V30 10 C -0.1874 3.8656 0.0 0
M  V30 11 C 2.3428 3.3034 0.0 0
M  V30 12 C -5.4002 0.1991 0.0 0
M  V30 13 C 1.2299 4.3225 0.0 0
M  V30 14 O 3.7602 3.7602 0.0 0
M  V30 15 C -5.8922 -1.2065 0.0 0
M  V30 16 C -6.3959 1.3354 0.0 0
M  V30 17 C 4.8496 2.7645 0.0 0
M  V30 18 C -7.3682 -1.4877 0.0 0
M  V30 19 C -7.8719 1.0542 0.0 0
M  V30 20 C 6.2671 3.2214 0.0 0
M  V30 21 C -8.3639 -0.3514 0.0 0
M  V30 22 N 7.3565 2.2257 0.0 0
M  V30 23 N -9.8399 -0.6325 0.0 0
M  V30 24 C 7.0168 0.7731 0.0 0
M  V30 25 C 8.7739 2.6825 0.0 0
M  V30 26 C -10.8356 0.5037 0.0 0
M  V30 27 C 8.1062 -0.2225 0.0 0
M  V30 28 C 9.8633 1.6868 0.0 0
M  V30 29 O -10.367 1.9328 0.0 0
M  V30 30 N -12.3116 0.2225 0.0 0
M  V30 31 O 9.5236 0.2342 0.0 0
M  V30 32 C -13.3073 1.3588 0.0 0
M  V30 33 N -12.991 2.8348 0.0 0
M  V30 34 C -14.8067 1.2299 0.0 0
M  V30 35 O -14.2913 3.6079 0.0 0
M  V30 36 C -15.4159 2.6122 0.0 0
M  V30 37 C -16.8919 2.9519 0.0 0
M  V30 38 C -16.5756 4.4279 0.0 0
M  V30 39 C -17.2316 1.4994 0.0 0
M  V30 40 C -18.3679 3.2917 0.0 0
M  V30 END ATOM
M  V30 BEGIN BOND
M  V30 1 1 1 2
M  V30 2 1 1 3
M  V30 3 2 2 4
M  V30 4 1 2 5
M  V30 5 2 3 6
M  V30 6 1 3 7
M  V30 7 1 4 8
M  V30 8 1 5 9
M  V30 9 1 6 10
M  V30 10 2 7 11
M  V30 11 1 8 12
M  V30 12 2 10 13
M  V30 13 1 11 14
M  V30 14 2 12 15
M  V30 15 1 12 16
M  V30 16 1 14 17
M  V30 17 1 15 18
M  V30 18 2 16 19
M  V30 19 1 17 20
M  V30 20 2 18 21
M  V30 21 1 20 22
M  V30 22 1 21 23
M  V30 23 1 22 24
M  V30 24 1 22 25
M  V30 25 1 23 26
M  V30 26 1 24 27
M  V30 27 1 25 28
M  V30 28 2 26 29
M  V30 29 1 26 30
M  V30 30 1 27 31
M  V30 31 1 30 32
M  V30 32 2 32 33
M  V30 33 1 32 34
M  V30 34 1 33 35
M  V30 35 2 34 36
M  V30 36 1 36 37
M  V30 37 1 37 38
M  V30 38 1 37 39
M  V30 39 1 37 40
M  V30 40 1 5 6
M  V30 41 2 8 9
M  V30 42 1 11 13
M  V30 43 1 19 21
M  V30 44 1 28 31
M  V30 45 1 35 36
M  V30 END BOND
M  V30 END CTAB
M  END
>  <Compound ID>
36

>  <Name>
Quizartinib

>  <Uniprot>
P12931

>  <Target>
Src

>  <Smiles>
CC(C)(C)C1=CC(NC(=O)NC2=CC=C(C3=CN4C(=N3)SC3=CC(OCCN5CCOCC5)=CC=C34)C=C2)=NO1

>  <Kd (nM)>
>10000

>  <Assay (Kd)>
Kd was assessed by competition binding assays

>  <Ki (nM)>


>  <Assay (Ki)>


>  <IC50 (nM)>


>  <Assay (IC50)>


>  <EC50 (nM)>


>  <Assay (EC50)>


>  <Article DOI>
10.1038/nbt.1990

>  <Molecular Weight>
560.68

>  <Exact Mass>
560.220574504

>  <XLogP3>
5.64

>  <Heavy Atom Count>
40

>  <Ring Count>
6

>  <Hydrogen Bond Acceptor Count>
9

>  <Hydrogen Bond Donor Count>
2

>  <Rotatable Bond Count>
7

>  <Topological Polar Surface Area>
106.16

>  <Molecular Formula>
C29H32N6O4S

>  <InChI>
InChI=1S/C29H32N6O4S/c1-29(2,3)25-17-26(33-39-25)32-27(36)30-20-6-4-19(5-7-20)22-18-35-23-9-8-21(16-24(23)40-28(35)31-22)38-15-12-34-10-13-37-14-11-34/h4-9,16-18H,10-15H2,1-3H3,(H2,30,32,33,36)

>  <InChI Key>
CVWXJKQAOSCOAB-UHFFFAOYSA-N

>  <BindingDB>
50300690

>  <PubChem>
24889392

>  <ChEMBL>
CHEMBL576982

$$$$
Compound 68
Actelion Java MolfileCreator 2.0

  0  0  0  0  0  0              0 V3000
M  V30 BEGIN CTAB
M  V30 COUNTS 40 44 0 0 0
M  V30 BEGIN ATOM
M  V30 1 Cl 0.0 0.0 0.0 0
M  V30 2 C -0.2005 -1.4748 0.0 0
M  V30 3 C 0.9793 -2.3715 0.0 0
M  V30 4 C -1.5928 -2.0412 0.0 0
M  V30 5 O 2.3479 -1.7816 0.0 0
M  V30 6 C 0.7787 -3.8464 0.0 0
M  V30 7 C -1.7934 -3.516 0.0 0
M  V30 8 C 3.5278 -2.6783 0.0 0
M  V30 9 C -0.6135 -4.4128 0.0 0
M  V30 10 N -3.1857 -4.0824 0.0 0
M  V30 11 C 4.8965 -2.0884 0.0 0
M  V30 12 C -3.3863 -5.5573 0.0 0
M  V30 13 C 5.0735 -0.5899 0.0 0
M  V30 14 C 6.0764 -2.9851 0.0 0
M  V30 15 N -2.2064 -6.454 0.0 0
M  V30 16 C -4.7785 -6.1236 0.0 0
M  V30 17 C 6.4422 0.0 0.0 0
M  V30 18 C 7.4451 -2.3951 0.0 0
M  V30 19 C -2.4069 -7.9289 0.0 0
M  V30 20 C -4.9791 -7.5985 0.0 0
M  V30 21 C -5.982 -5.2033 0.0 0
M  V30 22 F 6.6192 1.4984 0.0 0
M  V30 23 C 7.6221 -0.8967 0.0 0
M  V30 24 N -3.7992 -8.4952 0.0 0
M  V30 25 C -6.3714 -8.1648 0.0 0
M  V30 26 C -7.3743 -5.7696 0.0 0
M  V30 27 C -7.5749 -7.2445 0.0 0
M  V30 28 C -8.5778 -4.8493 0.0 0
M  V30 29 O -8.566 -3.3391 0.0 0
M  V30 30 C -10.0291 -5.2741 0.0 0
M  V30 31 C -9.9937 -2.8317 0.0 0
M  V30 32 C -10.9022 -4.0352 0.0 0
M  V30 33 C -10.442 -1.3804 0.0 0
M  V30 34 N -9.4273 -0.2713 0.0 0
M  V30 35 C -9.8757 1.1798 0.0 0
M  V30 36 C -8.861 2.289 0.0 0
M  V30 37 S -9.3093 3.7402 0.0 0
M  V30 38 O -10.7606 3.3155 0.0 0
M  V30 39 O -7.8817 4.1886 0.0 0
M  V30 40 C -9.7577 5.1915 0.0 0
M  V30 END ATOM
M  V30 BEGIN BOND
M  V30 1 1 1 2
M  V30 2 2 2 3
M  V30 3 1 2 4
M  V30 4 1 3 5
M  V30 5 1 3 6
M  V30 6 2 4 7
M  V30 7 1 5 8
M  V30 8 2 6 9
M  V30 9 1 7 10
M  V30 10 1 8 11
M  V30 11 1 10 12
M  V30 12 2 11 13
M  V30 13 1 11 14
M  V30 14 2 12 15
M  V30 15 1 12 16
M  V30 16 1 13 17
M  V30 17 2 14 18
M  V30 18 1 15 19
M  V30 19 1 16 20
M  V30 20 2 16 21
M  V30 21 1 17 22
M  V30 22 2 17 23
M  V30 23 2 19 24
M  V30 24 2 20 25
M  V30 25 1 21 26
M  V30 26 1 25 27
M  V30 27 1 26 28
M  V30 28 1 28 29
M  V30 29 2 28 30
M  V30 30 1 29 31
M  V30 31 1 30 32
M  V30 32 1 31 33
M  V30 33 1 33 34
M  V30 34 1 34 35
M  V30 35 1 35 36
M  V30 36 1 36 37
M  V30 37 2 37 38
M  V30 38 2 37 39
M  V30 39 1 37 40
M  V30 40 1 7 9
M  V30 41 1 18 23
M  V30 42 1 20 24
M  V30 43 2 26 27
M  V30 44 2 31 32
M  V30 END BOND
M  V30 END CTAB
M  END
>  <Compound ID>
37

>  <Name>
lapatinib

>  <Uniprot>
P00533

>  <Target>
EGFR

>  <Smiles>
CS(=O)(=O)CCNCC1=CC=C(C2=CC=C3N=CN=C(NC4=CC=C(OCC5=CC=CC(F)=C5)C(Cl)=C4)C3=C2)O1

>  <Kd (nM)>
2.4

>  <Assay (Kd)>
Kd was assessed by competition binding assays

>  <Ki (nM)>


>  <Assay (Ki)>


>  <IC50 (nM)>


>  <Assay (IC50)>


>  <EC50 (nM)>


>  <Assay (EC50)>


>  <Article DOI>
10.1038/nbt.1990

>  <Molecular Weight>
581.069

>  <Exact Mass>
580.134732212

>  <XLogP3>
5.12

>  <Heavy Atom Count>
40

>  <Ring Count>
5

>  <Hydrogen Bond Acceptor Count>
8

>  <Hydrogen Bond Donor Count>
2

>  <Rotatable Bond Count>
11

>  <Topological Polar Surface Area>
106.35

>  <Molecular Formula>
C29H26ClFN4O4S

>  <InChI>
InChI=1S/C29H26ClFN4O4S/c1-40(36,37)12-11-32-16-23-7-10-27(39-23)20-5-8-26-24(14-20)29(34-18-33-26)35-22-6-9-28(25(30)15-22)38-17-19-3-2-4-21(31)13-19/h2-10,13-15,18,32H,11-12,16-17H2,1H3,(H,33,34,35)

>  <InChI Key>
BCFGMOOMADDAQU-UHFFFAOYSA-N

>  <BindingDB>
5445

>  <PubChem>
208908

>  <ChEMBL>
CHEMBL554

$$$$
Compound 69
Actelion Java MolfileCreator 2.0

  0  0  0  0  0  0              0 V3000
M  V30 BEGIN CTAB
M  V30 COUNTS 40 44 0 0 0
M  V30 BEGIN ATOM
M  V30 1 Cl 0.0 0.0 0.0 0
M  V30 2 C -0.2005 -1.4748 0.0 0
M  V30 3 C 0.9793 -2.3715 0.0 0
M  V30 4 C -1.5928 -2.0412 0.0 0
M  V30 5 O 2.3479 -1.7816 0.0 0
M  V30 6 C 0.7787 -3.8464 0.0 0
M  V30 7 C -1.7934 -3.516 0.0 0
M  V30 8 C 3.5278 -2.6783 0.0 0
M  V30 9 C -0.6135 -4.4128 0.0 0
M  V30 10 N -3.1857 -4.0824 0.0 0
M  V30 11 C 4.8965 -2.0884 0.0 0
M  V30 12 C -3.3863 -5.5573 0.0 0
M  V30 13 C 5.0735 -0.5899 0.0 0
M  V30 14 C 6.0764 -2.9851 0.0 0
M  V30 15 N -2.2064 -6.454 0.0 0
M  V30 16 C -4.7785 -6.1236 0.0 0
M  V30 17 C 6.4422 0.0 0.0 0
M  V30 18 C 7.4451 -2.3951 0.0 0
M  V30 19 C -2.4069 -7.9289 0.0 0
M  V30 20 C -4.9791 -7.5985 0.0 0
M  V30 21 C -5.982 -5.2033 0.0 0
M  V30 22 F 6.6192 1.4984 0.0 0
M  V30 23 C 7.6221 -0.8967 0.0 0
M  V30 24 N -3.7992 -8.4952 0.0 0
M  V30 25 C -6.3714 -8.1648 0.0 0
M  V30 26 C -7.3743 -5.7696 0.0 0
M  V30 27 C -7.5749 -7.2445 0.0 0
M  V30 28 C -8.5778 -4.8493 0.0 0
M  V30 29 O -8.566 -3.3391 0.0 0
M  V30 30 C -10.0291 -5.2741 0.0 0
M  V30 31 C -9.9937 -2.8317 0.0 0
M  V30 32 C -10.9022 -4.0352 0.0 0
M  V30 33 C -10.442 -1.3804 0.0 0
M  V30 34 N -9.4273 -0.2713 0.0 0
M  V30 35 C -9.8757 1.1798 0.0 0
M  V30 36 C -8.861 2.289 0.0 0
M  V30 37 S -9.3093 3.7402 0.0 0
M  V30 38 O -10.7606 3.3155 0.0 0
M  V30 39 O -7.8817 4.1886 0.0 0
M  V30 40 C -9.7577 5.1915 0.0 0
M  V30 END ATOM
M  V30 BEGIN BOND
M  V30 1 1 1 2
M  V30 2 2 2 3
M  V30 3 1 2 4
M  V30 4 1 3 5
M  V30 5 1 3 6
M  V30 6 2 4 7
M  V30 7 1 5 8
M  V30 8 2 6 9
M  V30 9 1 7 10
M  V30 10 1 8 11
M  V30 11 1 10 12
M  V30 12 2 11 13
M  V30 13 1 11 14
M  V30 14 2 12 15
M  V30 15 1 12 16
M  V30 16 1 13 17
M  V30 17 2 14 18
M  V30 18 1 15 19
M  V30 19 1 16 20
M  V30 20 2 16 21
M  V30 21 1 17 22
M  V30 22 2 17 23
M  V30 23 2 19 24
M  V30 24 2 20 25
M  V30 25 1 21 26
M  V30 26 1 25 27
M  V30 27 1 26 28
M  V30 28 1 28 29
M  V30 29 2 28 30
M  V30 30 1 29 31
M  V30 31 1 30 32
M  V30 32 1 31 33
M  V30 33 1 33 34
M  V30 34 1 34 35
M  V30 35 1 35 36
M  V30 36 1 36 37
M  V30 37 2 37 38
M  V30 38 2 37 39
M  V30 39 1 37 40
M  V30 40 1 7 9
M  V30 41 1 18 23
M  V30 42 1 20 24
M  V30 43 2 26 27
M  V30 44 2 31 32
M  V30 END BOND
M  V30 END CTAB
M  END
>  <Compound ID>
37

>  <Name>
lapatinib

>  <Uniprot>
P04626

>  <Target>
HER2

>  <Smiles>
CS(=O)(=O)CCNCC1=CC=C(C2=CC=C3N=CN=C(NC4=CC=C(OCC5=CC=CC(F)=C5)C(Cl)=C4)C3=C2)O1

>  <Kd (nM)>
7

>  <Assay (Kd)>
Kd was assessed by competition binding assays

>  <Ki (nM)>


>  <Assay (Ki)>


>  <IC50 (nM)>


>  <Assay (IC50)>


>  <EC50 (nM)>


>  <Assay (EC50)>


>  <Article DOI>
10.1038/nbt.1990

>  <Molecular Weight>
581.069

>  <Exact Mass>
580.134732212

>  <XLogP3>
5.12

>  <Heavy Atom Count>
40

>  <Ring Count>
5

>  <Hydrogen Bond Acceptor Count>
8

>  <Hydrogen Bond Donor Count>
2

>  <Rotatable Bond Count>
11

>  <Topological Polar Surface Area>
106.35

>  <Molecular Formula>
C29H26ClFN4O4S

>  <InChI>
InChI=1S/C29H26ClFN4O4S/c1-40(36,37)12-11-32-16-23-7-10-27(39-23)20-5-8-26-24(14-20)29(34-18-33-26)35-22-6-9-28(25(30)15-22)38-17-19-3-2-4-21(31)13-19/h2-10,13-15,18,32H,11-12,16-17H2,1H3,(H,33,34,35)

>  <InChI Key>
BCFGMOOMADDAQU-UHFFFAOYSA-N

>  <BindingDB>
5445

>  <PubChem>
208908

>  <ChEMBL>
CHEMBL554

$$$$
Compound 70
Actelion Java MolfileCreator 2.0

  0  0  0  0  0  0              0 V3000
M  V30 BEGIN CTAB
M  V30 COUNTS 31 34 0 0 0
M  V30 BEGIN ATOM
M  V30 1 Cl 0.0 0.0 0.0 0
M  V30 2 C 0.2778 -1.4588 0.0 0
M  V30 3 C 1.6904 -1.9336 0.0 0
M  V30 4 C -0.8568 -2.4314 0.0 0
M  V30 5 F 2.802 -0.9378 0.0 0
M  V30 6 C 1.9683 -3.3925 0.0 0
M  V30 7 C -0.5789 -3.8903 0.0 0
M  V30 8 C 0.8336 -4.3651 0.0 0
M  V30 9 N -1.7136 -4.8629 0.0 0
M  V30 10 C -1.4357 -6.3218 0.0 0
M  V30 11 N -0.0231 -6.7965 0.0 0
M  V30 12 C -2.5704 -7.2944 0.0 0
M  V30 13 C 0.2547 -8.2554 0.0 0
M  V30 14 C -2.2925 -8.7533 0.0 0
M  V30 15 C -4.0061 -6.7965 0.0 0
M  V30 16 N -0.8799 -9.228 0.0 0
M  V30 17 C -3.4272 -9.7259 0.0 0
M  V30 18 C -5.1408 -7.7691 0.0 0
M  V30 19 C -4.8629 -9.228 0.0 0
M  V30 20 O -6.5765 -7.2713 0.0 0
M  V30 21 O -5.9976 -10.2006 0.0 0
M  V30 22 C -6.8776 -5.7892 0.0 0
M  V30 23 C -7.4334 -9.7027 0.0 0
M  V30 24 C -8.3133 -5.2913 0.0 0
M  V30 25 C -8.6144 -3.8093 0.0 0
M  V30 26 N -10.0501 -3.3114 0.0 0
M  V30 27 C -10.3511 -1.8294 0.0 0
M  V30 28 C -11.1848 -4.284 0.0 0
M  V30 29 C -11.7869 -1.3315 0.0 0
M  V30 30 C -12.6205 -3.7861 0.0 0
M  V30 31 O -12.9216 -2.3041 0.0 0
M  V30 END ATOM
M  V30 BEGIN BOND
M  V30 1 1 1 2
M  V30 2 2 2 3
M  V30 3 1 2 4
M  V30 4 1 3 5
M  V30 5 1 3 6
M  V30 6 2 4 7
M  V30 7 2 6 8
M  V30 8 1 7 9
M  V30 9 1 9 10
M  V30 10 2 10 11
M  V30 11 1 10 12
M  V30 12 1 11 13
M  V30 13 1 12 14
M  V30 14 2 12 15
M  V30 15 2 13 16
M  V30 16 2 14 17
M  V30 17 1 15 18
M  V30 18 1 17 19
M  V30 19 1 18 20
M  V30 20 1 19 21
M  V30 21 1 20 22
M  V30 22 1 21 23
M  V30 23 1 22 24
M  V30 24 1 24 25
M  V30 25 1 25 26
M  V30 26 1 26 27
M  V30 27 1 26 28
M  V30 28 1 27 29
M  V30 29 1 28 30
M  V30 30 1 29 31
M  V30 31 1 7 8
M  V30 32 1 14 16
M  V30 33 2 18 19
M  V30 34 1 30 31
M  V30 END BOND
M  V30 END CTAB
M  END
>  <Compound ID>
38

>  <Name>
gefitinib

>  <Uniprot>
P00533

>  <Target>
EGFR L858R

>  <Smiles>
COC1=CC2=NC=NC(NC3=CC=C(F)C(Cl)=C3)=C2C=C1OCCCN1CCOCC1

>  <Kd (nM)>
0.8

>  <Assay (Kd)>
Competition binding assays

>  <Ki (nM)>


>  <Assay (Ki)>


>  <IC50 (nM)>


>  <Assay (IC50)>


>  <EC50 (nM)>


>  <Assay (EC50)>


>  <Article DOI>
10.1021/acs.jmedchem.9b01566

>  <Molecular Weight>
446.91

>  <Exact Mass>
446.152096528

>  <XLogP3>
4.11

>  <Heavy Atom Count>
31

>  <Ring Count>
4

>  <Hydrogen Bond Acceptor Count>
7

>  <Hydrogen Bond Donor Count>
1

>  <Rotatable Bond Count>
8

>  <Topological Polar Surface Area>
68.74

>  <Molecular Formula>
C22H24ClFN4O3

>  <InChI>
InChI=1S/C22H24ClFN4O3/c1-29-20-13-19-16(12-21(20)31-8-2-5-28-6-9-30-10-7-28)22(26-14-25-19)27-15-3-4-18(24)17(23)11-15/h3-4,11-14H,2,5-10H2,1H3,(H,25,26,27)

>  <InChI Key>
XGALLCVXEZPNRQ-UHFFFAOYSA-N

>  <BindingDB>
5447

>  <PubChem>
123631

>  <ChEMBL>
CHEMBL939

$$$$
Compound 71
Actelion Java MolfileCreator 2.0

  0  0  0  0  0  0              0 V3000
M  V30 BEGIN CTAB
M  V30 COUNTS 31 34 0 0 0
M  V30 BEGIN ATOM
M  V30 1 Cl 0.0 0.0 0.0 0
M  V30 2 C 0.2778 -1.4588 0.0 0
M  V30 3 C 1.6904 -1.9336 0.0 0
M  V30 4 C -0.8568 -2.4314 0.0 0
M  V30 5 F 2.802 -0.9378 0.0 0
M  V30 6 C 1.9683 -3.3925 0.0 0
M  V30 7 C -0.5789 -3.8903 0.0 0
M  V30 8 C 0.8336 -4.3651 0.0 0
M  V30 9 N -1.7136 -4.8629 0.0 0
M  V30 10 C -1.4357 -6.3218 0.0 0
M  V30 11 N -0.0231 -6.7965 0.0 0
M  V30 12 C -2.5704 -7.2944 0.0 0
M  V30 13 C 0.2547 -8.2554 0.0 0
M  V30 14 C -2.2925 -8.7533 0.0 0
M  V30 15 C -4.0061 -6.7965 0.0 0
M  V30 16 N -0.8799 -9.228 0.0 0
M  V30 17 C -3.4272 -9.7259 0.0 0
M  V30 18 C -5.1408 -7.7691 0.0 0
M  V30 19 C -4.8629 -9.228 0.0 0
M  V30 20 O -6.5765 -7.2713 0.0 0
M  V30 21 O -5.9976 -10.2006 0.0 0
M  V30 22 C -6.8776 -5.7892 0.0 0
M  V30 23 C -7.4334 -9.7027 0.0 0
M  V30 24 C -8.3133 -5.2913 0.0 0
M  V30 25 C -8.6144 -3.8093 0.0 0
M  V30 26 N -10.0501 -3.3114 0.0 0
M  V30 27 C -10.3511 -1.8294 0.0 0
M  V30 28 C -11.1848 -4.284 0.0 0
M  V30 29 C -11.7869 -1.3315 0.0 0
M  V30 30 C -12.6205 -3.7861 0.0 0
M  V30 31 O -12.9216 -2.3041 0.0 0
M  V30 END ATOM
M  V30 BEGIN BOND
M  V30 1 1 1 2
M  V30 2 2 2 3
M  V30 3 1 2 4
M  V30 4 1 3 5
M  V30 5 1 3 6
M  V30 6 2 4 7
M  V30 7 2 6 8
M  V30 8 1 7 9
M  V30 9 1 9 10
M  V30 10 2 10 11
M  V30 11 1 10 12
M  V30 12 1 11 13
M  V30 13 1 12 14
M  V30 14 2 12 15
M  V30 15 2 13 16
M  V30 16 2 14 17
M  V30 17 1 15 18
M  V30 18 1 17 19
M  V30 19 1 18 20
M  V30 20 1 19 21
M  V30 21 1 20 22
M  V30 22 1 21 23
M  V30 23 1 22 24
M  V30 24 1 24 25
M  V30 25 1 25 26
M  V30 26 1 26 27
M  V30 27 1 26 28
M  V30 28 1 27 29
M  V30 29 1 28 30
M  V30 30 1 29 31
M  V30 31 1 7 8
M  V30 32 1 14 16
M  V30 33 2 18 19
M  V30 34 1 30 31
M  V30 END BOND
M  V30 END CTAB
M  END
>  <Compound ID>
38

>  <Name>
gefitinib

>  <Uniprot>
P00533

>  <Target>
EGFR

>  <Smiles>
COC1=CC2=NC=NC(NC3=CC=C(F)C(Cl)=C3)=C2C=C1OCCCN1CCOCC1

>  <Kd (nM)>
1

>  <Assay (Kd)>
Kd was assessed by competition binding assays

>  <Ki (nM)>


>  <Assay (Ki)>


>  <IC50 (nM)>


>  <Assay (IC50)>


>  <EC50 (nM)>


>  <Assay (EC50)>


>  <Article DOI>
10.1038/nbt.1990

>  <Molecular Weight>
446.91

>  <Exact Mass>
446.152096528

>  <XLogP3>
4.11

>  <Heavy Atom Count>
31

>  <Ring Count>
4

>  <Hydrogen Bond Acceptor Count>
7

>  <Hydrogen Bond Donor Count>
1

>  <Rotatable Bond Count>
8

>  <Topological Polar Surface Area>
68.74

>  <Molecular Formula>
C22H24ClFN4O3

>  <InChI>
InChI=1S/C22H24ClFN4O3/c1-29-20-13-19-16(12-21(20)31-8-2-5-28-6-9-30-10-7-28)22(26-14-25-19)27-15-3-4-18(24)17(23)11-15/h3-4,11-14H,2,5-10H2,1H3,(H,25,26,27)

>  <InChI Key>
XGALLCVXEZPNRQ-UHFFFAOYSA-N

>  <BindingDB>
5447

>  <PubChem>
123631

>  <ChEMBL>
CHEMBL939

$$$$
Compound 72
Actelion Java MolfileCreator 2.0

  0  0  0  0  0  0              0 V3000
M  V30 BEGIN CTAB
M  V30 COUNTS 34 37 0 0 0
M  V30 BEGIN ATOM
M  V30 1 Cl 0.0 0.0 0.0 0
M  V30 2 C -0.9498 -1.1492 0.0 0
M  V30 3 C -0.4338 -2.5329 0.0 0
M  V30 4 C -2.4391 -0.9029 0.0 0
M  V30 5 F 1.0319 -2.7557 0.0 0
M  V30 6 C -1.3837 -3.6822 0.0 0
M  V30 7 C -3.389 -2.0521 0.0 0
M  V30 8 C -2.873 -3.4359 0.0 0
M  V30 9 N -4.8783 -1.8059 0.0 0
M  V30 10 C -5.4177 -0.3987 0.0 0
M  V30 11 N -4.4913 0.7739 0.0 0
M  V30 12 C -6.907 -0.1524 0.0 0
M  V30 13 C -5.0307 2.1811 0.0 0
M  V30 14 C -7.4464 1.2547 0.0 0
M  V30 15 C -7.8569 -1.3016 0.0 0
M  V30 16 N -6.52 2.4274 0.0 0
M  V30 17 C -8.9357 1.501 0.0 0
M  V30 18 C -9.3462 -1.0554 0.0 0
M  V30 19 C -9.8856 0.3518 0.0 0
M  V30 20 N -10.296 -2.2046 0.0 0
M  V30 21 O -11.3749 0.598 0.0 0
M  V30 22 C -11.7853 -1.9583 0.0 0
M  V30 23 C -11.9143 2.0052 0.0 0 CFG=2
M  V30 24 O -12.3248 -0.5511 0.0 0
M  V30 25 C -12.7352 -3.1075 0.0 0
M  V30 26 C -11.1169 3.2717 0.0 0
M  V30 27 C -13.3685 2.4039 0.0 0
M  V30 28 C -14.2245 -2.8613 0.0 0
M  V30 29 O -12.0668 4.4444 0.0 0
M  V30 30 C -13.4505 3.905 0.0 0
M  V30 31 C -15.1744 -4.0105 0.0 0
M  V30 32 N -16.6637 -3.7642 0.0 0
M  V30 33 C -17.6135 -4.9135 0.0 0
M  V30 34 C -17.2031 -2.357 0.0 0
M  V30 END ATOM
M  V30 BEGIN BOND
M  V30 1 1 1 2
M  V30 2 2 2 3
M  V30 3 1 2 4
M  V30 4 1 3 5
M  V30 5 1 3 6
M  V30 6 2 4 7
M  V30 7 2 6 8
M  V30 8 1 7 9
M  V30 9 1 9 10
M  V30 10 2 10 11
M  V30 11 1 10 12
M  V30 12 1 11 13
M  V30 13 1 12 14
M  V30 14 2 12 15
M  V30 15 2 13 16
M  V30 16 2 14 17
M  V30 17 1 15 18
M  V30 18 1 17 19
M  V30 19 1 18 20
M  V30 20 1 19 21
M  V30 21 1 20 22
M  V30 22 1 23 21 CFG=1
M  V30 23 2 22 24
M  V30 24 1 22 25
M  V30 25 1 23 26
M  V30 26 1 23 27
M  V30 27 2 25 28
M  V30 28 1 26 29
M  V30 29 1 27 30
M  V30 30 1 28 31
M  V30 31 1 31 32
M  V30 32 1 32 33
M  V30 33 1 32 34
M  V30 34 1 7 8
M  V30 35 1 14 16
M  V30 36 2 18 19
M  V30 37 1 29 30
M  V30 END BOND
M  V30 BEGIN COLLECTION
M  V30 MDLV30/STEABS ATOMS=(1 23)
M  V30 END COLLECTION
M  V30 END CTAB
M  END
>  <Compound ID>
39

>  <Name>
afatinib

>  <Uniprot>
P00533

>  <Target>
EGFR

>  <Smiles>
CN(C)C/C=C/C(=O)NC1=CC2=C(NC3=CC=C(F)C(Cl)=C3)N=CN=C2C=C1O[C@H]1CCOC1

>  <Kd (nM)>
1.1

>  <Assay (Kd)>
Kd for EGFR(L858R,T790M) was assessed by competition binding assays

>  <Ki (nM)>


>  <Assay (Ki)>


>  <IC50 (nM)>


>  <Assay (IC50)>


>  <EC50 (nM)>


>  <Assay (EC50)>


>  <Article DOI>
10.1038/nbt.1990

>  <Molecular Weight>
485.947

>  <Exact Mass>
485.16299556

>  <XLogP3>
3.64

>  <Heavy Atom Count>
34

>  <Ring Count>
4

>  <Hydrogen Bond Acceptor Count>
7

>  <Hydrogen Bond Donor Count>
2

>  <Rotatable Bond Count>
8

>  <Topological Polar Surface Area>
88.61

>  <Molecular Formula>
C24H25ClFN5O3

>  <InChI>
InChI=1S/C24H25ClFN5O3/c1-31(2)8-3-4-23(32)30-21-11-17-20(12-22(21)34-16-7-9-33-13-16)27-14-28-24(17)29-15-5-6-19(26)18(25)10-15/h3-6,10-12,14,16H,7-9,13H2,1-2H3,(H,30,32)(H,27,28,29)/b4-3+/t16-/m0/s1

>  <InChI Key>
ULXXDDBFHOBEHA-CWDCEQMOSA-N

>  <BindingDB>
50322823

>  <PubChem>
10184653

>  <ChEMBL>
CHEMBL1173655

$$$$
Compound 73
Actelion Java MolfileCreator 2.0

  0  0  0  0  0  0              0 V3000
M  V30 BEGIN CTAB
M  V30 COUNTS 46 51 0 0 0
M  V30 BEGIN ATOM
M  V30 1 F 0.0 0.0 0.0 0
M  V30 2 C -0.8617 1.2512 0.0 0
M  V30 3 C -0.2242 2.6205 0.0 0
M  V30 4 C -2.3726 1.1568 0.0 0
M  V30 5 O 1.263 2.7385 0.0 0
M  V30 6 C -1.0859 3.8717 0.0 0
M  V30 7 C -3.2343 2.408 0.0 0
M  V30 8 C 2.1011 1.5109 0.0 0
M  V30 9 C -2.5969 3.7773 0.0 0
M  V30 10 N -4.7452 2.3136 0.0 0
M  V30 11 C 3.5884 1.6289 0.0 0
M  V30 12 C 1.4401 0.1652 0.0 0
M  V30 13 C -5.6069 3.5648 0.0 0
M  V30 14 C 4.4265 0.4013 0.0 0
M  V30 15 C 4.2258 2.9982 0.0 0
M  V30 16 C 2.2781 -1.0623 0.0 0
M  V30 17 O -4.9695 4.9341 0.0 0
M  V30 18 C -7.1178 3.4704 0.0 0
M  V30 19 N 3.7655 -0.9443 0.0 0
M  V30 20 C 5.9138 0.5193 0.0 0
M  V30 21 C 5.7131 3.1162 0.0 0
M  V30 22 C -7.2831 1.983 0.0 0
M  V30 23 C -8.5816 3.8953 0.0 0
M  V30 24 C -7.4956 4.9341 0.0 0
M  V30 25 C 6.5512 1.8886 0.0 0
M  V30 26 O 6.3506 4.4855 0.0 0
M  V30 27 O -6.0791 1.1213 0.0 0
M  V30 28 N -8.6642 1.381 0.0 0
M  V30 29 O 8.0386 2.0067 0.0 0
M  V30 30 C 7.8379 4.6036 0.0 0
M  V30 31 C -8.8294 -0.1062 0.0 0
M  V30 32 C 8.8767 0.779 0.0 0
M  V30 33 C -10.2105 -0.7082 0.0 0
M  V30 34 C -7.6254 -0.9679 0.0 0
M  V30 35 C 10.364 0.8971 0.0 0
M  V30 36 C -10.3758 -2.1955 0.0 0
M  V30 37 C -7.7907 -2.4552 0.0 0
M  V30 38 C 11.2021 -0.3305 0.0 0
M  V30 39 C -9.1718 -3.0572 0.0 0
M  V30 40 N 12.6894 -0.2124 0.0 0
M  V30 41 F -9.337 -4.5445 0.0 0
M  V30 42 C 13.5275 -1.4401 0.0 0
M  V30 43 C 13.3268 1.1568 0.0 0
M  V30 44 C 15.0148 -1.322 0.0 0
M  V30 45 C 14.8141 1.2748 0.0 0
M  V30 46 O 15.6522 0.0472 0.0 0
M  V30 END ATOM
M  V30 BEGIN BOND
M  V30 1 1 1 2
M  V30 2 2 2 3
M  V30 3 1 2 4
M  V30 4 1 3 5
M  V30 5 1 3 6
M  V30 6 2 4 7
M  V30 7 1 5 8
M  V30 8 2 6 9
M  V30 9 1 7 10
M  V30 10 1 8 11
M  V30 11 2 8 12
M  V30 12 1 10 13
M  V30 13 1 11 14
M  V30 14 2 11 15
M  V30 15 1 12 16
M  V30 16 2 13 17
M  V30 17 1 13 18
M  V30 18 1 14 19
M  V30 19 2 14 20
M  V30 20 1 15 21
M  V30 21 1 18 22
M  V30 22 1 18 23
M  V30 23 1 18 24
M  V30 24 1 20 25
M  V30 25 1 21 26
M  V30 26 2 22 27
M  V30 27 1 22 28
M  V30 28 1 25 29
M  V30 29 1 26 30
M  V30 30 1 28 31
M  V30 31 1 29 32
M  V30 32 2 31 33
M  V30 33 1 31 34
M  V30 34 1 32 35
M  V30 35 1 33 36
M  V30 36 2 34 37
M  V30 37 1 35 38
M  V30 38 2 36 39
M  V30 39 1 38 40
M  V30 40 1 39 41
M  V30 41 1 40 42
M  V30 42 1 40 43
M  V30 43 1 42 44
M  V30 44 1 43 45
M  V30 45 1 44 46
M  V30 46 1 7 9
M  V30 47 2 16 19
M  V30 48 2 21 25
M  V30 49 1 23 24
M  V30 50 1 37 39
M  V30 51 1 45 46
M  V30 END BOND
M  V30 END CTAB
M  END
>  <Compound ID>
40

>  <Name>
foretinib

>  <Uniprot>
P08581

>  <Target>
c-Met

>  <Smiles>
COC1=CC2=C(OC3=CC=C(NC(=O)C4(C(=O)NC5=CC=C(F)C=C5)CC4)C=C3F)C=CN=C2C=C1OCCCN1CCOCC1

>  <Kd (nM)>
1.7

>  <Assay (Kd)>
Competition binding assays

>  <Ki (nM)>


>  <Assay (Ki)>


>  <IC50 (nM)>


>  <Assay (IC50)>


>  <EC50 (nM)>


>  <Assay (EC50)>


>  <Article DOI>
10.1016/j.chembiol.2017.09.010

>  <Molecular Weight>
632.664

>  <Exact Mass>
632.244641248

>  <XLogP3>
5.51

>  <Heavy Atom Count>
46

>  <Ring Count>
6

>  <Hydrogen Bond Acceptor Count>
8

>  <Hydrogen Bond Donor Count>
2

>  <Rotatable Bond Count>
12

>  <Topological Polar Surface Area>
111.25

>  <Molecular Formula>
C34H34F2N4O6

>  <InChI>
InChI=1S/C34H34F2N4O6/c1-43-30-20-25-27(21-31(30)45-16-2-13-40-14-17-44-18-15-40)37-12-9-28(25)46-29-8-7-24(19-26(29)36)39-33(42)34(10-11-34)32(41)38-23-5-3-22(35)4-6-23/h3-9,12,19-21H,2,10-11,13-18H2,1H3,(H,38,41)(H,39,42)

>  <InChI Key>
CXQHYVUVSFXTMY-UHFFFAOYSA-N

>  <BindingDB>
50399540

>  <PubChem>
42642645

>  <ChEMBL>
CHEMBL1230609

$$$$
Compound 74
Actelion Java MolfileCreator 2.0

  0  0  0  0  0  0              0 V3000
M  V30 BEGIN CTAB
M  V30 COUNTS 46 51 0 0 0
M  V30 BEGIN ATOM
M  V30 1 F 0.0 0.0 0.0 0
M  V30 2 C -0.8617 1.2512 0.0 0
M  V30 3 C -0.2242 2.6205 0.0 0
M  V30 4 C -2.3726 1.1568 0.0 0
M  V30 5 O 1.263 2.7385 0.0 0
M  V30 6 C -1.0859 3.8717 0.0 0
M  V30 7 C -3.2343 2.408 0.0 0
M  V30 8 C 2.1011 1.5109 0.0 0
M  V30 9 C -2.5969 3.7773 0.0 0
M  V30 10 N -4.7452 2.3136 0.0 0
M  V30 11 C 3.5884 1.6289 0.0 0
M  V30 12 C 1.4401 0.1652 0.0 0
M  V30 13 C -5.6069 3.5648 0.0 0
M  V30 14 C 4.4265 0.4013 0.0 0
M  V30 15 C 4.2258 2.9982 0.0 0
M  V30 16 C 2.2781 -1.0623 0.0 0
M  V30 17 O -4.9695 4.9341 0.0 0
M  V30 18 C -7.1178 3.4704 0.0 0
M  V30 19 N 3.7655 -0.9443 0.0 0
M  V30 20 C 5.9138 0.5193 0.0 0
M  V30 21 C 5.7131 3.1162 0.0 0
M  V30 22 C -7.2831 1.983 0.0 0
M  V30 23 C -8.5816 3.8953 0.0 0
M  V30 24 C -7.4956 4.9341 0.0 0
M  V30 25 C 6.5512 1.8886 0.0 0
M  V30 26 O 6.3506 4.4855 0.0 0
M  V30 27 O -6.0791 1.1213 0.0 0
M  V30 28 N -8.6642 1.381 0.0 0
M  V30 29 O 8.0386 2.0067 0.0 0
M  V30 30 C 7.8379 4.6036 0.0 0
M  V30 31 C -8.8294 -0.1062 0.0 0
M  V30 32 C 8.8767 0.779 0.0 0
M  V30 33 C -10.2105 -0.7082 0.0 0
M  V30 34 C -7.6254 -0.9679 0.0 0
M  V30 35 C 10.364 0.8971 0.0 0
M  V30 36 C -10.3758 -2.1955 0.0 0
M  V30 37 C -7.7907 -2.4552 0.0 0
M  V30 38 C 11.2021 -0.3305 0.0 0
M  V30 39 C -9.1718 -3.0572 0.0 0
M  V30 40 N 12.6894 -0.2124 0.0 0
M  V30 41 F -9.337 -4.5445 0.0 0
M  V30 42 C 13.5275 -1.4401 0.0 0
M  V30 43 C 13.3268 1.1568 0.0 0
M  V30 44 C 15.0148 -1.322 0.0 0
M  V30 45 C 14.8141 1.2748 0.0 0
M  V30 46 O 15.6522 0.0472 0.0 0
M  V30 END ATOM
M  V30 BEGIN BOND
M  V30 1 1 1 2
M  V30 2 2 2 3
M  V30 3 1 2 4
M  V30 4 1 3 5
M  V30 5 1 3 6
M  V30 6 2 4 7
M  V30 7 1 5 8
M  V30 8 2 6 9
M  V30 9 1 7 10
M  V30 10 1 8 11
M  V30 11 2 8 12
M  V30 12 1 10 13
M  V30 13 1 11 14
M  V30 14 2 11 15
M  V30 15 1 12 16
M  V30 16 2 13 17
M  V30 17 1 13 18
M  V30 18 1 14 19
M  V30 19 2 14 20
M  V30 20 1 15 21
M  V30 21 1 18 22
M  V30 22 1 18 23
M  V30 23 1 18 24
M  V30 24 1 20 25
M  V30 25 1 21 26
M  V30 26 2 22 27
M  V30 27 1 22 28
M  V30 28 1 25 29
M  V30 29 1 26 30
M  V30 30 1 28 31
M  V30 31 1 29 32
M  V30 32 2 31 33
M  V30 33 1 31 34
M  V30 34 1 32 35
M  V30 35 1 33 36
M  V30 36 2 34 37
M  V30 37 1 35 38
M  V30 38 2 36 39
M  V30 39 1 38 40
M  V30 40 1 39 41
M  V30 41 1 40 42
M  V30 42 1 40 43
M  V30 43 1 42 44
M  V30 44 1 43 45
M  V30 45 1 44 46
M  V30 46 1 7 9
M  V30 47 2 16 19
M  V30 48 2 21 25
M  V30 49 1 23 24
M  V30 50 1 37 39
M  V30 51 1 45 46
M  V30 END BOND
M  V30 END CTAB
M  END
>  <Compound ID>
40

>  <Name>
foretinib

>  <Uniprot>
Q12866

>  <Target>
MerTK

>  <Smiles>
COC1=CC2=C(OC3=CC=C(NC(=O)C4(C(=O)NC5=CC=C(F)C=C5)CC4)C=C3F)C=CN=C2C=C1OCCCN1CCOCC1

>  <Kd (nM)>
0.36

>  <Assay (Kd)>
Competition binding assays

>  <Ki (nM)>


>  <Assay (Ki)>


>  <IC50 (nM)>


>  <Assay (IC50)>


>  <EC50 (nM)>


>  <Assay (EC50)>


>  <Article DOI>
10.1016/j.chembiol.2017.09.010

>  <Molecular Weight>
632.664

>  <Exact Mass>
632.244641248

>  <XLogP3>
5.51

>  <Heavy Atom Count>
46

>  <Ring Count>
6

>  <Hydrogen Bond Acceptor Count>
8

>  <Hydrogen Bond Donor Count>
2

>  <Rotatable Bond Count>
12

>  <Topological Polar Surface Area>
111.25

>  <Molecular Formula>
C34H34F2N4O6

>  <InChI>
InChI=1S/C34H34F2N4O6/c1-43-30-20-25-27(21-31(30)45-16-2-13-40-14-17-44-18-15-40)37-12-9-28(25)46-29-8-7-24(19-26(29)36)39-33(42)34(10-11-34)32(41)38-23-5-3-22(35)4-6-23/h3-9,12,19-21H,2,10-11,13-18H2,1H3,(H,38,41)(H,39,42)

>  <InChI Key>
CXQHYVUVSFXTMY-UHFFFAOYSA-N

>  <BindingDB>
50399540

>  <PubChem>
42642645

>  <ChEMBL>
CHEMBL1230609

$$$$
Compound 75
Actelion Java MolfileCreator 2.0

  0  0  0  0  0  0              0 V3000
M  V30 BEGIN CTAB
M  V30 COUNTS 46 51 0 0 0
M  V30 BEGIN ATOM
M  V30 1 F 0.0 0.0 0.0 0
M  V30 2 C -0.8617 1.2512 0.0 0
M  V30 3 C -0.2242 2.6205 0.0 0
M  V30 4 C -2.3726 1.1568 0.0 0
M  V30 5 O 1.263 2.7385 0.0 0
M  V30 6 C -1.0859 3.8717 0.0 0
M  V30 7 C -3.2343 2.408 0.0 0
M  V30 8 C 2.1011 1.5109 0.0 0
M  V30 9 C -2.5969 3.7773 0.0 0
M  V30 10 N -4.7452 2.3136 0.0 0
M  V30 11 C 3.5884 1.6289 0.0 0
M  V30 12 C 1.4401 0.1652 0.0 0
M  V30 13 C -5.6069 3.5648 0.0 0
M  V30 14 C 4.4265 0.4013 0.0 0
M  V30 15 C 4.2258 2.9982 0.0 0
M  V30 16 C 2.2781 -1.0623 0.0 0
M  V30 17 O -4.9695 4.9341 0.0 0
M  V30 18 C -7.1178 3.4704 0.0 0
M  V30 19 N 3.7655 -0.9443 0.0 0
M  V30 20 C 5.9138 0.5193 0.0 0
M  V30 21 C 5.7131 3.1162 0.0 0
M  V30 22 C -7.2831 1.983 0.0 0
M  V30 23 C -8.5816 3.8953 0.0 0
M  V30 24 C -7.4956 4.9341 0.0 0
M  V30 25 C 6.5512 1.8886 0.0 0
M  V30 26 O 6.3506 4.4855 0.0 0
M  V30 27 O -6.0791 1.1213 0.0 0
M  V30 28 N -8.6642 1.381 0.0 0
M  V30 29 O 8.0386 2.0067 0.0 0
M  V30 30 C 7.8379 4.6036 0.0 0
M  V30 31 C -8.8294 -0.1062 0.0 0
M  V30 32 C 8.8767 0.779 0.0 0
M  V30 33 C -10.2105 -0.7082 0.0 0
M  V30 34 C -7.6254 -0.9679 0.0 0
M  V30 35 C 10.364 0.8971 0.0 0
M  V30 36 C -10.3758 -2.1955 0.0 0
M  V30 37 C -7.7907 -2.4552 0.0 0
M  V30 38 C 11.2021 -0.3305 0.0 0
M  V30 39 C -9.1718 -3.0572 0.0 0
M  V30 40 N 12.6894 -0.2124 0.0 0
M  V30 41 F -9.337 -4.5445 0.0 0
M  V30 42 C 13.5275 -1.4401 0.0 0
M  V30 43 C 13.3268 1.1568 0.0 0
M  V30 44 C 15.0148 -1.322 0.0 0
M  V30 45 C 14.8141 1.2748 0.0 0
M  V30 46 O 15.6522 0.0472 0.0 0
M  V30 END ATOM
M  V30 BEGIN BOND
M  V30 1 1 1 2
M  V30 2 2 2 3
M  V30 3 1 2 4
M  V30 4 1 3 5
M  V30 5 1 3 6
M  V30 6 2 4 7
M  V30 7 1 5 8
M  V30 8 2 6 9
M  V30 9 1 7 10
M  V30 10 1 8 11
M  V30 11 2 8 12
M  V30 12 1 10 13
M  V30 13 1 11 14
M  V30 14 2 11 15
M  V30 15 1 12 16
M  V30 16 2 13 17
M  V30 17 1 13 18
M  V30 18 1 14 19
M  V30 19 2 14 20
M  V30 20 1 15 21
M  V30 21 1 18 22
M  V30 22 1 18 23
M  V30 23 1 18 24
M  V30 24 1 20 25
M  V30 25 1 21 26
M  V30 26 2 22 27
M  V30 27 1 22 28
M  V30 28 1 25 29
M  V30 29 1 26 30
M  V30 30 1 28 31
M  V30 31 1 29 32
M  V30 32 2 31 33
M  V30 33 1 31 34
M  V30 34 1 32 35
M  V30 35 1 33 36
M  V30 36 2 34 37
M  V30 37 1 35 38
M  V30 38 2 36 39
M  V30 39 1 38 40
M  V30 40 1 39 41
M  V30 41 1 40 42
M  V30 42 1 40 43
M  V30 43 1 42 44
M  V30 44 1 43 45
M  V30 45 1 44 46
M  V30 46 1 7 9
M  V30 47 2 16 19
M  V30 48 2 21 25
M  V30 49 1 23 24
M  V30 50 1 37 39
M  V30 51 1 45 46
M  V30 END BOND
M  V30 END CTAB
M  END
>  <Compound ID>
40

>  <Name>
foretinib

>  <Uniprot>
Q16539

>  <Target>
p38alpha

>  <Smiles>
COC1=CC2=C(OC3=CC=C(NC(=O)C4(C(=O)NC5=CC=C(F)C=C5)CC4)C=C3F)C=CN=C2C=C1OCCCN1CCOCC1

>  <Kd (nM)>
60

>  <Assay (Kd)>
Competition binding assays

>  <Ki (nM)>


>  <Assay (Ki)>


>  <IC50 (nM)>


>  <Assay (IC50)>


>  <EC50 (nM)>


>  <Assay (EC50)>


>  <Article DOI>
10.1016/j.chembiol.2017.09.010

>  <Molecular Weight>
632.664

>  <Exact Mass>
632.244641248

>  <XLogP3>
5.51

>  <Heavy Atom Count>
46

>  <Ring Count>
6

>  <Hydrogen Bond Acceptor Count>
8

>  <Hydrogen Bond Donor Count>
2

>  <Rotatable Bond Count>
12

>  <Topological Polar Surface Area>
111.25

>  <Molecular Formula>
C34H34F2N4O6

>  <InChI>
InChI=1S/C34H34F2N4O6/c1-43-30-20-25-27(21-31(30)45-16-2-13-40-14-17-44-18-15-40)37-12-9-28(25)46-29-8-7-24(19-26(29)36)39-33(42)34(10-11-34)32(41)38-23-5-3-22(35)4-6-23/h3-9,12,19-21H,2,10-11,13-18H2,1H3,(H,38,41)(H,39,42)

>  <InChI Key>
CXQHYVUVSFXTMY-UHFFFAOYSA-N

>  <BindingDB>
50399540

>  <PubChem>
42642645

>  <ChEMBL>
CHEMBL1230609

$$$$
Compound 76
Actelion Java MolfileCreator 2.0

  0  0  0  0  0  0              0 V3000
M  V30 BEGIN CTAB
M  V30 COUNTS 46 51 0 0 0
M  V30 BEGIN ATOM
M  V30 1 F 0.0 0.0 0.0 0
M  V30 2 C -0.8617 1.2512 0.0 0
M  V30 3 C -0.2242 2.6205 0.0 0
M  V30 4 C -2.3726 1.1568 0.0 0
M  V30 5 O 1.263 2.7385 0.0 0
M  V30 6 C -1.0859 3.8717 0.0 0
M  V30 7 C -3.2343 2.408 0.0 0
M  V30 8 C 2.1011 1.5109 0.0 0
M  V30 9 C -2.5969 3.7773 0.0 0
M  V30 10 N -4.7452 2.3136 0.0 0
M  V30 11 C 3.5884 1.6289 0.0 0
M  V30 12 C 1.4401 0.1652 0.0 0
M  V30 13 C -5.6069 3.5648 0.0 0
M  V30 14 C 4.4265 0.4013 0.0 0
M  V30 15 C 4.2258 2.9982 0.0 0
M  V30 16 C 2.2781 -1.0623 0.0 0
M  V30 17 O -4.9695 4.9341 0.0 0
M  V30 18 C -7.1178 3.4704 0.0 0
M  V30 19 N 3.7655 -0.9443 0.0 0
M  V30 20 C 5.9138 0.5193 0.0 0
M  V30 21 C 5.7131 3.1162 0.0 0
M  V30 22 C -7.2831 1.983 0.0 0
M  V30 23 C -8.5816 3.8953 0.0 0
M  V30 24 C -7.4956 4.9341 0.0 0
M  V30 25 C 6.5512 1.8886 0.0 0
M  V30 26 O 6.3506 4.4855 0.0 0
M  V30 27 O -6.0791 1.1213 0.0 0
M  V30 28 N -8.6642 1.381 0.0 0
M  V30 29 O 8.0386 2.0067 0.0 0
M  V30 30 C 7.8379 4.6036 0.0 0
M  V30 31 C -8.8294 -0.1062 0.0 0
M  V30 32 C 8.8767 0.779 0.0 0
M  V30 33 C -10.2105 -0.7082 0.0 0
M  V30 34 C -7.6254 -0.9679 0.0 0
M  V30 35 C 10.364 0.8971 0.0 0
M  V30 36 C -10.3758 -2.1955 0.0 0
M  V30 37 C -7.7907 -2.4552 0.0 0
M  V30 38 C 11.2021 -0.3305 0.0 0
M  V30 39 C -9.1718 -3.0572 0.0 0
M  V30 40 N 12.6894 -0.2124 0.0 0
M  V30 41 F -9.337 -4.5445 0.0 0
M  V30 42 C 13.5275 -1.4401 0.0 0
M  V30 43 C 13.3268 1.1568 0.0 0
M  V30 44 C 15.0148 -1.322 0.0 0
M  V30 45 C 14.8141 1.2748 0.0 0
M  V30 46 O 15.6522 0.0472 0.0 0
M  V30 END ATOM
M  V30 BEGIN BOND
M  V30 1 1 1 2
M  V30 2 2 2 3
M  V30 3 1 2 4
M  V30 4 1 3 5
M  V30 5 1 3 6
M  V30 6 2 4 7
M  V30 7 1 5 8
M  V30 8 2 6 9
M  V30 9 1 7 10
M  V30 10 1 8 11
M  V30 11 2 8 12
M  V30 12 1 10 13
M  V30 13 1 11 14
M  V30 14 2 11 15
M  V30 15 1 12 16
M  V30 16 2 13 17
M  V30 17 1 13 18
M  V30 18 1 14 19
M  V30 19 2 14 20
M  V30 20 1 15 21
M  V30 21 1 18 22
M  V30 22 1 18 23
M  V30 23 1 18 24
M  V30 24 1 20 25
M  V30 25 1 21 26
M  V30 26 2 22 27
M  V30 27 1 22 28
M  V30 28 1 25 29
M  V30 29 1 26 30
M  V30 30 1 28 31
M  V30 31 1 29 32
M  V30 32 2 31 33
M  V30 33 1 31 34
M  V30 34 1 32 35
M  V30 35 1 33 36
M  V30 36 2 34 37
M  V30 37 1 35 38
M  V30 38 2 36 39
M  V30 39 1 38 40
M  V30 40 1 39 41
M  V30 41 1 40 42
M  V30 42 1 40 43
M  V30 43 1 42 44
M  V30 44 1 43 45
M  V30 45 1 44 46
M  V30 46 1 7 9
M  V30 47 2 16 19
M  V30 48 2 21 25
M  V30 49 1 23 24
M  V30 50 1 37 39
M  V30 51 1 45 46
M  V30 END BOND
M  V30 END CTAB
M  END
>  <Compound ID>
40

>  <Name>
foretinib

>  <Uniprot>
O15264

>  <Target>
p38delta

>  <Smiles>
COC1=CC2=C(OC3=CC=C(NC(=O)C4(C(=O)NC5=CC=C(F)C=C5)CC4)C=C3F)C=CN=C2C=C1OCCCN1CCOCC1

>  <Kd (nM)>
910

>  <Assay (Kd)>
Competition binding assays

>  <Ki (nM)>


>  <Assay (Ki)>


>  <IC50 (nM)>


>  <Assay (IC50)>


>  <EC50 (nM)>


>  <Assay (EC50)>


>  <Article DOI>
10.1016/j.chembiol.2017.09.010

>  <Molecular Weight>
632.664

>  <Exact Mass>
632.244641248

>  <XLogP3>
5.51

>  <Heavy Atom Count>
46

>  <Ring Count>
6

>  <Hydrogen Bond Acceptor Count>
8

>  <Hydrogen Bond Donor Count>
2

>  <Rotatable Bond Count>
12

>  <Topological Polar Surface Area>
111.25

>  <Molecular Formula>
C34H34F2N4O6

>  <InChI>
InChI=1S/C34H34F2N4O6/c1-43-30-20-25-27(21-31(30)45-16-2-13-40-14-17-44-18-15-40)37-12-9-28(25)46-29-8-7-24(19-26(29)36)39-33(42)34(10-11-34)32(41)38-23-5-3-22(35)4-6-23/h3-9,12,19-21H,2,10-11,13-18H2,1H3,(H,38,41)(H,39,42)

>  <InChI Key>
CXQHYVUVSFXTMY-UHFFFAOYSA-N

>  <BindingDB>
50399540

>  <PubChem>
42642645

>  <ChEMBL>
CHEMBL1230609

$$$$
Compound 77
Actelion Java MolfileCreator 2.0

  0  0  0  0  0  0              0 V3000
M  V30 BEGIN CTAB
M  V30 COUNTS 46 51 0 0 0
M  V30 BEGIN ATOM
M  V30 1 F 0.0 0.0 0.0 0
M  V30 2 C -0.8617 1.2512 0.0 0
M  V30 3 C -0.2242 2.6205 0.0 0
M  V30 4 C -2.3726 1.1568 0.0 0
M  V30 5 O 1.263 2.7385 0.0 0
M  V30 6 C -1.0859 3.8717 0.0 0
M  V30 7 C -3.2343 2.408 0.0 0
M  V30 8 C 2.1011 1.5109 0.0 0
M  V30 9 C -2.5969 3.7773 0.0 0
M  V30 10 N -4.7452 2.3136 0.0 0
M  V30 11 C 3.5884 1.6289 0.0 0
M  V30 12 C 1.4401 0.1652 0.0 0
M  V30 13 C -5.6069 3.5648 0.0 0
M  V30 14 C 4.4265 0.4013 0.0 0
M  V30 15 C 4.2258 2.9982 0.0 0
M  V30 16 C 2.2781 -1.0623 0.0 0
M  V30 17 O -4.9695 4.9341 0.0 0
M  V30 18 C -7.1178 3.4704 0.0 0
M  V30 19 N 3.7655 -0.9443 0.0 0
M  V30 20 C 5.9138 0.5193 0.0 0
M  V30 21 C 5.7131 3.1162 0.0 0
M  V30 22 C -7.2831 1.983 0.0 0
M  V30 23 C -8.5816 3.8953 0.0 0
M  V30 24 C -7.4956 4.9341 0.0 0
M  V30 25 C 6.5512 1.8886 0.0 0
M  V30 26 O 6.3506 4.4855 0.0 0
M  V30 27 O -6.0791 1.1213 0.0 0
M  V30 28 N -8.6642 1.381 0.0 0
M  V30 29 O 8.0386 2.0067 0.0 0
M  V30 30 C 7.8379 4.6036 0.0 0
M  V30 31 C -8.8294 -0.1062 0.0 0
M  V30 32 C 8.8767 0.779 0.0 0
M  V30 33 C -10.2105 -0.7082 0.0 0
M  V30 34 C -7.6254 -0.9679 0.0 0
M  V30 35 C 10.364 0.8971 0.0 0
M  V30 36 C -10.3758 -2.1955 0.0 0
M  V30 37 C -7.7907 -2.4552 0.0 0
M  V30 38 C 11.2021 -0.3305 0.0 0
M  V30 39 C -9.1718 -3.0572 0.0 0
M  V30 40 N 12.6894 -0.2124 0.0 0
M  V30 41 F -9.337 -4.5445 0.0 0
M  V30 42 C 13.5275 -1.4401 0.0 0
M  V30 43 C 13.3268 1.1568 0.0 0
M  V30 44 C 15.0148 -1.322 0.0 0
M  V30 45 C 14.8141 1.2748 0.0 0
M  V30 46 O 15.6522 0.0472 0.0 0
M  V30 END ATOM
M  V30 BEGIN BOND
M  V30 1 1 1 2
M  V30 2 2 2 3
M  V30 3 1 2 4
M  V30 4 1 3 5
M  V30 5 1 3 6
M  V30 6 2 4 7
M  V30 7 1 5 8
M  V30 8 2 6 9
M  V30 9 1 7 10
M  V30 10 1 8 11
M  V30 11 2 8 12
M  V30 12 1 10 13
M  V30 13 1 11 14
M  V30 14 2 11 15
M  V30 15 1 12 16
M  V30 16 2 13 17
M  V30 17 1 13 18
M  V30 18 1 14 19
M  V30 19 2 14 20
M  V30 20 1 15 21
M  V30 21 1 18 22
M  V30 22 1 18 23
M  V30 23 1 18 24
M  V30 24 1 20 25
M  V30 25 1 21 26
M  V30 26 2 22 27
M  V30 27 1 22 28
M  V30 28 1 25 29
M  V30 29 1 26 30
M  V30 30 1 28 31
M  V30 31 1 29 32
M  V30 32 2 31 33
M  V30 33 1 31 34
M  V30 34 1 32 35
M  V30 35 1 33 36
M  V30 36 2 34 37
M  V30 37 1 35 38
M  V30 38 2 36 39
M  V30 39 1 38 40
M  V30 40 1 39 41
M  V30 41 1 40 42
M  V30 42 1 40 43
M  V30 43 1 42 44
M  V30 44 1 43 45
M  V30 45 1 44 46
M  V30 46 1 7 9
M  V30 47 2 16 19
M  V30 48 2 21 25
M  V30 49 1 23 24
M  V30 50 1 37 39
M  V30 51 1 45 46
M  V30 END BOND
M  V30 END CTAB
M  END
>  <Compound ID>
40

>  <Name>
foretinib

>  <Uniprot>
O43353

>  <Target>
RIPK2

>  <Smiles>
COC1=CC2=C(OC3=CC=C(NC(=O)C4(C(=O)NC5=CC=C(F)C=C5)CC4)C=C3F)C=CN=C2C=C1OCCCN1CCOCC1

>  <Kd (nM)>
17

>  <Assay (Kd)>
Competition binding assays

>  <Ki (nM)>


>  <Assay (Ki)>


>  <IC50 (nM)>


>  <Assay (IC50)>


>  <EC50 (nM)>


>  <Assay (EC50)>


>  <Article DOI>
10.1016/j.chembiol.2017.09.010

>  <Molecular Weight>
632.664

>  <Exact Mass>
632.244641248

>  <XLogP3>
5.51

>  <Heavy Atom Count>
46

>  <Ring Count>
6

>  <Hydrogen Bond Acceptor Count>
8

>  <Hydrogen Bond Donor Count>
2

>  <Rotatable Bond Count>
12

>  <Topological Polar Surface Area>
111.25

>  <Molecular Formula>
C34H34F2N4O6

>  <InChI>
InChI=1S/C34H34F2N4O6/c1-43-30-20-25-27(21-31(30)45-16-2-13-40-14-17-44-18-15-40)37-12-9-28(25)46-29-8-7-24(19-26(29)36)39-33(42)34(10-11-34)32(41)38-23-5-3-22(35)4-6-23/h3-9,12,19-21H,2,10-11,13-18H2,1H3,(H,38,41)(H,39,42)

>  <InChI Key>
CXQHYVUVSFXTMY-UHFFFAOYSA-N

>  <BindingDB>
50399540

>  <PubChem>
42642645

>  <ChEMBL>
CHEMBL1230609

$$$$
Compound 78
Actelion Java MolfileCreator 2.0

  0  0  0  0  0  0              0 V3000
M  V30 BEGIN CTAB
M  V30 COUNTS 21 23 0 0 0
M  V30 BEGIN ATOM
M  V30 1 O 0.0 0.0 0.0 0
M  V30 2 C 0.3563 -1.4485 0.0 0
M  V30 3 C -0.7357 -2.4832 0.0 0
M  V30 4 C 1.7934 -1.8509 0.0 0
M  V30 5 C -0.3793 -3.9318 0.0 0
M  V30 6 C -2.1958 -2.0578 0.0 0
M  V30 7 C 2.1498 -3.2995 0.0 0
M  V30 8 O 1.0576 -4.3342 0.0 0
M  V30 9 C -1.4715 -4.9665 0.0 0
M  V30 10 O -2.5752 -0.5863 0.0 0
M  V30 11 C -3.288 -3.0925 0.0 0
M  V30 12 C 3.5869 -3.7018 0.0 0
M  V30 13 O -1.1151 -6.415 0.0 0
M  V30 14 C -2.9316 -4.5411 0.0 0
M  V30 15 C 3.9433 -5.1504 0.0 0
M  V30 16 C 4.6561 -2.6442 0.0 0
M  V30 17 C -2.2073 -7.4497 0.0 0
M  V30 18 O -4.0238 -5.5758 0.0 0
M  V30 19 C 5.3803 -5.5528 0.0 0
M  V30 20 C 6.0931 -3.0465 0.0 0
M  V30 21 C 6.4495 -4.4951 0.0 0
M  V30 END ATOM
M  V30 BEGIN BOND
M  V30 1 2 1 2
M  V30 2 1 2 3
M  V30 3 1 2 4
M  V30 4 2 3 5
M  V30 5 1 3 6
M  V30 6 2 4 7
M  V30 7 1 5 8
M  V30 8 1 5 9
M  V30 9 1 6 10
M  V30 10 2 6 11
M  V30 11 1 7 12
M  V30 12 1 9 13
M  V30 13 2 9 14
M  V30 14 2 12 15
M  V30 15 1 12 16
M  V30 16 1 13 17
M  V30 17 1 14 18
M  V30 18 1 15 19
M  V30 19 2 16 20
M  V30 20 2 19 21
M  V30 21 1 7 8
M  V30 22 1 11 14
M  V30 23 1 20 21
M  V30 END BOND
M  V30 END CTAB
M  END
>  <Compound ID>
41

>  <Name>
wogonin

>  <Uniprot>
P50750

>  <Target>
CDK9

>  <Smiles>
COC1=C(O)C=C(O)C2=C1OC(C1=CC=CC=C1)=CC2=O

>  <Kd (nM)>


>  <Assay (Kd)>


>  <Ki (nM)>


>  <Assay (Ki)>


>  <IC50 (nM)>
190

>  <Assay (IC50)>
IC50 of CDK9/CycT1

>  <EC50 (nM)>


>  <Assay (EC50)>


>  <Article DOI>
10.1038/cddis.2011.66

>  <Molecular Weight>
284.267

>  <Exact Mass>
284.068473484

>  <XLogP3>
3.49

>  <Heavy Atom Count>
21

>  <Ring Count>
3

>  <Hydrogen Bond Acceptor Count>
5

>  <Hydrogen Bond Donor Count>
2

>  <Rotatable Bond Count>
2

>  <Topological Polar Surface Area>
79.9

>  <Molecular Formula>
C16H12O5

>  <InChI>
InChI=1S/C16H12O5/c1-20-15-12(19)7-10(17)14-11(18)8-13(21-16(14)15)9-5-3-2-4-6-9/h2-8,17,19H,1H3

>  <InChI Key>
XLTFNNCXVBYBSX-UHFFFAOYSA-N

>  <BindingDB>
50140257

>  <PubChem>
5281703

>  <ChEMBL>
CHEMBL16171

$$$$
Compound 79
Actelion Java MolfileCreator 2.0

  0  0  0  0  0  0              0 V3000
M  V30 BEGIN CTAB
M  V30 COUNTS 23 25 0 0 0
M  V30 BEGIN ATOM
M  V30 1 Br 0.0 0.0 0.0 0
M  V30 2 C -1.4847 -0.2667 0.0 0
M  V30 3 C -2.4707 0.8815 0.0 0
M  V30 4 C -1.9951 -1.6703 0.0 0
M  V30 5 O -1.9835 2.3083 0.0 0
M  V30 6 N -3.9554 0.6147 0.0 0
M  V30 7 N -1.0323 -2.7955 0.0 0
M  V30 8 C -3.4799 -1.9371 0.0 0
M  V30 9 N -4.4658 -0.7887 0.0 0
M  V30 10 C -4.9414 1.7631 0.0 0
M  V30 11 C 0.4291 -2.5055 0.0 0 CFG=1
M  V30 12 C 1.3919 -3.6307 0.0 0
M  V30 13 C 0.9163 -1.0787 0.0 0
M  V30 14 N 2.8535 -3.3407 0.0 0
M  V30 15 C 2.3779 -0.7887 0.0 0 CFG=1
M  V30 16 C 3.3407 -1.9139 0.0 0
M  V30 17 C 3.8162 -4.4658 0.0 0
M  V30 18 C 2.8651 0.6379 0.0 0
M  V30 19 C 4.3266 0.9279 0.0 0
M  V30 20 C 1.8791 1.7863 0.0 0
M  V30 21 C 4.8138 2.3547 0.0 0
M  V30 22 C 2.3663 3.2131 0.0 0
M  V30 23 C 3.8278 3.5031 0.0 0
M  V30 END ATOM
M  V30 BEGIN BOND
M  V30 1 1 1 2
M  V30 2 1 2 3
M  V30 3 2 2 4
M  V30 4 2 3 5
M  V30 5 1 3 6
M  V30 6 1 4 7
M  V30 7 1 4 8
M  V30 8 1 6 9
M  V30 9 1 6 10
M  V30 10 1 11 7 CFG=3
M  V30 11 1 11 12
M  V30 12 1 11 13
M  V30 13 1 12 14
M  V30 14 1 13 15
M  V30 15 1 14 16
M  V30 16 1 14 17
M  V30 17 1 15 18 CFG=3
M  V30 18 2 18 19
M  V30 19 1 18 20
M  V30 20 1 19 21
M  V30 21 2 20 22
M  V30 22 2 21 23
M  V30 23 2 8 9
M  V30 24 1 15 16
M  V30 25 1 22 23
M  V30 END BOND
M  V30 BEGIN COLLECTION
M  V30 MDLV30/STEABS ATOMS=(2 11 15)
M  V30 END COLLECTION
M  V30 END CTAB
M  END
>  <Compound ID>
42

>  <Name>
GSK4027

>  <Uniprot>
Q92830

>  <Target>
GCN5

>  <Smiles>
CN1C[C@H](NC2=C(Br)C(=O)N(C)N=C2)C[C@H](C2=CC=CC=C2)C1

>  <Kd (nM)>


>  <Assay (Kd)>


>  <Ki (nM)>
1.4

>  <Assay (Ki)>
BROMOscan panel

>  <IC50 (nM)>


>  <Assay (IC50)>


>  <EC50 (nM)>


>  <Assay (EC50)>


>  <Article DOI>
10.1021/acs.jmedchem.6b01566

>  <Molecular Weight>
377.286

>  <Exact Mass>
376.089873392

>  <XLogP3>
2.55

>  <Heavy Atom Count>
23

>  <Ring Count>
3

>  <Hydrogen Bond Acceptor Count>
5

>  <Hydrogen Bond Donor Count>
1

>  <Rotatable Bond Count>
3

>  <Topological Polar Surface Area>
50.16

>  <Molecular Formula>
C17H21BrN4O

>  <InChI>
InChI=1S/C17H21BrN4O/c1-21-10-13(12-6-4-3-5-7-12)8-14(11-21)20-15-9-19-22(2)17(23)16(15)18/h3-7,9,13-14,20H,8,10-11H2,1-2H3/t13-,14+/m0/s1

>  <InChI Key>
VZAFGXCWAWRULT-UONOGXRCSA-N

>  <BindingDB>
50234923

>  <PubChem>
126961735

>  <ChEMBL>
CHEMBL4069412

$$$$
Compound 80
Actelion Java MolfileCreator 2.0

  0  0  0  0  0  0              0 V3000
M  V30 BEGIN CTAB
M  V30 COUNTS 23 25 0 0 0
M  V30 BEGIN ATOM
M  V30 1 Br 0.0 0.0 0.0 0
M  V30 2 C -1.4847 -0.2667 0.0 0
M  V30 3 C -2.4707 0.8815 0.0 0
M  V30 4 C -1.9951 -1.6703 0.0 0
M  V30 5 O -1.9835 2.3083 0.0 0
M  V30 6 N -3.9554 0.6147 0.0 0
M  V30 7 N -1.0323 -2.7955 0.0 0
M  V30 8 C -3.4799 -1.9371 0.0 0
M  V30 9 N -4.4658 -0.7887 0.0 0
M  V30 10 C -4.9414 1.7631 0.0 0
M  V30 11 C 0.4291 -2.5055 0.0 0 CFG=1
M  V30 12 C 1.3919 -3.6307 0.0 0
M  V30 13 C 0.9163 -1.0787 0.0 0
M  V30 14 N 2.8535 -3.3407 0.0 0
M  V30 15 C 2.3779 -0.7887 0.0 0 CFG=1
M  V30 16 C 3.3407 -1.9139 0.0 0
M  V30 17 C 3.8162 -4.4658 0.0 0
M  V30 18 C 2.8651 0.6379 0.0 0
M  V30 19 C 4.3266 0.9279 0.0 0
M  V30 20 C 1.8791 1.7863 0.0 0
M  V30 21 C 4.8138 2.3547 0.0 0
M  V30 22 C 2.3663 3.2131 0.0 0
M  V30 23 C 3.8278 3.5031 0.0 0
M  V30 END ATOM
M  V30 BEGIN BOND
M  V30 1 1 1 2
M  V30 2 1 2 3
M  V30 3 2 2 4
M  V30 4 2 3 5
M  V30 5 1 3 6
M  V30 6 1 4 7
M  V30 7 1 4 8
M  V30 8 1 6 9
M  V30 9 1 6 10
M  V30 10 1 11 7 CFG=3
M  V30 11 1 11 12
M  V30 12 1 11 13
M  V30 13 1 12 14
M  V30 14 1 13 15
M  V30 15 1 14 16
M  V30 16 1 14 17
M  V30 17 1 15 18 CFG=3
M  V30 18 2 18 19
M  V30 19 1 18 20
M  V30 20 1 19 21
M  V30 21 2 20 22
M  V30 22 2 21 23
M  V30 23 2 8 9
M  V30 24 1 15 16
M  V30 25 1 22 23
M  V30 END BOND
M  V30 BEGIN COLLECTION
M  V30 MDLV30/STEABS ATOMS=(2 11 15)
M  V30 END COLLECTION
M  V30 END CTAB
M  END
>  <Compound ID>
42

>  <Name>
GSK4027

>  <Uniprot>
Q92831

>  <Target>
PCAF

>  <Smiles>
CN1C[C@H](NC2=C(Br)C(=O)N(C)N=C2)C[C@H](C2=CC=CC=C2)C1

>  <Kd (nM)>


>  <Assay (Kd)>


>  <Ki (nM)>
1.4

>  <Assay (Ki)>
BROMOscan panel

>  <IC50 (nM)>


>  <Assay (IC50)>


>  <EC50 (nM)>


>  <Assay (EC50)>


>  <Article DOI>
10.1021/acs.jmedchem.6b01566

>  <Molecular Weight>
377.286

>  <Exact Mass>
376.089873392

>  <XLogP3>
2.55

>  <Heavy Atom Count>
23

>  <Ring Count>
3

>  <Hydrogen Bond Acceptor Count>
5

>  <Hydrogen Bond Donor Count>
1

>  <Rotatable Bond Count>
3

>  <Topological Polar Surface Area>
50.16

>  <Molecular Formula>
C17H21BrN4O

>  <InChI>
InChI=1S/C17H21BrN4O/c1-21-10-13(12-6-4-3-5-7-12)8-14(11-21)20-15-9-19-22(2)17(23)16(15)18/h3-7,9,13-14,20H,8,10-11H2,1-2H3/t13-,14+/m0/s1

>  <InChI Key>
VZAFGXCWAWRULT-UONOGXRCSA-N

>  <BindingDB>
50234923

>  <PubChem>
126961735

>  <ChEMBL>
CHEMBL4069412

$$$$
Compound 81
Actelion Java MolfileCreator 2.0

  0  0  0  0  0  0              0 V3000
M  V30 BEGIN CTAB
M  V30 COUNTS 23 25 0 0 0
M  V30 BEGIN ATOM
M  V30 1 Br 0.0 0.0 0.0 0
M  V30 2 C -1.4847 -0.2667 0.0 0
M  V30 3 C -2.4707 0.8815 0.0 0
M  V30 4 C -1.9951 -1.6703 0.0 0
M  V30 5 O -1.9835 2.3083 0.0 0
M  V30 6 N -3.9554 0.6147 0.0 0
M  V30 7 N -1.0323 -2.7955 0.0 0
M  V30 8 C -3.4799 -1.9371 0.0 0
M  V30 9 N -4.4658 -0.7887 0.0 0
M  V30 10 C -4.9414 1.7631 0.0 0
M  V30 11 C 0.4291 -2.5055 0.0 0 CFG=2
M  V30 12 C 1.3919 -3.6307 0.0 0
M  V30 13 C 0.9163 -1.0787 0.0 0
M  V30 14 N 2.8535 -3.3407 0.0 0
M  V30 15 C 2.3779 -0.7887 0.0 0 CFG=2
M  V30 16 C 3.3407 -1.9139 0.0 0
M  V30 17 C 3.8162 -4.4658 0.0 0
M  V30 18 C 2.8651 0.6379 0.0 0
M  V30 19 C 4.3266 0.9279 0.0 0
M  V30 20 C 1.8791 1.7863 0.0 0
M  V30 21 C 4.8138 2.3547 0.0 0
M  V30 22 C 2.3663 3.2131 0.0 0
M  V30 23 C 3.8278 3.5031 0.0 0
M  V30 END ATOM
M  V30 BEGIN BOND
M  V30 1 1 1 2
M  V30 2 1 2 3
M  V30 3 2 2 4
M  V30 4 2 3 5
M  V30 5 1 3 6
M  V30 6 1 4 7
M  V30 7 1 4 8
M  V30 8 1 6 9
M  V30 9 1 6 10
M  V30 10 1 11 7 CFG=1
M  V30 11 1 11 12
M  V30 12 1 11 13
M  V30 13 1 12 14
M  V30 14 1 13 15
M  V30 15 1 14 16
M  V30 16 1 14 17
M  V30 17 1 15 18 CFG=1
M  V30 18 2 18 19
M  V30 19 1 18 20
M  V30 20 1 19 21
M  V30 21 2 20 22
M  V30 22 2 21 23
M  V30 23 2 8 9
M  V30 24 1 15 16
M  V30 25 1 22 23
M  V30 END BOND
M  V30 BEGIN COLLECTION
M  V30 MDLV30/STEABS ATOMS=(2 11 15)
M  V30 END COLLECTION
M  V30 END CTAB
M  END
>  <Compound ID>
43

>  <Name>
GSK4028

>  <Uniprot>
Q92831

>  <Target>
PCAF

>  <Smiles>
CN1C[C@@H](NC2=C(Br)C(=O)N(C)N=C2)C[C@@H](C2=CC=CC=C2)C1

>  <Kd (nM)>


>  <Assay (Kd)>


>  <Ki (nM)>


>  <Assay (Ki)>


>  <IC50 (nM)>
12000

>  <Assay (IC50)>
IC50 of PCAF was assessed by a time resolved fluorescence resonance energy transfer assay

>  <EC50 (nM)>


>  <Assay (EC50)>


>  <Article DOI>
10.1021/acs.jmedchem.6b01566

>  <Molecular Weight>
377.286

>  <Exact Mass>
376.089873392

>  <XLogP3>
2.55

>  <Heavy Atom Count>
23

>  <Ring Count>
3

>  <Hydrogen Bond Acceptor Count>
5

>  <Hydrogen Bond Donor Count>
1

>  <Rotatable Bond Count>
3

>  <Topological Polar Surface Area>
50.16

>  <Molecular Formula>
C17H21BrN4O

>  <InChI>
InChI=1S/C17H21BrN4O/c1-21-10-13(12-6-4-3-5-7-12)8-14(11-21)20-15-9-19-22(2)17(23)16(15)18/h3-7,9,13-14,20H,8,10-11H2,1-2H3/t13-,14+/m1/s1

>  <InChI Key>
VZAFGXCWAWRULT-KGLIPLIRSA-N

>  <BindingDB>
50234927

>  <PubChem>
132941768

>  <ChEMBL>
CHEMBL4096641

$$$$
Compound 82
Actelion Java MolfileCreator 2.0

  0  0  0  0  0  0              0 V3000
M  V30 BEGIN CTAB
M  V30 COUNTS 19 21 0 0 0
M  V30 BEGIN ATOM
M  V30 1 O 0.0 0.0 0.0 0
M  V30 2 C -0.7309 1.3321 0.0 0
M  V30 3 N -2.2399 1.3793 0.0 0
M  V30 4 C 0.0353 2.6172 0.0 0 CFG=1
M  V30 5 C -2.9708 2.7115 0.0 0
M  V30 6 N 1.5208 2.5936 0.0 0
M  V30 7 C -0.6955 3.9493 0.0 0
M  V30 8 O -4.4798 2.7586 0.0 0
M  V30 9 C -2.2045 3.9965 0.0 0
M  V30 10 C 2.3578 1.3675 0.0 0
M  V30 11 C 2.4167 3.7961 0.0 0
M  V30 12 O 1.8509 -0.0353 0.0 0
M  V30 13 C 3.7843 1.8037 0.0 0
M  V30 14 O 1.9805 5.2461 0.0 0
M  V30 15 C 3.8196 3.3127 0.0 0
M  V30 16 C 5.0457 1.0374 0.0 0
M  V30 17 C 5.1283 4.0436 0.0 0
M  V30 18 C 6.3543 1.7683 0.0 0
M  V30 19 C 6.3897 3.2773 0.0 0
M  V30 END ATOM
M  V30 BEGIN BOND
M  V30 1 2 1 2
M  V30 2 1 2 3
M  V30 3 1 2 4
M  V30 4 1 3 5
M  V30 5 1 4 6 CFG=3
M  V30 6 1 4 7
M  V30 7 2 5 8
M  V30 8 1 5 9
M  V30 9 1 6 10
M  V30 10 1 6 11
M  V30 11 2 10 12
M  V30 12 1 10 13
M  V30 13 2 11 14
M  V30 14 1 11 15
M  V30 15 1 13 16
M  V30 16 1 15 17
M  V30 17 2 16 18
M  V30 18 2 17 19
M  V30 19 1 7 9
M  V30 20 2 13 15
M  V30 21 1 18 19
M  V30 END BOND
M  V30 BEGIN COLLECTION
M  V30 MDLV30/STERAC1 ATOMS=(1 4)
M  V30 END COLLECTION
M  V30 END CTAB
M  END
>  <Compound ID>
44

>  <Name>
THALIDOMIDE

>  <Uniprot>
Q96SW2

>  <Target>
CRBN

>  <Smiles>
O=C1CCC(N2C(=O)C3=CC=CC=C3C2=O)C(=O)N1

>  <Kd (nM)>
250

>  <Assay (Kd)>
FP

>  <Ki (nM)>


>  <Assay (Ki)>


>  <IC50 (nM)>


>  <Assay (IC50)>


>  <EC50 (nM)>


>  <Assay (EC50)>


>  <Article DOI>
10.1038/nature13527

>  <Molecular Weight>
258.233

>  <Exact Mass>
258.0640568

>  <XLogP3>
0.33

>  <Heavy Atom Count>
19

>  <Ring Count>
3

>  <Hydrogen Bond Acceptor Count>
4

>  <Hydrogen Bond Donor Count>
1

>  <Rotatable Bond Count>
1

>  <Topological Polar Surface Area>
83.55

>  <Molecular Formula>
C13H10N2O4

>  <InChI>
InChI=1S/C13H10N2O4/c16-10-6-5-9(11(17)14-10)15-12(18)7-3-1-2-4-8(7)13(15)19/h1-4,9H,5-6H2,(H,14,16,17)

>  <InChI Key>
UEJJHQNACJXSKW-UHFFFAOYSA-N

>  <BindingDB>
50070114

>  <PubChem>
5426

>  <ChEMBL>
CHEMBL468

$$$$
Compound 83
Actelion Java MolfileCreator 2.0

  0  0  0  0  0  0              0 V3000
M  V30 BEGIN CTAB
M  V30 COUNTS 21 23 0 0 0
M  V30 BEGIN ATOM
M  V30 1 O 0.0 0.0 0.0 0
M  V30 2 C -0.2478 1.4991 0.0 0
M  V30 3 N 0.9089 2.4552 0.0 0
M  V30 4 C -1.6643 2.0539 0.0 0
M  V30 5 C 2.3017 1.924 0.0 0
M  V30 6 C -2.8447 1.1213 0.0 0
M  V30 7 N 3.553 2.7503 0.0 0
M  V30 8 C 2.6795 0.4839 0.0 0
M  V30 9 C -4.2612 1.6761 0.0 0
M  V30 10 C -2.6205 -0.3541 0.0 0
M  V30 11 N 4.7098 1.8178 0.0 0
M  V30 12 C 4.1668 0.4131 0.0 0
M  V30 13 C -5.4416 0.7436 0.0 0
M  V30 14 C -3.8009 -1.2866 0.0 0
M  V30 15 C 4.9695 -0.838 0.0 0
M  V30 16 C -5.2174 -0.7318 0.0 0
M  V30 17 C 4.639 -2.2899 0.0 0
M  V30 18 C 6.4214 -1.1449 0.0 0
M  V30 19 O -6.3978 -1.6643 0.0 0
M  V30 20 C 6.0909 -2.5969 0.0 0
M  V30 21 C -7.8143 -1.1095 0.0 0
M  V30 END ATOM
M  V30 BEGIN BOND
M  V30 1 2 1 2
M  V30 2 1 2 3
M  V30 3 1 2 4
M  V30 4 1 3 5
M  V30 5 1 4 6
M  V30 6 2 5 7
M  V30 7 1 5 8
M  V30 8 2 6 9
M  V30 9 1 6 10
M  V30 10 1 7 11
M  V30 11 2 8 12
M  V30 12 1 9 13
M  V30 13 2 10 14
M  V30 14 1 12 15
M  V30 15 2 13 16
M  V30 16 1 15 17
M  V30 17 1 15 18
M  V30 18 1 16 19
M  V30 19 1 17 20
M  V30 20 1 19 21
M  V30 21 1 11 12
M  V30 22 1 14 16
M  V30 23 1 18 20
M  V30 END BOND
M  V30 END CTAB
M  END
>  <Compound ID>
45

>  <Name>


>  <Uniprot>
P50750

>  <Target>
CDK9

>  <Smiles>
COC1=CC=C(CC(=O)NC2=N[NH]C(C3CCC3)=C2)C=C1

>  <Kd (nM)>


>  <Assay (Kd)>


>  <Ki (nM)>


>  <Assay (Ki)>


>  <IC50 (nM)>


>  <Assay (IC50)>


>  <EC50 (nM)>


>  <Assay (EC50)>


>  <Article DOI>
10.1039/c7cc03879h

>  <Molecular Weight>
285.347

>  <Exact Mass>
285.147726848

>  <XLogP3>
2.41

>  <Heavy Atom Count>
21

>  <Ring Count>
3

>  <Hydrogen Bond Acceptor Count>
3

>  <Hydrogen Bond Donor Count>
2

>  <Rotatable Bond Count>
5

>  <Topological Polar Surface Area>
67.01

>  <Molecular Formula>
C16H19N3O2

>  <InChI>
InChI=1S/C16H19N3O2/c1-21-13-7-5-11(6-8-13)9-16(20)17-15-10-14(18-19-15)12-3-2-4-12/h5-8,10,12H,2-4,9H2,1H3,(H2,17,18,19,20)

>  <InChI Key>
PFCAHEMJANLCHH-UHFFFAOYSA-N

>  <BindingDB>


>  <PubChem>


>  <ChEMBL>


$$$$
Compound 84
Actelion Java MolfileCreator 2.0

  0  0  0  0  0  0              0 V3000
M  V30 BEGIN CTAB
M  V30 COUNTS 30 34 0 0 0
M  V30 BEGIN ATOM
M  V30 1 F 0.0 0.0 0.0 0
M  V30 2 C 1.4249 -0.4004 0.0 0
M  V30 3 F 1.7783 -1.8371 0.0 0
M  V30 4 C 2.4849 0.6477 0.0 0
M  V30 5 N 3.9452 0.4004 0.0 0
M  V30 6 N 2.2611 2.1433 0.0 0
M  V30 7 C 4.6282 1.7311 0.0 0
M  V30 8 C 0.9303 2.8499 0.0 0
M  V30 9 C 3.5919 2.8146 0.0 0
M  V30 10 C 6.065 2.108 0.0 0
M  V30 11 N 0.8597 4.3574 0.0 0
M  V30 12 N -0.3533 2.0609 0.0 0
M  V30 13 C 3.9923 4.2632 0.0 0
M  V30 14 C 6.4654 3.5566 0.0 0
M  V30 15 C -0.471 5.064 0.0 0
M  V30 16 C -1.684 2.7675 0.0 0
M  V30 17 C 5.4291 4.64 0.0 0
M  V30 18 N -1.7547 4.2749 0.0 0
M  V30 19 N -0.5417 6.5714 0.0 0
M  V30 20 N -2.9677 1.9785 0.0 0
M  V30 21 C 0.7183 7.384 0.0 0
M  V30 22 C -1.8725 7.278 0.0 0
M  V30 23 C -4.2985 2.6851 0.0 0
M  V30 24 C -2.9206 0.4946 0.0 0
M  V30 25 C 0.6477 8.8915 0.0 0
M  V30 26 C -1.9431 8.7855 0.0 0
M  V30 27 C -5.5822 1.896 0.0 0
M  V30 28 C -4.2043 -0.2944 0.0 0
M  V30 29 O -0.683 9.5981 0.0 0
M  V30 30 O -5.5351 0.4121 0.0 0
M  V30 END ATOM
M  V30 BEGIN BOND
M  V30 1 1 1 2
M  V30 2 1 2 3
M  V30 3 1 2 4
M  V30 4 2 4 5
M  V30 5 1 4 6
M  V30 6 1 5 7
M  V30 7 1 6 8
M  V30 8 1 6 9
M  V30 9 1 7 10
M  V30 10 2 8 11
M  V30 11 1 8 12
M  V30 12 1 9 13
M  V30 13 2 10 14
M  V30 14 1 11 15
M  V30 15 2 12 16
M  V30 16 2 13 17
M  V30 17 2 15 18
M  V30 18 1 15 19
M  V30 19 1 16 20
M  V30 20 1 19 21
M  V30 21 1 19 22
M  V30 22 1 20 23
M  V30 23 1 20 24
M  V30 24 1 21 25
M  V30 25 1 22 26
M  V30 26 1 23 27
M  V30 27 1 24 28
M  V30 28 1 25 29
M  V30 29 1 27 30
M  V30 30 2 7 9
M  V30 31 1 14 17
M  V30 32 1 16 18
M  V30 33 1 26 29
M  V30 34 1 28 30
M  V30 END BOND
M  V30 END CTAB
M  END
>  <Compound ID>
46

>  <Name>
ZSTK474

>  <Uniprot>
P42336

>  <Target>
PI3Kalpha

>  <Smiles>
FC(F)C1=NC2=CC=CC=C2N1C1=NC(N2CCOCC2)=NC(N2CCOCC2)=N1

>  <Kd (nM)>


>  <Assay (Kd)>


>  <Ki (nM)>


>  <Assay (Ki)>


>  <IC50 (nM)>
8.9

>  <Assay (IC50)>
IC50 of human His-tagged PI3Kalpha was assessed by HTRF assay

>  <EC50 (nM)>


>  <Assay (EC50)>


>  <Article DOI>
10.1021/jm200688y

>  <Molecular Weight>
417.42

>  <Exact Mass>
417.172479352

>  <XLogP3>
2.3

>  <Heavy Atom Count>
30

>  <Ring Count>
5

>  <Hydrogen Bond Acceptor Count>
9

>  <Hydrogen Bond Donor Count>
0

>  <Rotatable Bond Count>
4

>  <Topological Polar Surface Area>
81.43

>  <Molecular Formula>
C19H21F2N7O2

>  <InChI>
InChI=1S/C19H21F2N7O2/c20-15(21)16-22-13-3-1-2-4-14(13)28(16)19-24-17(26-5-9-29-10-6-26)23-18(25-19)27-7-11-30-12-8-27/h1-4,15H,5-12H2

>  <InChI Key>
HGVNLRPZOWWDKD-UHFFFAOYSA-N

>  <BindingDB>
50315213

>  <PubChem>
11647372

>  <ChEMBL>
CHEMBL586702

$$$$
Compound 85
Actelion Java MolfileCreator 2.0

  0  0  0  0  0  0              0 V3000
M  V30 BEGIN CTAB
M  V30 COUNTS 36 39 0 0 0
M  V30 BEGIN ATOM
M  V30 1 Cl 0.0 0.0 0.0 0
M  V30 2 C -0.2686 -1.4714 0.0 0
M  V30 3 C 0.8758 -2.429 0.0 0
M  V30 4 C -1.6933 -1.9736 0.0 0
M  V30 5 O 2.2772 -1.9035 0.0 0
M  V30 6 C 0.6072 -3.9005 0.0 0
M  V30 7 C -1.9619 -3.4451 0.0 0
M  V30 8 C 2.5225 -0.4087 0.0 0
M  V30 9 C -0.8174 -4.4027 0.0 0
M  V30 10 Cl -3.3867 -3.9472 0.0 0
M  V30 11 N -1.086 -5.8742 0.0 0
M  V30 12 C 0.0583 -6.8318 0.0 0
M  V30 13 C -0.2102 -8.3033 0.0 0
M  V30 14 C 1.4597 -6.3063 0.0 0
M  V30 15 C -1.6349 -8.8054 0.0 0
M  V30 16 C 0.9342 -9.2609 0.0 0
M  V30 17 C 2.6042 -7.2639 0.0 0
M  V30 18 C 1.705 -4.8114 0.0 0
M  V30 19 N -3.0597 -9.3076 0.0 0
M  V30 20 N 2.3356 -8.7354 0.0 0
M  V30 21 C 4.0056 -6.7384 0.0 0
M  V30 22 C 3.1064 -4.2859 0.0 0
M  V30 23 C 4.2509 -5.2435 0.0 0
M  V30 24 O 3.3516 -2.7911 0.0 0
M  V30 25 O 5.6523 -4.718 0.0 0
M  V30 26 C 4.753 -2.2655 0.0 0
M  V30 27 C 6.7967 -5.6756 0.0 0
M  V30 28 C 8.1981 -5.1501 0.0 0
M  V30 29 C 9.3426 -6.1077 0.0 0
M  V30 30 N 10.744 -5.5822 0.0 0
M  V30 31 C 11.8885 -6.5398 0.0 0
M  V30 32 C 10.9893 -4.0874 0.0 0
M  V30 33 C 13.2899 -6.0143 0.0 0
M  V30 34 C 12.3907 -3.5618 0.0 0
M  V30 35 N 13.5352 -4.5195 0.0 0
M  V30 36 C 14.9366 -3.9939 0.0 0
M  V30 END ATOM
M  V30 BEGIN BOND
M  V30 1 1 1 2
M  V30 2 2 2 3
M  V30 3 1 2 4
M  V30 4 1 3 5
M  V30 5 1 3 6
M  V30 6 2 4 7
M  V30 7 1 5 8
M  V30 8 2 6 9
M  V30 9 1 7 10
M  V30 10 1 9 11
M  V30 11 1 11 12
M  V30 12 2 12 13
M  V30 13 1 12 14
M  V30 14 1 13 15
M  V30 15 1 13 16
M  V30 16 1 14 17
M  V30 17 2 14 18
M  V30 18 3 15 19
M  V30 19 2 16 20
M  V30 20 2 17 21
M  V30 21 1 18 22
M  V30 22 1 21 23
M  V30 23 1 22 24
M  V30 24 1 23 25
M  V30 25 1 24 26
M  V30 26 1 25 27
M  V30 27 1 27 28
M  V30 28 1 28 29
M  V30 29 1 29 30
M  V30 30 1 30 31
M  V30 31 1 30 32
M  V30 32 1 31 33
M  V30 33 1 32 34
M  V30 34 1 33 35
M  V30 35 1 35 36
M  V30 36 1 7 9
M  V30 37 1 17 20
M  V30 38 2 22 23
M  V30 39 1 34 35
M  V30 END BOND
M  V30 END CTAB
M  END
>  <Compound ID>
47

>  <Name>
bosutinib

>  <Uniprot>


>  <Target>
BCR-ABL

>  <Smiles>
COC1=CC(NC2=C(C#N)C=NC3=CC(OCCCN4CCN(C)CC4)=C(OC)C=C23)=C(Cl)C=C1Cl

>  <Kd (nM)>
0.063/0.023

>  <Assay (Kd)>
Kd of non-phosphorylated/phosphorylated ABL was assessed by KINOMEscan Assay

>  <Ki (nM)>


>  <Assay (Ki)>


>  <IC50 (nM)>


>  <Assay (IC50)>


>  <EC50 (nM)>


>  <Assay (EC50)>


>  <Article DOI>
10.1002/anie.201507634

>  <Molecular Weight>
530.456

>  <Exact Mass>
529.164745148

>  <XLogP3>
5.38

>  <Heavy Atom Count>
36

>  <Ring Count>
4

>  <Hydrogen Bond Acceptor Count>
8

>  <Hydrogen Bond Donor Count>
1

>  <Rotatable Bond Count>
9

>  <Topological Polar Surface Area>
82.88

>  <Molecular Formula>
C26H29Cl2N5O3

>  <InChI>
InChI=1S/C26H29Cl2N5O3/c1-32-6-8-33(9-7-32)5-4-10-36-25-13-21-18(11-24(25)35-3)26(17(15-29)16-30-21)31-22-14-23(34-2)20(28)12-19(22)27/h11-14,16H,4-10H2,1-3H3,(H,30,31)

>  <InChI Key>
UBPYILGKFZZVDX-UHFFFAOYSA-N

>  <BindingDB>
4552

>  <PubChem>
5328940

>  <ChEMBL>
CHEMBL288441

$$$$
Compound 86
Actelion Java MolfileCreator 2.0

  0  0  0  0  0  0              0 V3000
M  V30 BEGIN CTAB
M  V30 COUNTS 36 39 0 0 0
M  V30 BEGIN ATOM
M  V30 1 Cl 0.0 0.0 0.0 0
M  V30 2 C -0.2686 -1.4714 0.0 0
M  V30 3 C 0.8758 -2.429 0.0 0
M  V30 4 C -1.6933 -1.9736 0.0 0
M  V30 5 O 2.2772 -1.9035 0.0 0
M  V30 6 C 0.6072 -3.9005 0.0 0
M  V30 7 C -1.9619 -3.4451 0.0 0
M  V30 8 C 2.5225 -0.4087 0.0 0
M  V30 9 C -0.8174 -4.4027 0.0 0
M  V30 10 Cl -3.3867 -3.9472 0.0 0
M  V30 11 N -1.086 -5.8742 0.0 0
M  V30 12 C 0.0583 -6.8318 0.0 0
M  V30 13 C -0.2102 -8.3033 0.0 0
M  V30 14 C 1.4597 -6.3063 0.0 0
M  V30 15 C -1.6349 -8.8054 0.0 0
M  V30 16 C 0.9342 -9.2609 0.0 0
M  V30 17 C 2.6042 -7.2639 0.0 0
M  V30 18 C 1.705 -4.8114 0.0 0
M  V30 19 N -3.0597 -9.3076 0.0 0
M  V30 20 N 2.3356 -8.7354 0.0 0
M  V30 21 C 4.0056 -6.7384 0.0 0
M  V30 22 C 3.1064 -4.2859 0.0 0
M  V30 23 C 4.2509 -5.2435 0.0 0
M  V30 24 O 3.3516 -2.7911 0.0 0
M  V30 25 O 5.6523 -4.718 0.0 0
M  V30 26 C 4.753 -2.2655 0.0 0
M  V30 27 C 6.7967 -5.6756 0.0 0
M  V30 28 C 8.1981 -5.1501 0.0 0
M  V30 29 C 9.3426 -6.1077 0.0 0
M  V30 30 N 10.744 -5.5822 0.0 0
M  V30 31 C 11.8885 -6.5398 0.0 0
M  V30 32 C 10.9893 -4.0874 0.0 0
M  V30 33 C 13.2899 -6.0143 0.0 0
M  V30 34 C 12.3907 -3.5618 0.0 0
M  V30 35 N 13.5352 -4.5195 0.0 0
M  V30 36 C 14.9366 -3.9939 0.0 0
M  V30 END ATOM
M  V30 BEGIN BOND
M  V30 1 1 1 2
M  V30 2 2 2 3
M  V30 3 1 2 4
M  V30 4 1 3 5
M  V30 5 1 3 6
M  V30 6 2 4 7
M  V30 7 1 5 8
M  V30 8 2 6 9
M  V30 9 1 7 10
M  V30 10 1 9 11
M  V30 11 1 11 12
M  V30 12 2 12 13
M  V30 13 1 12 14
M  V30 14 1 13 15
M  V30 15 1 13 16
M  V30 16 1 14 17
M  V30 17 2 14 18
M  V30 18 3 15 19
M  V30 19 2 16 20
M  V30 20 2 17 21
M  V30 21 1 18 22
M  V30 22 1 21 23
M  V30 23 1 22 24
M  V30 24 1 23 25
M  V30 25 1 24 26
M  V30 26 1 25 27
M  V30 27 1 27 28
M  V30 28 1 28 29
M  V30 29 1 29 30
M  V30 30 1 30 31
M  V30 31 1 30 32
M  V30 32 1 31 33
M  V30 33 1 32 34
M  V30 34 1 33 35
M  V30 35 1 35 36
M  V30 36 1 7 9
M  V30 37 1 17 20
M  V30 38 2 22 23
M  V30 39 1 34 35
M  V30 END BOND
M  V30 END CTAB
M  END
>  <Compound ID>
47

>  <Name>
bosutinib

>  <Uniprot>
Q06187

>  <Target>
BTK

>  <Smiles>
COC1=CC(NC2=C(C#N)C=NC3=CC(OCCCN4CCN(C)CC4)=C(OC)C=C23)=C(Cl)C=C1Cl

>  <Kd (nM)>
4.8

>  <Assay (Kd)>
Kd was assessed by competition binding assays

>  <Ki (nM)>


>  <Assay (Ki)>


>  <IC50 (nM)>


>  <Assay (IC50)>


>  <EC50 (nM)>


>  <Assay (EC50)>


>  <Article DOI>
10.1038/nbt.1990

>  <Molecular Weight>
530.456

>  <Exact Mass>
529.164745148

>  <XLogP3>
5.38

>  <Heavy Atom Count>
36

>  <Ring Count>
4

>  <Hydrogen Bond Acceptor Count>
8

>  <Hydrogen Bond Donor Count>
1

>  <Rotatable Bond Count>
9

>  <Topological Polar Surface Area>
82.88

>  <Molecular Formula>
C26H29Cl2N5O3

>  <InChI>
InChI=1S/C26H29Cl2N5O3/c1-32-6-8-33(9-7-32)5-4-10-36-25-13-21-18(11-24(25)35-3)26(17(15-29)16-30-21)31-22-14-23(34-2)20(28)12-19(22)27/h11-14,16H,4-10H2,1-3H3,(H,30,31)

>  <InChI Key>
UBPYILGKFZZVDX-UHFFFAOYSA-N

>  <BindingDB>
4552

>  <PubChem>
5328940

>  <ChEMBL>
CHEMBL288441

$$$$
Compound 87
Actelion Java MolfileCreator 2.0

  0  0  0  0  0  0              0 V3000
M  V30 BEGIN CTAB
M  V30 COUNTS 33 36 0 0 0
M  V30 BEGIN ATOM
M  V30 1 Cl 0.0 0.0 0.0 0
M  V30 2 C 0.0943 -1.4867 0.0 0
M  V30 3 C -1.1681 -2.3126 0.0 0
M  V30 4 C 1.4277 -2.1356 0.0 0
M  V30 5 N -2.525 -1.6401 0.0 0
M  V30 6 C -1.0737 -3.7994 0.0 0
M  V30 7 C 1.5221 -3.6224 0.0 0
M  V30 8 C -2.643 -0.1297 0.0 0
M  V30 9 C 0.2595 -4.4483 0.0 0
M  V30 10 C -2.3362 -4.6253 0.0 0
M  V30 11 O -1.4041 0.7197 0.0 0
M  V30 12 C -4.0 0.5427 0.0 0
M  V30 13 S -5.3333 -0.1533 0.0 0
M  V30 14 C -4.2713 2.0295 0.0 0
M  V30 15 C -6.4188 0.9085 0.0 0
M  V30 16 N -5.7699 2.2536 0.0 0
M  V30 17 N -7.9056 0.6607 0.0 0
M  V30 18 C -8.4366 -0.7433 0.0 0
M  V30 19 N -9.9233 -0.9911 0.0 0
M  V30 20 C -7.4808 -1.8879 0.0 0
M  V30 21 C -10.4543 -2.3952 0.0 0
M  V30 22 C -8.0118 -3.292 0.0 0
M  V30 23 N -9.4985 -3.5398 0.0 0
M  V30 24 C -11.941 -2.643 0.0 0
M  V30 25 N -7.056 -4.4365 0.0 0
M  V30 26 C -7.587 -5.8407 0.0 0
M  V30 27 C -5.5929 -4.1652 0.0 0
M  V30 28 C -6.6312 -6.9852 0.0 0
M  V30 29 C -4.6371 -5.3097 0.0 0
M  V30 30 N -5.1681 -6.7138 0.0 0
M  V30 31 C -4.2124 -7.8584 0.0 0
M  V30 32 C -4.7433 -9.2625 0.0 0
M  V30 33 O -3.7876 -10.4071 0.0 0
M  V30 END ATOM
M  V30 BEGIN BOND
M  V30 1 1 1 2
M  V30 2 2 2 3
M  V30 3 1 2 4
M  V30 4 1 3 5
M  V30 5 1 3 6
M  V30 6 2 4 7
M  V30 7 1 5 8
M  V30 8 2 6 9
M  V30 9 1 6 10
M  V30 10 2 8 11
M  V30 11 1 8 12
M  V30 12 1 12 13
M  V30 13 2 12 14
M  V30 14 1 13 15
M  V30 15 1 14 16
M  V30 16 1 15 17
M  V30 17 1 17 18
M  V30 18 2 18 19
M  V30 19 1 18 20
M  V30 20 1 19 21
M  V30 21 2 20 22
M  V30 22 2 21 23
M  V30 23 1 21 24
M  V30 24 1 22 25
M  V30 25 1 25 26
M  V30 26 1 25 27
M  V30 27 1 26 28
M  V30 28 1 27 29
M  V30 29 1 28 30
M  V30 30 1 30 31
M  V30 31 1 31 32
M  V30 32 1 32 33
M  V30 33 1 7 9
M  V30 34 2 15 16
M  V30 35 1 22 23
M  V30 36 1 29 30
M  V30 END BOND
M  V30 END CTAB
M  END
>  <Compound ID>
48

>  <Name>
dasatinib

>  <Uniprot>
P42684

>  <Target>
ABL2

>  <Smiles>
CC1=NC(NC2=NC=C(C(=O)NC3=C(C)C=CC=C3Cl)S2)=CC(N2CCN(CCO)CC2)=N1

>  <Kd (nM)>
0.17

>  <Assay (Kd)>
Kd was assessed by competition binding assays

>  <Ki (nM)>


>  <Assay (Ki)>


>  <IC50 (nM)>


>  <Assay (IC50)>


>  <EC50 (nM)>


>  <Assay (EC50)>


>  <Article DOI>
10.1038/nbt.1990

>  <Molecular Weight>
488.017

>  <Exact Mass>
487.155721752

>  <XLogP3>
3.59

>  <Heavy Atom Count>
33

>  <Ring Count>
4

>  <Hydrogen Bond Acceptor Count>
9

>  <Hydrogen Bond Donor Count>
3

>  <Rotatable Bond Count>
7

>  <Topological Polar Surface Area>
106.51

>  <Molecular Formula>
C22H26ClN7O2S

>  <InChI>
InChI=1S/C22H26ClN7O2S/c1-14-4-3-5-16(23)20(14)28-21(32)17-13-24-22(33-17)27-18-12-19(26-15(2)25-18)30-8-6-29(7-9-30)10-11-31/h3-5,12-13,31H,6-11H2,1-2H3,(H,28,32)(H,24,25,26,27)

>  <InChI Key>
ZBNZXTGUTAYRHI-UHFFFAOYSA-N

>  <BindingDB>
13216

>  <PubChem>
3062316

>  <ChEMBL>
CHEMBL1421

$$$$
Compound 88
Actelion Java MolfileCreator 2.0

  0  0  0  0  0  0              0 V3000
M  V30 BEGIN CTAB
M  V30 COUNTS 33 36 0 0 0
M  V30 BEGIN ATOM
M  V30 1 Cl 0.0 0.0 0.0 0
M  V30 2 C 0.0943 -1.4867 0.0 0
M  V30 3 C -1.1681 -2.3126 0.0 0
M  V30 4 C 1.4277 -2.1356 0.0 0
M  V30 5 N -2.525 -1.6401 0.0 0
M  V30 6 C -1.0737 -3.7994 0.0 0
M  V30 7 C 1.5221 -3.6224 0.0 0
M  V30 8 C -2.643 -0.1297 0.0 0
M  V30 9 C 0.2595 -4.4483 0.0 0
M  V30 10 C -2.3362 -4.6253 0.0 0
M  V30 11 O -1.4041 0.7197 0.0 0
M  V30 12 C -4.0 0.5427 0.0 0
M  V30 13 S -5.3333 -0.1533 0.0 0
M  V30 14 C -4.2713 2.0295 0.0 0
M  V30 15 C -6.4188 0.9085 0.0 0
M  V30 16 N -5.7699 2.2536 0.0 0
M  V30 17 N -7.9056 0.6607 0.0 0
M  V30 18 C -8.4366 -0.7433 0.0 0
M  V30 19 N -9.9233 -0.9911 0.0 0
M  V30 20 C -7.4808 -1.8879 0.0 0
M  V30 21 C -10.4543 -2.3952 0.0 0
M  V30 22 C -8.0118 -3.292 0.0 0
M  V30 23 N -9.4985 -3.5398 0.0 0
M  V30 24 C -11.941 -2.643 0.0 0
M  V30 25 N -7.056 -4.4365 0.0 0
M  V30 26 C -7.587 -5.8407 0.0 0
M  V30 27 C -5.5929 -4.1652 0.0 0
M  V30 28 C -6.6312 -6.9852 0.0 0
M  V30 29 C -4.6371 -5.3097 0.0 0
M  V30 30 N -5.1681 -6.7138 0.0 0
M  V30 31 C -4.2124 -7.8584 0.0 0
M  V30 32 C -4.7433 -9.2625 0.0 0
M  V30 33 O -3.7876 -10.4071 0.0 0
M  V30 END ATOM
M  V30 BEGIN BOND
M  V30 1 1 1 2
M  V30 2 2 2 3
M  V30 3 1 2 4
M  V30 4 1 3 5
M  V30 5 1 3 6
M  V30 6 2 4 7
M  V30 7 1 5 8
M  V30 8 2 6 9
M  V30 9 1 6 10
M  V30 10 2 8 11
M  V30 11 1 8 12
M  V30 12 1 12 13
M  V30 13 2 12 14
M  V30 14 1 13 15
M  V30 15 1 14 16
M  V30 16 1 15 17
M  V30 17 1 17 18
M  V30 18 2 18 19
M  V30 19 1 18 20
M  V30 20 1 19 21
M  V30 21 2 20 22
M  V30 22 2 21 23
M  V30 23 1 21 24
M  V30 24 1 22 25
M  V30 25 1 25 26
M  V30 26 1 25 27
M  V30 27 1 26 28
M  V30 28 1 27 29
M  V30 29 1 28 30
M  V30 30 1 30 31
M  V30 31 1 31 32
M  V30 32 1 32 33
M  V30 33 1 7 9
M  V30 34 2 15 16
M  V30 35 1 22 23
M  V30 36 1 29 30
M  V30 END BOND
M  V30 END CTAB
M  END
>  <Compound ID>
48

>  <Name>
dasatinib

>  <Uniprot>


>  <Target>
BCR-ABL

>  <Smiles>
CC1=NC(NC2=NC=C(C(=O)NC3=C(C)C=CC=C3Cl)S2)=CC(N2CCN(CCO)CC2)=N1

>  <Kd (nM)>
0.03/0.02

>  <Assay (Kd)>
Kd of non-phosphorylated/phosphorylated ABL was assessed by KINOMEscan Assay

>  <Ki (nM)>


>  <Assay (Ki)>


>  <IC50 (nM)>


>  <Assay (IC50)>


>  <EC50 (nM)>


>  <Assay (EC50)>


>  <Article DOI>
10.1002/anie.201507634

>  <Molecular Weight>
488.017

>  <Exact Mass>
487.155721752

>  <XLogP3>
3.59

>  <Heavy Atom Count>
33

>  <Ring Count>
4

>  <Hydrogen Bond Acceptor Count>
9

>  <Hydrogen Bond Donor Count>
3

>  <Rotatable Bond Count>
7

>  <Topological Polar Surface Area>
106.51

>  <Molecular Formula>
C22H26ClN7O2S

>  <InChI>
InChI=1S/C22H26ClN7O2S/c1-14-4-3-5-16(23)20(14)28-21(32)17-13-24-22(33-17)27-18-12-19(26-15(2)25-18)30-8-6-29(7-9-30)10-11-31/h3-5,12-13,31H,6-11H2,1-2H3,(H,28,32)(H,24,25,26,27)

>  <InChI Key>
ZBNZXTGUTAYRHI-UHFFFAOYSA-N

>  <BindingDB>
13216

>  <PubChem>
3062316

>  <ChEMBL>
CHEMBL1421

$$$$
Compound 89
Actelion Java MolfileCreator 2.0

  0  0  0  0  0  0              0 V3000
M  V30 BEGIN CTAB
M  V30 COUNTS 33 36 0 0 0
M  V30 BEGIN ATOM
M  V30 1 Cl 0.0 0.0 0.0 0
M  V30 2 C 0.0943 -1.4867 0.0 0
M  V30 3 C -1.1681 -2.3126 0.0 0
M  V30 4 C 1.4277 -2.1356 0.0 0
M  V30 5 N -2.525 -1.6401 0.0 0
M  V30 6 C -1.0737 -3.7994 0.0 0
M  V30 7 C 1.5221 -3.6224 0.0 0
M  V30 8 C -2.643 -0.1297 0.0 0
M  V30 9 C 0.2595 -4.4483 0.0 0
M  V30 10 C -2.3362 -4.6253 0.0 0
M  V30 11 O -1.4041 0.7197 0.0 0
M  V30 12 C -4.0 0.5427 0.0 0
M  V30 13 S -5.3333 -0.1533 0.0 0
M  V30 14 C -4.2713 2.0295 0.0 0
M  V30 15 C -6.4188 0.9085 0.0 0
M  V30 16 N -5.7699 2.2536 0.0 0
M  V30 17 N -7.9056 0.6607 0.0 0
M  V30 18 C -8.4366 -0.7433 0.0 0
M  V30 19 N -9.9233 -0.9911 0.0 0
M  V30 20 C -7.4808 -1.8879 0.0 0
M  V30 21 C -10.4543 -2.3952 0.0 0
M  V30 22 C -8.0118 -3.292 0.0 0
M  V30 23 N -9.4985 -3.5398 0.0 0
M  V30 24 C -11.941 -2.643 0.0 0
M  V30 25 N -7.056 -4.4365 0.0 0
M  V30 26 C -7.587 -5.8407 0.0 0
M  V30 27 C -5.5929 -4.1652 0.0 0
M  V30 28 C -6.6312 -6.9852 0.0 0
M  V30 29 C -4.6371 -5.3097 0.0 0
M  V30 30 N -5.1681 -6.7138 0.0 0
M  V30 31 C -4.2124 -7.8584 0.0 0
M  V30 32 C -4.7433 -9.2625 0.0 0
M  V30 33 O -3.7876 -10.4071 0.0 0
M  V30 END ATOM
M  V30 BEGIN BOND
M  V30 1 1 1 2
M  V30 2 2 2 3
M  V30 3 1 2 4
M  V30 4 1 3 5
M  V30 5 1 3 6
M  V30 6 2 4 7
M  V30 7 1 5 8
M  V30 8 2 6 9
M  V30 9 1 6 10
M  V30 10 2 8 11
M  V30 11 1 8 12
M  V30 12 1 12 13
M  V30 13 2 12 14
M  V30 14 1 13 15
M  V30 15 1 14 16
M  V30 16 1 15 17
M  V30 17 1 17 18
M  V30 18 2 18 19
M  V30 19 1 18 20
M  V30 20 1 19 21
M  V30 21 2 20 22
M  V30 22 2 21 23
M  V30 23 1 21 24
M  V30 24 1 22 25
M  V30 25 1 25 26
M  V30 26 1 25 27
M  V30 27 1 26 28
M  V30 28 1 27 29
M  V30 29 1 28 30
M  V30 30 1 30 31
M  V30 31 1 31 32
M  V30 32 1 32 33
M  V30 33 1 7 9
M  V30 34 2 15 16
M  V30 35 1 22 23
M  V30 36 1 29 30
M  V30 END BOND
M  V30 END CTAB
M  END
>  <Compound ID>
48

>  <Name>
dasatinib

>  <Uniprot>
P51451

>  <Target>
BLK

>  <Smiles>
CC1=NC(NC2=NC=C(C(=O)NC3=C(C)C=CC=C3Cl)S2)=CC(N2CCN(CCO)CC2)=N1

>  <Kd (nM)>
0.21

>  <Assay (Kd)>
Kd of BLK

>  <Ki (nM)>


>  <Assay (Ki)>


>  <IC50 (nM)>


>  <Assay (IC50)>


>  <EC50 (nM)>


>  <Assay (EC50)>


>  <Article DOI>
10.1038/nbt1358

>  <Molecular Weight>
488.017

>  <Exact Mass>
487.155721752

>  <XLogP3>
3.59

>  <Heavy Atom Count>
33

>  <Ring Count>
4

>  <Hydrogen Bond Acceptor Count>
9

>  <Hydrogen Bond Donor Count>
3

>  <Rotatable Bond Count>
7

>  <Topological Polar Surface Area>
106.51

>  <Molecular Formula>
C22H26ClN7O2S

>  <InChI>
InChI=1S/C22H26ClN7O2S/c1-14-4-3-5-16(23)20(14)28-21(32)17-13-24-22(33-17)27-18-12-19(26-15(2)25-18)30-8-6-29(7-9-30)10-11-31/h3-5,12-13,31H,6-11H2,1-2H3,(H,28,32)(H,24,25,26,27)

>  <InChI Key>
ZBNZXTGUTAYRHI-UHFFFAOYSA-N

>  <BindingDB>
13216

>  <PubChem>
3062316

>  <ChEMBL>
CHEMBL1421

$$$$
Compound 90
Actelion Java MolfileCreator 2.0

  0  0  0  0  0  0              0 V3000
M  V30 BEGIN CTAB
M  V30 COUNTS 33 36 0 0 0
M  V30 BEGIN ATOM
M  V30 1 Cl 0.0 0.0 0.0 0
M  V30 2 C 0.0943 -1.4867 0.0 0
M  V30 3 C -1.1681 -2.3126 0.0 0
M  V30 4 C 1.4277 -2.1356 0.0 0
M  V30 5 N -2.525 -1.6401 0.0 0
M  V30 6 C -1.0737 -3.7994 0.0 0
M  V30 7 C 1.5221 -3.6224 0.0 0
M  V30 8 C -2.643 -0.1297 0.0 0
M  V30 9 C 0.2595 -4.4483 0.0 0
M  V30 10 C -2.3362 -4.6253 0.0 0
M  V30 11 O -1.4041 0.7197 0.0 0
M  V30 12 C -4.0 0.5427 0.0 0
M  V30 13 S -5.3333 -0.1533 0.0 0
M  V30 14 C -4.2713 2.0295 0.0 0
M  V30 15 C -6.4188 0.9085 0.0 0
M  V30 16 N -5.7699 2.2536 0.0 0
M  V30 17 N -7.9056 0.6607 0.0 0
M  V30 18 C -8.4366 -0.7433 0.0 0
M  V30 19 N -9.9233 -0.9911 0.0 0
M  V30 20 C -7.4808 -1.8879 0.0 0
M  V30 21 C -10.4543 -2.3952 0.0 0
M  V30 22 C -8.0118 -3.292 0.0 0
M  V30 23 N -9.4985 -3.5398 0.0 0
M  V30 24 C -11.941 -2.643 0.0 0
M  V30 25 N -7.056 -4.4365 0.0 0
M  V30 26 C -7.587 -5.8407 0.0 0
M  V30 27 C -5.5929 -4.1652 0.0 0
M  V30 28 C -6.6312 -6.9852 0.0 0
M  V30 29 C -4.6371 -5.3097 0.0 0
M  V30 30 N -5.1681 -6.7138 0.0 0
M  V30 31 C -4.2124 -7.8584 0.0 0
M  V30 32 C -4.7433 -9.2625 0.0 0
M  V30 33 O -3.7876 -10.4071 0.0 0
M  V30 END ATOM
M  V30 BEGIN BOND
M  V30 1 1 1 2
M  V30 2 2 2 3
M  V30 3 1 2 4
M  V30 4 1 3 5
M  V30 5 1 3 6
M  V30 6 2 4 7
M  V30 7 1 5 8
M  V30 8 2 6 9
M  V30 9 1 6 10
M  V30 10 2 8 11
M  V30 11 1 8 12
M  V30 12 1 12 13
M  V30 13 2 12 14
M  V30 14 1 13 15
M  V30 15 1 14 16
M  V30 16 1 15 17
M  V30 17 1 17 18
M  V30 18 2 18 19
M  V30 19 1 18 20
M  V30 20 1 19 21
M  V30 21 2 20 22
M  V30 22 2 21 23
M  V30 23 1 21 24
M  V30 24 1 22 25
M  V30 25 1 25 26
M  V30 26 1 25 27
M  V30 27 1 26 28
M  V30 28 1 27 29
M  V30 29 1 28 30
M  V30 30 1 30 31
M  V30 31 1 31 32
M  V30 32 1 32 33
M  V30 33 1 7 9
M  V30 34 2 15 16
M  V30 35 1 22 23
M  V30 36 1 29 30
M  V30 END BOND
M  V30 END CTAB
M  END
>  <Compound ID>
48

>  <Name>
dasatinib

>  <Uniprot>
P41240

>  <Target>
CSK

>  <Smiles>
CC1=NC(NC2=NC=C(C(=O)NC3=C(C)C=CC=C3Cl)S2)=CC(N2CCN(CCO)CC2)=N1

>  <Kd (nM)>
1

>  <Assay (Kd)>
Kd was assessed by competition binding assays

>  <Ki (nM)>


>  <Assay (Ki)>


>  <IC50 (nM)>


>  <Assay (IC50)>


>  <EC50 (nM)>


>  <Assay (EC50)>


>  <Article DOI>
10.1038/nbt.1990

>  <Molecular Weight>
488.017

>  <Exact Mass>
487.155721752

>  <XLogP3>
3.59

>  <Heavy Atom Count>
33

>  <Ring Count>
4

>  <Hydrogen Bond Acceptor Count>
9

>  <Hydrogen Bond Donor Count>
3

>  <Rotatable Bond Count>
7

>  <Topological Polar Surface Area>
106.51

>  <Molecular Formula>
C22H26ClN7O2S

>  <InChI>
InChI=1S/C22H26ClN7O2S/c1-14-4-3-5-16(23)20(14)28-21(32)17-13-24-22(33-17)27-18-12-19(26-15(2)25-18)30-8-6-29(7-9-30)10-11-31/h3-5,12-13,31H,6-11H2,1-2H3,(H,28,32)(H,24,25,26,27)

>  <InChI Key>
ZBNZXTGUTAYRHI-UHFFFAOYSA-N

>  <BindingDB>
13216

>  <PubChem>
3062316

>  <ChEMBL>
CHEMBL1421

$$$$
Compound 91
Actelion Java MolfileCreator 2.0

  0  0  0  0  0  0              0 V3000
M  V30 BEGIN CTAB
M  V30 COUNTS 33 36 0 0 0
M  V30 BEGIN ATOM
M  V30 1 Cl 0.0 0.0 0.0 0
M  V30 2 C 0.0943 -1.4867 0.0 0
M  V30 3 C -1.1681 -2.3126 0.0 0
M  V30 4 C 1.4277 -2.1356 0.0 0
M  V30 5 N -2.525 -1.6401 0.0 0
M  V30 6 C -1.0737 -3.7994 0.0 0
M  V30 7 C 1.5221 -3.6224 0.0 0
M  V30 8 C -2.643 -0.1297 0.0 0
M  V30 9 C 0.2595 -4.4483 0.0 0
M  V30 10 C -2.3362 -4.6253 0.0 0
M  V30 11 O -1.4041 0.7197 0.0 0
M  V30 12 C -4.0 0.5427 0.0 0
M  V30 13 S -5.3333 -0.1533 0.0 0
M  V30 14 C -4.2713 2.0295 0.0 0
M  V30 15 C -6.4188 0.9085 0.0 0
M  V30 16 N -5.7699 2.2536 0.0 0
M  V30 17 N -7.9056 0.6607 0.0 0
M  V30 18 C -8.4366 -0.7433 0.0 0
M  V30 19 N -9.9233 -0.9911 0.0 0
M  V30 20 C -7.4808 -1.8879 0.0 0
M  V30 21 C -10.4543 -2.3952 0.0 0
M  V30 22 C -8.0118 -3.292 0.0 0
M  V30 23 N -9.4985 -3.5398 0.0 0
M  V30 24 C -11.941 -2.643 0.0 0
M  V30 25 N -7.056 -4.4365 0.0 0
M  V30 26 C -7.587 -5.8407 0.0 0
M  V30 27 C -5.5929 -4.1652 0.0 0
M  V30 28 C -6.6312 -6.9852 0.0 0
M  V30 29 C -4.6371 -5.3097 0.0 0
M  V30 30 N -5.1681 -6.7138 0.0 0
M  V30 31 C -4.2124 -7.8584 0.0 0
M  V30 32 C -4.7433 -9.2625 0.0 0
M  V30 33 O -3.7876 -10.4071 0.0 0
M  V30 END ATOM
M  V30 BEGIN BOND
M  V30 1 1 1 2
M  V30 2 2 2 3
M  V30 3 1 2 4
M  V30 4 1 3 5
M  V30 5 1 3 6
M  V30 6 2 4 7
M  V30 7 1 5 8
M  V30 8 2 6 9
M  V30 9 1 6 10
M  V30 10 2 8 11
M  V30 11 1 8 12
M  V30 12 1 12 13
M  V30 13 2 12 14
M  V30 14 1 13 15
M  V30 15 1 14 16
M  V30 16 1 15 17
M  V30 17 1 17 18
M  V30 18 2 18 19
M  V30 19 1 18 20
M  V30 20 1 19 21
M  V30 21 2 20 22
M  V30 22 2 21 23
M  V30 23 1 21 24
M  V30 24 1 22 25
M  V30 25 1 25 26
M  V30 26 1 25 27
M  V30 27 1 26 28
M  V30 28 1 27 29
M  V30 29 1 28 30
M  V30 30 1 30 31
M  V30 31 1 31 32
M  V30 32 1 32 33
M  V30 33 1 7 9
M  V30 34 2 15 16
M  V30 35 1 22 23
M  V30 36 1 29 30
M  V30 END BOND
M  V30 END CTAB
M  END
>  <Compound ID>
48

>  <Name>
dasatinib

>  <Uniprot>
P30291

>  <Target>
Wee1

>  <Smiles>
CC1=NC(NC2=NC=C(C(=O)NC3=C(C)C=CC=C3Cl)S2)=CC(N2CCN(CCO)CC2)=N1

>  <Kd (nM)>
7000

>  <Assay (Kd)>
Kd of Wee1

>  <Ki (nM)>


>  <Assay (Ki)>


>  <IC50 (nM)>


>  <Assay (IC50)>


>  <EC50 (nM)>


>  <Assay (EC50)>


>  <Article DOI>
10.1038/nbt1358

>  <Molecular Weight>
488.017

>  <Exact Mass>
487.155721752

>  <XLogP3>
3.59

>  <Heavy Atom Count>
33

>  <Ring Count>
4

>  <Hydrogen Bond Acceptor Count>
9

>  <Hydrogen Bond Donor Count>
3

>  <Rotatable Bond Count>
7

>  <Topological Polar Surface Area>
106.51

>  <Molecular Formula>
C22H26ClN7O2S

>  <InChI>
InChI=1S/C22H26ClN7O2S/c1-14-4-3-5-16(23)20(14)28-21(32)17-13-24-22(33-17)27-18-12-19(26-15(2)25-18)30-8-6-29(7-9-30)10-11-31/h3-5,12-13,31H,6-11H2,1-2H3,(H,28,32)(H,24,25,26,27)

>  <InChI Key>
ZBNZXTGUTAYRHI-UHFFFAOYSA-N

>  <BindingDB>
13216

>  <PubChem>
3062316

>  <ChEMBL>
CHEMBL1421

$$$$
Compound 92
Actelion Java MolfileCreator 2.0

  0  0  0  0  0  0              0 V3000
M  V30 BEGIN CTAB
M  V30 COUNTS 34 38 0 0 0
M  V30 BEGIN ATOM
M  V30 1 Cl 0.0 0.0 0.0 0
M  V30 2 C 0.319 -1.4534 0.0 0
M  V30 3 C 1.737 -1.8907 0.0 0
M  V30 4 C -0.8035 -2.4579 0.0 0
M  V30 5 C 2.0561 -3.3442 0.0 0
M  V30 6 C -0.4844 -3.9114 0.0 0
M  V30 7 C 0.9335 -4.3486 0.0 0
M  V30 8 C 1.2526 -5.8021 0.0 0
M  V30 9 N 0.059 -6.7238 0.0 0
M  V30 10 C 2.706 -6.133 0.0 0
M  V30 11 C 0.0354 -8.2128 0.0 0 CFG=2
M  V30 12 C 3.3323 -7.4801 0.0 0
M  V30 13 C 3.7814 -5.0931 0.0 0
M  V30 14 C 1.1935 -9.1463 0.0 0
M  V30 15 C -1.3353 -8.8391 0.0 0
M  V30 16 S 4.8095 -7.2792 0.0 0
M  V30 17 N 2.6588 -8.8154 0.0 0
M  V30 18 C 5.0813 -5.8021 0.0 0
M  V30 19 C 3.5805 -3.5923 0.0 0
M  V30 20 N 1.0398 -10.6234 0.0 0
M  V30 21 C -2.5879 -7.9764 0.0 0
M  V30 22 C 3.4151 -10.0917 0.0 0
M  V30 23 C 6.4284 -5.1522 0.0 0
M  V30 24 N 2.3988 -11.2143 0.0 0
M  V30 25 O -2.4815 -6.4638 0.0 0
M  V30 26 N -3.9586 -8.6027 0.0 0
M  V30 27 C 4.8922 -10.2216 0.0 0
M  V30 28 C -5.2112 -7.7401 0.0 0
M  V30 29 C -5.1049 -6.2275 0.0 0
M  V30 30 C -6.582 -8.3664 0.0 0
M  V30 31 C -6.3575 -5.3649 0.0 0
M  V30 32 C -7.8346 -7.5037 0.0 0
M  V30 33 C -7.7283 -5.9912 0.0 0
M  V30 34 O -8.9809 -5.1285 0.0 0
M  V30 END ATOM
M  V30 BEGIN BOND
M  V30 1 1 1 2
M  V30 2 2 2 3
M  V30 3 1 2 4
M  V30 4 1 3 5
M  V30 5 2 4 6
M  V30 6 2 5 7
M  V30 7 1 7 8
M  V30 8 2 8 9
M  V30 9 1 8 10
M  V30 10 1 9 11
M  V30 11 2 10 12
M  V30 12 1 10 13
M  V30 13 1 11 14
M  V30 14 1 11 15 CFG=3
M  V30 15 1 12 16
M  V30 16 1 12 17
M  V30 17 2 13 18
M  V30 18 1 13 19
M  V30 19 2 14 20
M  V30 20 1 15 21
M  V30 21 1 17 22
M  V30 22 1 18 23
M  V30 23 1 20 24
M  V30 24 2 21 25
M  V30 25 1 21 26
M  V30 26 1 22 27
M  V30 27 1 26 28
M  V30 28 2 28 29
M  V30 29 1 28 30
M  V30 30 1 29 31
M  V30 31 2 30 32
M  V30 32 2 31 33
M  V30 33 1 33 34
M  V30 34 1 6 7
M  V30 35 1 14 17
M  V30 36 1 16 18
M  V30 37 2 22 24
M  V30 38 1 32 33
M  V30 END BOND
M  V30 BEGIN COLLECTION
M  V30 MDLV30/STEABS ATOMS=(1 11)
M  V30 END COLLECTION
M  V30 END CTAB
M  END
>  <Compound ID>
49

>  <Name>
OTX015

>  <Uniprot>
P25440

>  <Target>
BRD2

>  <Smiles>
CC1=C(C)C2=C(S1)N1C(C)=NN=C1[C@H](CC(=O)NC1=CC=C(O)C=C1)N=C2C1=CC=C(Cl)C=C1

>  <Kd (nM)>


>  <Assay (Kd)>


>  <Ki (nM)>
16.6/5.4

>  <Assay (Ki)>
FP in BRD2 BD1/2

>  <IC50 (nM)>


>  <Assay (IC50)>


>  <EC50 (nM)>


>  <Assay (EC50)>


>  <Article DOI>
10.1021/acs.jmedchem.5b00613

>  <Molecular Weight>
492.004

>  <Exact Mass>
491.118273624

>  <XLogP3>
4.5

>  <Heavy Atom Count>
34

>  <Ring Count>
5

>  <Hydrogen Bond Acceptor Count>
7

>  <Hydrogen Bond Donor Count>
2

>  <Rotatable Bond Count>
4

>  <Topological Polar Surface Area>
92.4

>  <Molecular Formula>
C25H22ClN5O2S

>  <InChI>
InChI=1S/C25H22ClN5O2S/c1-13-14(2)34-25-22(13)23(16-4-6-17(26)7-5-16)28-20(24-30-29-15(3)31(24)25)12-21(33)27-18-8-10-19(32)11-9-18/h4-11,20,32H,12H2,1-3H3,(H,27,33)/t20-/m0/s1

>  <InChI Key>
GNMUEVRJHCWKTO-FQEVSTJZSA-N

>  <BindingDB>
50092312

>  <PubChem>
9936746

>  <ChEMBL>
CHEMBL3581647

$$$$
Compound 93
Actelion Java MolfileCreator 2.0

  0  0  0  0  0  0              0 V3000
M  V30 BEGIN CTAB
M  V30 COUNTS 34 38 0 0 0
M  V30 BEGIN ATOM
M  V30 1 Cl 0.0 0.0 0.0 0
M  V30 2 C 0.319 -1.4534 0.0 0
M  V30 3 C 1.737 -1.8907 0.0 0
M  V30 4 C -0.8035 -2.4579 0.0 0
M  V30 5 C 2.0561 -3.3442 0.0 0
M  V30 6 C -0.4844 -3.9114 0.0 0
M  V30 7 C 0.9335 -4.3486 0.0 0
M  V30 8 C 1.2526 -5.8021 0.0 0
M  V30 9 N 0.059 -6.7238 0.0 0
M  V30 10 C 2.706 -6.133 0.0 0
M  V30 11 C 0.0354 -8.2128 0.0 0 CFG=2
M  V30 12 C 3.3323 -7.4801 0.0 0
M  V30 13 C 3.7814 -5.0931 0.0 0
M  V30 14 C 1.1935 -9.1463 0.0 0
M  V30 15 C -1.3353 -8.8391 0.0 0
M  V30 16 S 4.8095 -7.2792 0.0 0
M  V30 17 N 2.6588 -8.8154 0.0 0
M  V30 18 C 5.0813 -5.8021 0.0 0
M  V30 19 C 3.5805 -3.5923 0.0 0
M  V30 20 N 1.0398 -10.6234 0.0 0
M  V30 21 C -2.5879 -7.9764 0.0 0
M  V30 22 C 3.4151 -10.0917 0.0 0
M  V30 23 C 6.4284 -5.1522 0.0 0
M  V30 24 N 2.3988 -11.2143 0.0 0
M  V30 25 O -2.4815 -6.4638 0.0 0
M  V30 26 N -3.9586 -8.6027 0.0 0
M  V30 27 C 4.8922 -10.2216 0.0 0
M  V30 28 C -5.2112 -7.7401 0.0 0
M  V30 29 C -5.1049 -6.2275 0.0 0
M  V30 30 C -6.582 -8.3664 0.0 0
M  V30 31 C -6.3575 -5.3649 0.0 0
M  V30 32 C -7.8346 -7.5037 0.0 0
M  V30 33 C -7.7283 -5.9912 0.0 0
M  V30 34 O -8.9809 -5.1285 0.0 0
M  V30 END ATOM
M  V30 BEGIN BOND
M  V30 1 1 1 2
M  V30 2 2 2 3
M  V30 3 1 2 4
M  V30 4 1 3 5
M  V30 5 2 4 6
M  V30 6 2 5 7
M  V30 7 1 7 8
M  V30 8 2 8 9
M  V30 9 1 8 10
M  V30 10 1 9 11
M  V30 11 2 10 12
M  V30 12 1 10 13
M  V30 13 1 11 14
M  V30 14 1 11 15 CFG=3
M  V30 15 1 12 16
M  V30 16 1 12 17
M  V30 17 2 13 18
M  V30 18 1 13 19
M  V30 19 2 14 20
M  V30 20 1 15 21
M  V30 21 1 17 22
M  V30 22 1 18 23
M  V30 23 1 20 24
M  V30 24 2 21 25
M  V30 25 1 21 26
M  V30 26 1 22 27
M  V30 27 1 26 28
M  V30 28 2 28 29
M  V30 29 1 28 30
M  V30 30 1 29 31
M  V30 31 2 30 32
M  V30 32 2 31 33
M  V30 33 1 33 34
M  V30 34 1 6 7
M  V30 35 1 14 17
M  V30 36 1 16 18
M  V30 37 2 22 24
M  V30 38 1 32 33
M  V30 END BOND
M  V30 BEGIN COLLECTION
M  V30 MDLV30/STEABS ATOMS=(1 11)
M  V30 END COLLECTION
M  V30 END CTAB
M  END
>  <Compound ID>
49

>  <Name>
OTX015

>  <Uniprot>
Q15059

>  <Target>
BRD3

>  <Smiles>
CC1=C(C)C2=C(S1)N1C(C)=NN=C1[C@H](CC(=O)NC1=CC=C(O)C=C1)N=C2C1=CC=C(Cl)C=C1

>  <Kd (nM)>


>  <Assay (Kd)>


>  <Ki (nM)>
10.7/4

>  <Assay (Ki)>
FP in BRD3 BD1/2

>  <IC50 (nM)>


>  <Assay (IC50)>


>  <EC50 (nM)>


>  <Assay (EC50)>


>  <Article DOI>
10.1021/acs.jmedchem.5b00613

>  <Molecular Weight>
492.004

>  <Exact Mass>
491.118273624

>  <XLogP3>
4.5

>  <Heavy Atom Count>
34

>  <Ring Count>
5

>  <Hydrogen Bond Acceptor Count>
7

>  <Hydrogen Bond Donor Count>
2

>  <Rotatable Bond Count>
4

>  <Topological Polar Surface Area>
92.4

>  <Molecular Formula>
C25H22ClN5O2S

>  <InChI>
InChI=1S/C25H22ClN5O2S/c1-13-14(2)34-25-22(13)23(16-4-6-17(26)7-5-16)28-20(24-30-29-15(3)31(24)25)12-21(33)27-18-8-10-19(32)11-9-18/h4-11,20,32H,12H2,1-3H3,(H,27,33)/t20-/m0/s1

>  <InChI Key>
GNMUEVRJHCWKTO-FQEVSTJZSA-N

>  <BindingDB>
50092312

>  <PubChem>
9936746

>  <ChEMBL>
CHEMBL3581647

$$$$
Compound 94
Actelion Java MolfileCreator 2.0

  0  0  0  0  0  0              0 V3000
M  V30 BEGIN CTAB
M  V30 COUNTS 34 38 0 0 0
M  V30 BEGIN ATOM
M  V30 1 Cl 0.0 0.0 0.0 0
M  V30 2 C 0.319 -1.4534 0.0 0
M  V30 3 C 1.737 -1.8907 0.0 0
M  V30 4 C -0.8035 -2.4579 0.0 0
M  V30 5 C 2.0561 -3.3442 0.0 0
M  V30 6 C -0.4844 -3.9114 0.0 0
M  V30 7 C 0.9335 -4.3486 0.0 0
M  V30 8 C 1.2526 -5.8021 0.0 0
M  V30 9 N 0.059 -6.7238 0.0 0
M  V30 10 C 2.706 -6.133 0.0 0
M  V30 11 C 0.0354 -8.2128 0.0 0 CFG=2
M  V30 12 C 3.3323 -7.4801 0.0 0
M  V30 13 C 3.7814 -5.0931 0.0 0
M  V30 14 C 1.1935 -9.1463 0.0 0
M  V30 15 C -1.3353 -8.8391 0.0 0
M  V30 16 S 4.8095 -7.2792 0.0 0
M  V30 17 N 2.6588 -8.8154 0.0 0
M  V30 18 C 5.0813 -5.8021 0.0 0
M  V30 19 C 3.5805 -3.5923 0.0 0
M  V30 20 N 1.0398 -10.6234 0.0 0
M  V30 21 C -2.5879 -7.9764 0.0 0
M  V30 22 C 3.4151 -10.0917 0.0 0
M  V30 23 C 6.4284 -5.1522 0.0 0
M  V30 24 N 2.3988 -11.2143 0.0 0
M  V30 25 O -2.4815 -6.4638 0.0 0
M  V30 26 N -3.9586 -8.6027 0.0 0
M  V30 27 C 4.8922 -10.2216 0.0 0
M  V30 28 C -5.2112 -7.7401 0.0 0
M  V30 29 C -5.1049 -6.2275 0.0 0
M  V30 30 C -6.582 -8.3664 0.0 0
M  V30 31 C -6.3575 -5.3649 0.0 0
M  V30 32 C -7.8346 -7.5037 0.0 0
M  V30 33 C -7.7283 -5.9912 0.0 0
M  V30 34 O -8.9809 -5.1285 0.0 0
M  V30 END ATOM
M  V30 BEGIN BOND
M  V30 1 1 1 2
M  V30 2 2 2 3
M  V30 3 1 2 4
M  V30 4 1 3 5
M  V30 5 2 4 6
M  V30 6 2 5 7
M  V30 7 1 7 8
M  V30 8 2 8 9
M  V30 9 1 8 10
M  V30 10 1 9 11
M  V30 11 2 10 12
M  V30 12 1 10 13
M  V30 13 1 11 14
M  V30 14 1 11 15 CFG=3
M  V30 15 1 12 16
M  V30 16 1 12 17
M  V30 17 2 13 18
M  V30 18 1 13 19
M  V30 19 2 14 20
M  V30 20 1 15 21
M  V30 21 1 17 22
M  V30 22 1 18 23
M  V30 23 1 20 24
M  V30 24 2 21 25
M  V30 25 1 21 26
M  V30 26 1 22 27
M  V30 27 1 26 28
M  V30 28 2 28 29
M  V30 29 1 28 30
M  V30 30 1 29 31
M  V30 31 2 30 32
M  V30 32 2 31 33
M  V30 33 1 33 34
M  V30 34 1 6 7
M  V30 35 1 14 17
M  V30 36 1 16 18
M  V30 37 2 22 24
M  V30 38 1 32 33
M  V30 END BOND
M  V30 BEGIN COLLECTION
M  V30 MDLV30/STEABS ATOMS=(1 11)
M  V30 END COLLECTION
M  V30 END CTAB
M  END
>  <Compound ID>
49

>  <Name>
OTX015

>  <Uniprot>
O60885

>  <Target>
BRD4

>  <Smiles>
CC1=C(C)C2=C(S1)N1C(C)=NN=C1[C@H](CC(=O)NC1=CC=C(O)C=C1)N=C2C1=CC=C(Cl)C=C1

>  <Kd (nM)>


>  <Assay (Kd)>


>  <Ki (nM)>
10.9/6

>  <Assay (Ki)>
FP in BRD4 BD1/2

>  <IC50 (nM)>


>  <Assay (IC50)>


>  <EC50 (nM)>


>  <Assay (EC50)>


>  <Article DOI>
10.1021/acs.jmedchem.5b00613

>  <Molecular Weight>
492.004

>  <Exact Mass>
491.118273624

>  <XLogP3>
4.5

>  <Heavy Atom Count>
34

>  <Ring Count>
5

>  <Hydrogen Bond Acceptor Count>
7

>  <Hydrogen Bond Donor Count>
2

>  <Rotatable Bond Count>
4

>  <Topological Polar Surface Area>
92.4

>  <Molecular Formula>
C25H22ClN5O2S

>  <InChI>
InChI=1S/C25H22ClN5O2S/c1-13-14(2)34-25-22(13)23(16-4-6-17(26)7-5-16)28-20(24-30-29-15(3)31(24)25)12-21(33)27-18-8-10-19(32)11-9-18/h4-11,20,32H,12H2,1-3H3,(H,27,33)/t20-/m0/s1

>  <InChI Key>
GNMUEVRJHCWKTO-FQEVSTJZSA-N

>  <BindingDB>
50092312

>  <PubChem>
9936746

>  <ChEMBL>
CHEMBL3581647

$$$$
Compound 95
Actelion Java MolfileCreator 2.0

  0  0  0  0  0  0              0 V3000
M  V30 BEGIN CTAB
M  V30 COUNTS 38 40 0 0 0
M  V30 BEGIN ATOM
M  V30 1 O 0.0 0.0 0.0 0
M  V30 2 C -1.3343 -0.6966 0.0 0
M  V30 3 N -2.6214 0.1062 0.0 0
M  V30 4 C -1.3933 -2.1845 0.0 0
M  V30 5 C -2.5859 1.6177 0.0 0 CFG=2
M  V30 6 C -3.9557 -0.5904 0.0 0
M  V30 7 O -2.7276 -2.8811 0.0 0
M  V30 8 C -0.1298 -2.9638 0.0 0
M  V30 9 C -1.2752 2.338 0.0 0
M  V30 10 C -3.873 2.4206 0.0 0
M  V30 11 C -5.2428 0.2125 0.0 0
M  V30 12 C 1.1335 -3.7431 0.0 0
M  V30 13 C -0.9328 -4.2273 0.0 0
M  V30 14 C 0.6494 -1.6767 0.0 0
M  V30 15 O -1.2398 3.8494 0.0 0
M  V30 16 O -0.0118 1.5586 0.0 0
M  V30 17 C -5.2073 1.7239 0.0 0
M  V30 18 C 2.4442 -3.0228 0.0 0
M  V30 19 C 1.2988 2.2789 0.0 0 CFG=1
M  V30 20 C 1.3343 3.7904 0.0 0
M  V30 21 C 2.5623 1.4996 0.0 0
M  V30 22 C 0.0472 4.5933 0.0 0
M  V30 23 C 2.645 4.5107 0.0 0
M  V30 24 C 3.873 2.2199 0.0 0
M  V30 25 C 0.0826 6.1048 0.0 0
M  V30 26 C 2.6804 6.0221 0.0 0
M  V30 27 C 5.1365 1.4405 0.0 0
M  V30 28 N -1.2044 6.9077 0.0 0
M  V30 29 C 1.3933 6.8251 0.0 0
M  V30 30 C 6.4472 2.1608 0.0 0
M  V30 31 C 5.0775 -0.0472 0.0 0
M  V30 32 C 7.7107 1.3815 0.0 0
M  V30 33 C 6.3409 -0.8265 0.0 0
M  V30 34 O 9.0214 2.1018 0.0 0
M  V30 35 C 7.6516 -0.1062 0.0 0
M  V30 36 C 9.0568 3.6132 0.0 0
M  V30 37 O 8.9151 -0.8856 0.0 0
M  V30 38 C 8.8561 -2.3734 0.0 0
M  V30 END ATOM
M  V30 BEGIN BOND
M  V30 1 2 1 2
M  V30 2 1 2 3
M  V30 3 1 2 4
M  V30 4 1 3 5
M  V30 5 1 3 6
M  V30 6 2 4 7
M  V30 7 1 4 8
M  V30 8 1 5 9 CFG=1
M  V30 9 1 5 10
M  V30 10 1 6 11
M  V30 11 1 8 12
M  V30 12 1 8 13
M  V30 13 1 8 14
M  V30 14 2 9 15
M  V30 15 1 9 16
M  V30 16 1 10 17
M  V30 17 1 12 18
M  V30 18 1 19 16 CFG=1
M  V30 19 1 19 20
M  V30 20 1 19 21
M  V30 21 2 20 22
M  V30 22 1 20 23
M  V30 23 1 21 24
M  V30 24 1 22 25
M  V30 25 2 23 26
M  V30 26 1 24 27
M  V30 27 1 25 28
M  V30 28 2 25 29
M  V30 29 2 27 30
M  V30 30 1 27 31
M  V30 31 1 30 32
M  V30 32 2 31 33
M  V30 33 1 32 34
M  V30 34 2 32 35
M  V30 35 1 34 36
M  V30 36 1 35 37
M  V30 37 1 37 38
M  V30 38 1 11 17
M  V30 39 1 26 29
M  V30 40 1 33 35
M  V30 END BOND
M  V30 BEGIN COLLECTION
M  V30 MDLV30/STEABS ATOMS=(2 5 19)
M  V30 END COLLECTION
M  V30 END CTAB
M  END
>  <Compound ID>
50

>  <Name>


>  <Uniprot>
P62942

>  <Target>
FKBP12

>  <Smiles>
CCC(C)(C)C(=O)C(=O)N1CCCC[C@H]1C(=O)O[C@H](CCC1=CC=C(OC)C(OC)=C1)C1=CC=CC(N)=C1

>  <Kd (nM)>


>  <Assay (Kd)>


>  <Ki (nM)>


>  <Assay (Ki)>


>  <IC50 (nM)>
100

>  <Assay (IC50)>
IC50 of FKBP12 was assessed by fluorescence polarization assay

>  <EC50 (nM)>


>  <Assay (EC50)>


>  <Article DOI>
10.1021/jm201746x

>  <Molecular Weight>
524.658

>  <Exact Mass>
524.288637

>  <XLogP3>
5.27

>  <Heavy Atom Count>
38

>  <Ring Count>
3

>  <Hydrogen Bond Acceptor Count>
7

>  <Hydrogen Bond Donor Count>
1

>  <Rotatable Bond Count>
11

>  <Topological Polar Surface Area>
108.16

>  <Molecular Formula>
C30H40N2O6

>  <InChI>
InChI=1S/C30H40N2O6/c1-6-30(2,3)27(33)28(34)32-17-8-7-12-23(32)29(35)38-24(21-10-9-11-22(31)19-21)15-13-20-14-16-25(36-4)26(18-20)37-5/h9-11,14,16,18-19,23-24H,6-8,12-13,15,17,31H2,1-5H3/t23-,24+/m0/s1

>  <InChI Key>
IIDSDBBDZNDWCN-BJKOFHAPSA-N

>  <BindingDB>
50388311

>  <PubChem>
35027274

>  <ChEMBL>
CHEMBL2059026

$$$$
Compound 96
Actelion Java MolfileCreator 2.0

  0  0  0  0  0  0              0 V3000
M  V30 BEGIN CTAB
M  V30 COUNTS 29 31 0 0 0
M  V30 BEGIN ATOM
M  V30 1 S 0.0 0.0 0.0 0
M  V30 2 C -1.0995 1.0522 0.0 0
M  V30 3 C -0.662 -1.3359 0.0 0
M  V30 4 O -0.9103 2.5536 0.0 0
M  V30 5 N -2.4354 0.3546 0.0 0
M  V30 6 C -2.1635 -1.1231 0.0 0
M  V30 7 C 0.0354 -2.6482 0.0 0
M  V30 8 O -3.2157 -2.199 0.0 0
M  V30 9 C 1.5251 -2.6837 0.0 0
M  V30 10 C 2.2226 -3.996 0.0 0
M  V30 11 C 2.3054 -1.395 0.0 0
M  V30 12 C 3.7123 -4.0315 0.0 0
M  V30 13 C 3.795 -1.4305 0.0 0
M  V30 14 O 4.4098 -5.3438 0.0 0
M  V30 15 C 4.4926 -2.7428 0.0 0
M  V30 16 C 3.6059 -6.6088 0.0 0
M  V30 17 O 5.9822 -2.7783 0.0 0
M  V30 18 C 6.7625 -1.4896 0.0 0
M  V30 19 C 8.2521 -1.5251 0.0 0
M  V30 20 C 6.0413 -0.1536 0.0 0
M  V30 21 C 9.0324 -0.2364 0.0 0
M  V30 22 C 8.9497 -2.8374 0.0 0
M  V30 23 C 6.8216 1.1349 0.0 0
M  V30 24 C 8.3113 1.0995 0.0 0
M  V30 25 F 9.6472 -4.1497 0.0 0
M  V30 26 F 10.262 -2.1162 0.0 0
M  V30 27 F 7.6137 -3.5349 0.0 0
M  V30 28 C 9.0916 2.3881 0.0 0
M  V30 29 N 9.8718 3.6768 0.0 0
M  V30 END ATOM
M  V30 BEGIN BOND
M  V30 1 1 1 2
M  V30 2 1 1 3
M  V30 3 2 2 4
M  V30 4 1 2 5
M  V30 5 1 3 6
M  V30 6 2 3 7
M  V30 7 2 6 8
M  V30 8 1 7 9
M  V30 9 2 9 10
M  V30 10 1 9 11
M  V30 11 1 10 12
M  V30 12 2 11 13
M  V30 13 1 12 14
M  V30 14 2 12 15
M  V30 15 1 14 16
M  V30 16 1 15 17
M  V30 17 1 17 18
M  V30 18 2 18 19
M  V30 19 1 18 20
M  V30 20 1 19 21
M  V30 21 1 19 22
M  V30 22 2 20 23
M  V30 23 2 21 24
M  V30 24 1 22 25
M  V30 25 1 22 26
M  V30 26 1 22 27
M  V30 27 1 24 28
M  V30 28 3 28 29
M  V30 29 1 5 6
M  V30 30 1 13 15
M  V30 31 1 23 24
M  V30 END BOND
M  V30 END CTAB
M  END
>  <Compound ID>
51

>  <Name>


>  <Uniprot>
P11474

>  <Target>
ERRalpha

>  <Smiles>
COC1=CC(/C=C2\SC(=O)NC2=O)=CC=C1OC1=CC=C(C#N)C=C1C(F)(F)F

>  <Kd (nM)>


>  <Assay (Kd)>


>  <Ki (nM)>


>  <Assay (Ki)>


>  <IC50 (nM)>
0.6

>  <Assay (IC50)>
IC50 of ERRalpha was assessed by two-hybrid reporter assay

>  <EC50 (nM)>


>  <Assay (EC50)>


>  <Article DOI>
10.1021/jm101063h

>  <Molecular Weight>
420.368

>  <Exact Mass>
420.039162492

>  <XLogP3>
4.3

>  <Heavy Atom Count>
29

>  <Ring Count>
3

>  <Hydrogen Bond Acceptor Count>
6

>  <Hydrogen Bond Donor Count>
1

>  <Rotatable Bond Count>
4

>  <Topological Polar Surface Area>
88.42

>  <Molecular Formula>
C19H11F3N2O4S

>  <InChI>
InChI=1S/C19H11F3N2O4S/c1-27-15-7-10(8-16-17(25)24-18(26)29-16)2-5-14(15)28-13-4-3-11(9-23)6-12(13)19(20,21)22/h2-8H,1H3,(H,24,25,26)/b16-8-

>  <InChI Key>
OBBIOCQFTMNSJI-PXNMLYILSA-N

>  <BindingDB>
50336730

>  <PubChem>
46916268

>  <ChEMBL>
CHEMBL1671971

$$$$
Compound 97
Actelion Java MolfileCreator 2.0

  0  0  0  0  0  0              0 V3000
M  V30 BEGIN CTAB
M  V30 COUNTS 29 32 0 0 0
M  V30 BEGIN ATOM
M  V30 1 S 0.0 0.0 0.0 0
M  V30 2 O -1.2888 -0.7922 0.0 0
M  V30 3 O 1.2652 0.8159 0.0 0
M  V30 4 C 0.7922 -1.2652 0.0 0
M  V30 5 C -0.8159 1.2888 0.0 0
M  V30 6 C 0.0827 -2.5777 0.0 0
M  V30 7 C 2.2821 -1.1942 0.0 0
M  V30 8 C 0.4493 2.1048 0.0 0
M  V30 9 C -2.1048 0.4966 0.0 0
M  V30 10 C -1.6318 2.5777 0.0 0
M  V30 11 O -1.4307 -2.625 0.0 0
M  V30 12 C 0.875 -3.843 0.0 0
M  V30 13 C 3.0744 -2.4595 0.0 0
M  V30 14 C -2.2467 -1.3361 0.0 0
M  V30 15 C 2.3649 -3.772 0.0 0
M  V30 16 C 4.5643 -2.3885 0.0 0
M  V30 17 N 3.1572 -5.0373 0.0 0
M  V30 18 N 5.2501 -1.0524 0.0 0
M  V30 19 C 5.3566 -3.6538 0.0 0
M  V30 20 C 4.6471 -4.9663 0.0 0
M  V30 21 C 6.7401 -0.9814 0.0 0
M  V30 22 C 7.4259 0.3547 0.0 0
M  V30 23 C 7.5323 -2.2467 0.0 0
M  V30 24 C 8.9158 0.4256 0.0 0
M  V30 25 C 9.0222 -2.1757 0.0 0
M  V30 26 N 9.8618 1.5963 0.0 0
M  V30 27 C 9.7081 -0.8395 0.0 0
M  V30 28 C 11.2453 1.0524 0.0 0
M  V30 29 S 11.1507 -0.4611 0.0 0
M  V30 END ATOM
M  V30 BEGIN BOND
M  V30 1 2 1 2
M  V30 2 2 1 3
M  V30 3 1 1 4
M  V30 4 1 1 5
M  V30 5 1 4 6
M  V30 6 2 4 7
M  V30 7 1 5 8
M  V30 8 1 5 9
M  V30 9 1 5 10
M  V30 10 1 6 11
M  V30 11 2 6 12
M  V30 12 1 7 13
M  V30 13 1 11 14
M  V30 14 1 12 15
M  V30 15 2 13 16
M  V30 16 2 15 17
M  V30 17 1 16 18
M  V30 18 1 16 19
M  V30 19 1 17 20
M  V30 20 1 18 21
M  V30 21 2 21 22
M  V30 22 1 21 23
M  V30 23 1 22 24
M  V30 24 2 23 25
M  V30 25 1 24 26
M  V30 26 2 24 27
M  V30 27 2 26 28
M  V30 28 1 27 29
M  V30 29 1 13 15
M  V30 30 2 19 20
M  V30 31 1 25 27
M  V30 32 1 28 29
M  V30 END BOND
M  V30 END CTAB
M  END
>  <Compound ID>
52

>  <Name>


>  <Uniprot>
O43353

>  <Target>
RIPK2

>  <Smiles>
COC1=CC2=NC=CC(NC3=CC=C4SC=NC4=C3)=C2C=C1S(=O)(=O)C(C)(C)C

>  <Kd (nM)>


>  <Assay (Kd)>


>  <Ki (nM)>


>  <Assay (Ki)>


>  <IC50 (nM)>


>  <Assay (IC50)>


>  <EC50 (nM)>


>  <Assay (EC50)>


>  <Article DOI>
10.1038/nchembio.1858

>  <Molecular Weight>
427.551

>  <Exact Mass>
427.102433532

>  <XLogP3>
4.38

>  <Heavy Atom Count>
29

>  <Ring Count>
4

>  <Hydrogen Bond Acceptor Count>
7

>  <Hydrogen Bond Donor Count>
1

>  <Rotatable Bond Count>
4

>  <Topological Polar Surface Area>
81.18

>  <Molecular Formula>
C21H21N3O3S2

>  <InChI>
InChI=1S/C21H21N3O3S2/c1-21(2,3)29(25,26)20-10-14-15(7-8-22-16(14)11-18(20)27-4)24-13-5-6-19-17(9-13)23-12-28-19/h5-12H,1-4H3,(H,22,24)

>  <InChI Key>
QHDKGTSCQKHQIJ-UHFFFAOYSA-N

>  <BindingDB>


>  <PubChem>
60199431

>  <ChEMBL>


$$$$
Compound 98
Actelion Java MolfileCreator 2.0

  0  0  0  0  0  0              0 V3000
M  V30 BEGIN CTAB
M  V30 COUNTS 37 41 0 0 0
M  V30 BEGIN ATOM
M  V30 1 O 0.0 0.0 0.0 0
M  V30 2 C 0.5391 1.4064 0.0 0
M  V30 3 N -0.4102 2.6019 0.0 0
M  V30 4 C 2.0159 1.6408 0.0 0
M  V30 5 C -1.9104 2.3909 0.0 0
M  V30 6 C 2.9418 0.4688 0.0 0
M  V30 7 C 2.555 3.0472 0.0 0
M  V30 8 C -2.4729 1.0079 0.0 0
M  V30 9 C -2.8597 3.5864 0.0 0
M  V30 10 C 4.4185 0.7032 0.0 0
M  V30 11 C 4.0318 3.2817 0.0 0
M  V30 12 C -3.9732 0.7969 0.0 0
M  V30 13 C -4.3599 3.3754 0.0 0
M  V30 14 C 4.9577 2.1096 0.0 0
M  V30 15 N -4.5357 -0.586 0.0 0
M  V30 16 C -4.9225 1.9924 0.0 0
M  V30 17 C 6.4344 2.344 0.0 0
M  V30 18 C -3.6098 -1.758 0.0 0
M  V30 19 C -6.4227 1.7814 0.0 0
M  V30 20 N 7.3603 1.172 0.0 0
M  V30 21 N -2.1331 -1.5236 0.0 0
M  V30 22 N -4.1724 -3.141 0.0 0
M  V30 23 C 6.7978 -0.2109 0.0 0
M  V30 24 C 8.8371 1.4064 0.0 0
M  V30 25 C -1.2071 -2.6956 0.0 0
M  V30 26 C -3.2465 -4.313 0.0 0
M  V30 27 C 7.7237 -1.383 0.0 0
M  V30 28 C 9.763 0.2344 0.0 0
M  V30 29 C 0.2695 -2.4612 0.0 0
M  V30 30 C -1.7697 -4.0786 0.0 0
M  V30 31 N 9.2004 -1.1485 0.0 0
M  V30 32 C 0.8087 -1.0548 0.0 0
M  V30 33 C 1.1954 -3.6333 0.0 0
M  V30 34 C 10.1263 -2.3206 0.0 0
M  V30 35 N 2.2854 -0.8204 0.0 0
M  V30 36 C 2.6722 -3.3989 0.0 0
M  V30 37 C 3.2113 -1.9924 0.0 0
M  V30 END ATOM
M  V30 BEGIN BOND
M  V30 1 2 1 2
M  V30 2 1 2 3
M  V30 3 1 2 4
M  V30 4 1 3 5
M  V30 5 2 4 6
M  V30 6 1 4 7
M  V30 7 2 5 8
M  V30 8 1 5 9
M  V30 9 1 6 10
M  V30 10 2 7 11
M  V30 11 1 8 12
M  V30 12 2 9 13
M  V30 13 2 10 14
M  V30 14 1 12 15
M  V30 15 2 12 16
M  V30 16 1 14 17
M  V30 17 1 15 18
M  V30 18 1 16 19
M  V30 19 1 17 20
M  V30 20 2 18 21
M  V30 21 1 18 22
M  V30 22 1 20 23
M  V30 23 1 20 24
M  V30 24 1 21 25
M  V30 25 2 22 26
M  V30 26 1 23 27
M  V30 27 1 24 28
M  V30 28 1 25 29
M  V30 29 2 25 30
M  V30 30 1 27 31
M  V30 31 2 29 32
M  V30 32 1 29 33
M  V30 33 1 31 34
M  V30 34 1 32 35
M  V30 35 2 33 36
M  V30 36 2 35 37
M  V30 37 1 11 14
M  V30 38 1 13 16
M  V30 39 1 26 30
M  V30 40 1 28 31
M  V30 41 1 36 37
M  V30 END BOND
M  V30 END CTAB
M  END
>  <Compound ID>
53

>  <Name>
imatinib

>  <Uniprot>


>  <Target>
BCR-ABL

>  <Smiles>
CC1=CC=C(NC(=O)C2=CC=C(CN3CCN(C)CC3)C=C2)C=C1NC1=NC=CC(C2=CC=CN=C2)=N1

>  <Kd (nM)>
0.86/36

>  <Assay (Kd)>
Kd of non-phosphorylated/phosphorylated ABL was assessed by KINOMEscan Assay

>  <Ki (nM)>


>  <Assay (Ki)>


>  <IC50 (nM)>


>  <Assay (IC50)>


>  <EC50 (nM)>


>  <Assay (EC50)>


>  <Article DOI>
10.1002/anie.201507634

>  <Molecular Weight>
493.615

>  <Exact Mass>
493.259008612

>  <XLogP3>
3.52

>  <Heavy Atom Count>
37

>  <Ring Count>
5

>  <Hydrogen Bond Acceptor Count>
7

>  <Hydrogen Bond Donor Count>
2

>  <Rotatable Bond Count>
7

>  <Topological Polar Surface Area>
86.28

>  <Molecular Formula>
C29H31N7O

>  <InChI>
InChI=1S/C29H31N7O/c1-21-5-10-25(18-27(21)34-29-31-13-11-26(33-29)24-4-3-12-30-19-24)32-28(37)23-8-6-22(7-9-23)20-36-16-14-35(2)15-17-36/h3-13,18-19H,14-17,20H2,1-2H3,(H,32,37)(H,31,33,34)

>  <InChI Key>
KTUFNOKKBVMGRW-UHFFFAOYSA-N

>  <BindingDB>
13530

>  <PubChem>
5291

>  <ChEMBL>
CHEMBL941

$$$$
Compound 99
Actelion Java MolfileCreator 2.0

  0  0  0  0  0  0              0 V3000
M  V30 BEGIN CTAB
M  V30 COUNTS 37 41 0 0 0
M  V30 BEGIN ATOM
M  V30 1 F 0.0 0.0 0.0 0
M  V30 2 C -0.9043 -1.1861 0.0 0
M  V30 3 C -2.3958 -0.9982 0.0 0
M  V30 4 C -0.3288 -2.5484 0.0 0
M  V30 5 N -3.3001 -2.1844 0.0 0
M  V30 6 C -2.9947 0.3875 0.0 0
M  V30 7 N -1.2331 -3.7346 0.0 0
M  V30 8 C -2.7246 -3.5467 0.0 0
M  V30 9 C -2.1139 1.5972 0.0 0
M  V30 10 C -4.4862 0.5754 0.0 0
M  V30 11 N -3.6289 -4.7328 0.0 0
M  V30 12 C -2.7129 2.983 0.0 0
M  V30 13 C -5.0852 1.9612 0.0 0
M  V30 14 C -5.1204 -4.5449 0.0 0
M  V30 15 F -1.832 4.1926 0.0 0
M  V30 16 C -4.2044 3.1709 0.0 0
M  V30 17 N -6.5062 2.4545 0.0 0
M  V30 18 N -5.7194 -3.1591 0.0 0
M  V30 19 C -6.0247 -5.7311 0.0 0
M  V30 20 N -5.0734 4.404 0.0 0
M  V30 21 C -6.4945 3.9577 0.0 0
M  V30 22 C -7.7394 1.6089 0.0 0
M  V30 23 C -7.2109 -2.9712 0.0 0
M  V30 24 C -7.5162 -5.5432 0.0 0
M  V30 25 C -7.7041 4.862 0.0 0
M  V30 26 C -9.1017 2.2431 0.0 0
M  V30 27 C -7.6102 0.1409 0.0 0
M  V30 28 C -8.1152 -4.1574 0.0 0
M  V30 29 C -9.6067 -3.9695 0.0 0
M  V30 30 N -10.2056 -2.5837 0.0 0
M  V30 31 C -9.3248 -1.374 0.0 0
M  V30 32 C -11.6971 -2.3958 0.0 0
M  V30 33 C -9.9238 0.0117 0.0 0
M  V30 34 C -12.2961 -1.0099 0.0 0
M  V30 35 N -11.4153 0.1996 0.0 0
M  V30 36 C -12.0142 1.5854 0.0 0
M  V30 37 C -13.5057 1.7733 0.0 0
M  V30 END ATOM
M  V30 BEGIN BOND
M  V30 1 1 1 2
M  V30 2 2 2 3
M  V30 3 1 2 4
M  V30 4 1 3 5
M  V30 5 1 3 6
M  V30 6 2 4 7
M  V30 7 2 5 8
M  V30 8 2 6 9
M  V30 9 1 6 10
M  V30 10 1 8 11
M  V30 11 1 9 12
M  V30 12 2 10 13
M  V30 13 1 11 14
M  V30 14 1 12 15
M  V30 15 2 12 16
M  V30 16 1 13 17
M  V30 17 2 14 18
M  V30 18 1 14 19
M  V30 19 1 16 20
M  V30 20 1 17 21
M  V30 21 1 17 22
M  V30 22 1 18 23
M  V30 23 2 19 24
M  V30 24 1 21 25
M  V30 25 1 22 26
M  V30 26 1 22 27
M  V30 27 2 23 28
M  V30 28 1 28 29
M  V30 29 1 29 30
M  V30 30 1 30 31
M  V30 31 1 30 32
M  V30 32 1 31 33
M  V30 33 1 32 34
M  V30 34 1 33 35
M  V30 35 1 35 36
M  V30 36 1 36 37
M  V30 37 1 7 8
M  V30 38 1 13 16
M  V30 39 2 20 21
M  V30 40 1 24 28
M  V30 41 1 34 35
M  V30 END BOND
M  V30 END CTAB
M  END
>  <Compound ID>
54

>  <Name>
Abemaciclib

>  <Uniprot>
P11802

>  <Target>
CDK4

>  <Smiles>
CCN1CCN(CC2=CC=C(NC3=NC=C(F)C(C4=CC(F)=C5N=C(C)N(C(C)C)C5=C4)=N3)N=C2)CC1

>  <Kd (nM)>


>  <Assay (Kd)>


>  <Ki (nM)>
0.6

>  <Assay (Ki)>
Ki of CDK4/cyclinD1 was measured by the phosphorylation of CTRF using ATP

>  <IC50 (nM)>
2

>  <Assay (IC50)>
IC50 of human CDK4/cyclin D1 expressed in insect cells was assessed by microplate scintillation counter

>  <EC50 (nM)>


>  <Assay (EC50)>


>  <Article DOI>
10.1007/s10637-014-0120-7

>  <Molecular Weight>
506.605

>  <Exact Mass>
506.271799464

>  <XLogP3>
3.84

>  <Heavy Atom Count>
37

>  <Ring Count>
5

>  <Hydrogen Bond Acceptor Count>
8

>  <Hydrogen Bond Donor Count>
1

>  <Rotatable Bond Count>
7

>  <Topological Polar Surface Area>
75.0

>  <Molecular Formula>
C27H32F2N8

>  <InChI>
InChI=1S/C27H32F2N8/c1-5-35-8-10-36(11-9-35)16-19-6-7-24(30-14-19)33-27-31-15-22(29)25(34-27)20-12-21(28)26-23(13-20)37(17(2)3)18(4)32-26/h6-7,12-15,17H,5,8-11,16H2,1-4H3,(H,30,31,33,34)

>  <InChI Key>
UZWDCWONPYILKI-UHFFFAOYSA-N

>  <BindingDB>
50110183

>  <PubChem>
46220502

>  <ChEMBL>
CHEMBL3301610

$$$$
Compound 100
Actelion Java MolfileCreator 2.0

  0  0  0  0  0  0              0 V3000
M  V30 BEGIN CTAB
M  V30 COUNTS 37 41 0 0 0
M  V30 BEGIN ATOM
M  V30 1 F 0.0 0.0 0.0 0
M  V30 2 C -0.9043 -1.1861 0.0 0
M  V30 3 C -2.3958 -0.9982 0.0 0
M  V30 4 C -0.3288 -2.5484 0.0 0
M  V30 5 N -3.3001 -2.1844 0.0 0
M  V30 6 C -2.9947 0.3875 0.0 0
M  V30 7 N -1.2331 -3.7346 0.0 0
M  V30 8 C -2.7246 -3.5467 0.0 0
M  V30 9 C -2.1139 1.5972 0.0 0
M  V30 10 C -4.4862 0.5754 0.0 0
M  V30 11 N -3.6289 -4.7328 0.0 0
M  V30 12 C -2.7129 2.983 0.0 0
M  V30 13 C -5.0852 1.9612 0.0 0
M  V30 14 C -5.1204 -4.5449 0.0 0
M  V30 15 F -1.832 4.1926 0.0 0
M  V30 16 C -4.2044 3.1709 0.0 0
M  V30 17 N -6.5062 2.4545 0.0 0
M  V30 18 N -5.7194 -3.1591 0.0 0
M  V30 19 C -6.0247 -5.7311 0.0 0
M  V30 20 N -5.0734 4.404 0.0 0
M  V30 21 C -6.4945 3.9577 0.0 0
M  V30 22 C -7.7394 1.6089 0.0 0
M  V30 23 C -7.2109 -2.9712 0.0 0
M  V30 24 C -7.5162 -5.5432 0.0 0
M  V30 25 C -7.7041 4.862 0.0 0
M  V30 26 C -9.1017 2.2431 0.0 0
M  V30 27 C -7.6102 0.1409 0.0 0
M  V30 28 C -8.1152 -4.1574 0.0 0
M  V30 29 C -9.6067 -3.9695 0.0 0
M  V30 30 N -10.2056 -2.5837 0.0 0
M  V30 31 C -9.3248 -1.374 0.0 0
M  V30 32 C -11.6971 -2.3958 0.0 0
M  V30 33 C -9.9238 0.0117 0.0 0
M  V30 34 C -12.2961 -1.0099 0.0 0
M  V30 35 N -11.4153 0.1996 0.0 0
M  V30 36 C -12.0142 1.5854 0.0 0
M  V30 37 C -13.5057 1.7733 0.0 0
M  V30 END ATOM
M  V30 BEGIN BOND
M  V30 1 1 1 2
M  V30 2 2 2 3
M  V30 3 1 2 4
M  V30 4 1 3 5
M  V30 5 1 3 6
M  V30 6 2 4 7
M  V30 7 2 5 8
M  V30 8 2 6 9
M  V30 9 1 6 10
M  V30 10 1 8 11
M  V30 11 1 9 12
M  V30 12 2 10 13
M  V30 13 1 11 14
M  V30 14 1 12 15
M  V30 15 2 12 16
M  V30 16 1 13 17
M  V30 17 2 14 18
M  V30 18 1 14 19
M  V30 19 1 16 20
M  V30 20 1 17 21
M  V30 21 1 17 22
M  V30 22 1 18 23
M  V30 23 2 19 24
M  V30 24 1 21 25
M  V30 25 1 22 26
M  V30 26 1 22 27
M  V30 27 2 23 28
M  V30 28 1 28 29
M  V30 29 1 29 30
M  V30 30 1 30 31
M  V30 31 1 30 32
M  V30 32 1 31 33
M  V30 33 1 32 34
M  V30 34 1 33 35
M  V30 35 1 35 36
M  V30 36 1 36 37
M  V30 37 1 7 8
M  V30 38 1 13 16
M  V30 39 2 20 21
M  V30 40 1 24 28
M  V30 41 1 34 35
M  V30 END BOND
M  V30 END CTAB
M  END
>  <Compound ID>
54

>  <Name>
Abemaciclib

>  <Uniprot>
Q00534

>  <Target>
CDK6

>  <Smiles>
CCN1CCN(CC2=CC=C(NC3=NC=C(F)C(C4=CC(F)=C5N=C(C)N(C(C)C)C5=C4)=N3)N=C2)CC1

>  <Kd (nM)>


>  <Assay (Kd)>


>  <Ki (nM)>
2.4

>  <Assay (Ki)>
Ki of CDK6/cyclinD1 was measured by the phosphorylation of CTRF using ATP

>  <IC50 (nM)>
9.9

>  <Assay (IC50)>
IC50 of human CDK6/cyclin D1 expressed in insect cells was assessed by microplate scintillation counter

>  <EC50 (nM)>


>  <Assay (EC50)>


>  <Article DOI>
10.1007/s10637-014-0120-7

>  <Molecular Weight>
506.605

>  <Exact Mass>
506.271799464

>  <XLogP3>
3.84

>  <Heavy Atom Count>
37

>  <Ring Count>
5

>  <Hydrogen Bond Acceptor Count>
8

>  <Hydrogen Bond Donor Count>
1

>  <Rotatable Bond Count>
7

>  <Topological Polar Surface Area>
75.0

>  <Molecular Formula>
C27H32F2N8

>  <InChI>
InChI=1S/C27H32F2N8/c1-5-35-8-10-36(11-9-35)16-19-6-7-24(30-14-19)33-27-31-15-22(29)25(34-27)20-12-21(28)26-23(13-20)37(17(2)3)18(4)32-26/h6-7,12-15,17H,5,8-11,16H2,1-4H3,(H,30,31,33,34)

>  <InChI Key>
UZWDCWONPYILKI-UHFFFAOYSA-N

>  <BindingDB>
50110183

>  <PubChem>
46220502

>  <ChEMBL>
CHEMBL3301610

$$$$
Compound 101
Actelion Java MolfileCreator 2.0

  0  0  0  0  0  0              0 V3000
M  V30 BEGIN CTAB
M  V30 COUNTS 32 36 0 0 0
M  V30 BEGIN ATOM
M  V30 1 O 0.0 0.0 0.0 0
M  V30 2 C 0.3778 1.4642 0.0 0
M  V30 3 N -0.6966 2.5387 0.0 0
M  V30 4 C 1.8184 1.8539 0.0 0
M  V30 5 C -2.1609 2.1727 0.0 0
M  V30 6 C -0.3188 4.003 0.0 0
M  V30 7 N 2.3498 3.2708 0.0 0
M  V30 8 C 2.9756 0.921 0.0 0
M  V30 9 C 3.8376 3.2 0.0 0
M  V30 10 C 1.5232 4.5461 0.0 0
M  V30 11 C 4.2273 1.7476 0.0 0
M  V30 12 N 4.8886 4.2746 0.0 0
M  V30 13 C 0.0118 4.6406 0.0 0
M  V30 14 C 2.0546 5.9631 0.0 0
M  V30 15 C 5.6679 1.3697 0.0 0
M  V30 16 C 6.3292 3.8967 0.0 0
M  V30 17 C -0.3778 6.1048 0.0 0
M  V30 18 C 0.8738 6.9196 0.0 0
M  V30 19 N 6.7189 2.4443 0.0 0
M  V30 20 N 7.3801 4.9712 0.0 0
M  V30 21 C 8.8208 4.5934 0.0 0
M  V30 22 N 9.8717 5.6679 0.0 0
M  V30 23 C 9.1868 3.1528 0.0 0
M  V30 24 C 11.3123 5.2901 0.0 0
M  V30 25 C 10.6274 2.7749 0.0 0
M  V30 26 C 11.6784 3.8495 0.0 0
M  V30 27 N 13.119 3.4716 0.0 0
M  V30 28 C 13.485 2.031 0.0 0
M  V30 29 C 14.1699 4.5461 0.0 0
M  V30 30 C 14.9256 1.6531 0.0 0
M  V30 31 C 15.6105 4.1683 0.0 0
M  V30 32 N 15.9766 2.7277 0.0 0
M  V30 END ATOM
M  V30 BEGIN BOND
M  V30 1 2 1 2
M  V30 2 1 2 3
M  V30 3 1 2 4
M  V30 4 1 3 5
M  V30 5 1 3 6
M  V30 6 1 4 7
M  V30 7 2 4 8
M  V30 8 1 7 9
M  V30 9 1 7 10
M  V30 10 1 8 11
M  V30 11 1 9 12
M  V30 12 1 10 13
M  V30 13 1 10 14
M  V30 14 1 11 15
M  V30 15 2 12 16
M  V30 16 1 13 17
M  V30 17 1 14 18
M  V30 18 2 15 19
M  V30 19 1 16 20
M  V30 20 1 20 21
M  V30 21 2 21 22
M  V30 22 1 21 23
M  V30 23 1 22 24
M  V30 24 2 23 25
M  V30 25 2 24 26
M  V30 26 1 26 27
M  V30 27 1 27 28
M  V30 28 1 27 29
M  V30 29 1 28 30
M  V30 30 1 29 31
M  V30 31 1 30 32
M  V30 32 2 9 11
M  V30 33 1 16 19
M  V30 34 1 17 18
M  V30 35 1 25 26
M  V30 36 1 31 32
M  V30 END BOND
M  V30 END CTAB
M  END
>  <Compound ID>
55

>  <Name>
Ribociclib

>  <Uniprot>
O14874

>  <Target>
BCKDK

>  <Smiles>
CN(C)C(=O)C1=CC2=CN=C(NC3=CC=C(N4CCNCC4)C=N3)N=C2N1C1CCCC1

>  <Kd (nM)>


>  <Assay (Kd)>


>  <Ki (nM)>


>  <Assay (Ki)>


>  <IC50 (nM)>


>  <Assay (IC50)>


>  <EC50 (nM)>


>  <Assay (EC50)>


>  <Article DOI>
10.1016/j.cell.2020.10.038

>  <Molecular Weight>
434.548

>  <Exact Mass>
434.25425758

>  <XLogP3>
2.19

>  <Heavy Atom Count>
32

>  <Ring Count>
5

>  <Hydrogen Bond Acceptor Count>
8

>  <Hydrogen Bond Donor Count>
2

>  <Rotatable Bond Count>
5

>  <Topological Polar Surface Area>
91.21

>  <Molecular Formula>
C23H30N8O

>  <InChI>
InChI=1S/C23H30N8O/c1-29(2)22(32)19-13-16-14-26-23(28-21(16)31(19)17-5-3-4-6-17)27-20-8-7-18(15-25-20)30-11-9-24-10-12-30/h7-8,13-15,17,24H,3-6,9-12H2,1-2H3,(H,25,26,27,28)

>  <InChI Key>
RHXHGRAEPCAFML-UHFFFAOYSA-N

>  <BindingDB>
148264

>  <PubChem>
44631912

>  <ChEMBL>
CHEMBL3545110

$$$$
Compound 102
Actelion Java MolfileCreator 2.0

  0  0  0  0  0  0              0 V3000
M  V30 BEGIN CTAB
M  V30 COUNTS 32 36 0 0 0
M  V30 BEGIN ATOM
M  V30 1 O 0.0 0.0 0.0 0
M  V30 2 C 0.3778 1.4642 0.0 0
M  V30 3 N -0.6966 2.5387 0.0 0
M  V30 4 C 1.8184 1.8539 0.0 0
M  V30 5 C -2.1609 2.1727 0.0 0
M  V30 6 C -0.3188 4.003 0.0 0
M  V30 7 N 2.3498 3.2708 0.0 0
M  V30 8 C 2.9756 0.921 0.0 0
M  V30 9 C 3.8376 3.2 0.0 0
M  V30 10 C 1.5232 4.5461 0.0 0
M  V30 11 C 4.2273 1.7476 0.0 0
M  V30 12 N 4.8886 4.2746 0.0 0
M  V30 13 C 0.0118 4.6406 0.0 0
M  V30 14 C 2.0546 5.9631 0.0 0
M  V30 15 C 5.6679 1.3697 0.0 0
M  V30 16 C 6.3292 3.8967 0.0 0
M  V30 17 C -0.3778 6.1048 0.0 0
M  V30 18 C 0.8738 6.9196 0.0 0
M  V30 19 N 6.7189 2.4443 0.0 0
M  V30 20 N 7.3801 4.9712 0.0 0
M  V30 21 C 8.8208 4.5934 0.0 0
M  V30 22 N 9.8717 5.6679 0.0 0
M  V30 23 C 9.1868 3.1528 0.0 0
M  V30 24 C 11.3123 5.2901 0.0 0
M  V30 25 C 10.6274 2.7749 0.0 0
M  V30 26 C 11.6784 3.8495 0.0 0
M  V30 27 N 13.119 3.4716 0.0 0
M  V30 28 C 13.485 2.031 0.0 0
M  V30 29 C 14.1699 4.5461 0.0 0
M  V30 30 C 14.9256 1.6531 0.0 0
M  V30 31 C 15.6105 4.1683 0.0 0
M  V30 32 N 15.9766 2.7277 0.0 0
M  V30 END ATOM
M  V30 BEGIN BOND
M  V30 1 2 1 2
M  V30 2 1 2 3
M  V30 3 1 2 4
M  V30 4 1 3 5
M  V30 5 1 3 6
M  V30 6 1 4 7
M  V30 7 2 4 8
M  V30 8 1 7 9
M  V30 9 1 7 10
M  V30 10 1 8 11
M  V30 11 1 9 12
M  V30 12 1 10 13
M  V30 13 1 10 14
M  V30 14 1 11 15
M  V30 15 2 12 16
M  V30 16 1 13 17
M  V30 17 1 14 18
M  V30 18 2 15 19
M  V30 19 1 16 20
M  V30 20 1 20 21
M  V30 21 2 21 22
M  V30 22 1 21 23
M  V30 23 1 22 24
M  V30 24 2 23 25
M  V30 25 2 24 26
M  V30 26 1 26 27
M  V30 27 1 27 28
M  V30 28 1 27 29
M  V30 29 1 28 30
M  V30 30 1 29 31
M  V30 31 1 30 32
M  V30 32 2 9 11
M  V30 33 1 16 19
M  V30 34 1 17 18
M  V30 35 1 25 26
M  V30 36 1 31 32
M  V30 END BOND
M  V30 END CTAB
M  END
>  <Compound ID>
55

>  <Name>
Ribociclib

>  <Uniprot>
P11802

>  <Target>
CDK4

>  <Smiles>
CN(C)C(=O)C1=CC2=CN=C(NC3=CC=C(N4CCNCC4)C=N3)N=C2N1C1CCCC1

>  <Kd (nM)>


>  <Assay (Kd)>


>  <Ki (nM)>


>  <Assay (Ki)>


>  <IC50 (nM)>
10

>  <Assay (IC50)>
IC50 of CDK4

>  <EC50 (nM)>


>  <Assay (EC50)>


>  <Article DOI>
10.1016/j.bmcl.2015.05.100

>  <Molecular Weight>
434.548

>  <Exact Mass>
434.25425758

>  <XLogP3>
2.19

>  <Heavy Atom Count>
32

>  <Ring Count>
5

>  <Hydrogen Bond Acceptor Count>
8

>  <Hydrogen Bond Donor Count>
2

>  <Rotatable Bond Count>
5

>  <Topological Polar Surface Area>
91.21

>  <Molecular Formula>
C23H30N8O

>  <InChI>
InChI=1S/C23H30N8O/c1-29(2)22(32)19-13-16-14-26-23(28-21(16)31(19)17-5-3-4-6-17)27-20-8-7-18(15-25-20)30-11-9-24-10-12-30/h7-8,13-15,17,24H,3-6,9-12H2,1-2H3,(H,25,26,27,28)

>  <InChI Key>
RHXHGRAEPCAFML-UHFFFAOYSA-N

>  <BindingDB>
148264

>  <PubChem>
44631912

>  <ChEMBL>
CHEMBL3545110

$$$$
Compound 103
Actelion Java MolfileCreator 2.0

  0  0  0  0  0  0              0 V3000
M  V30 BEGIN CTAB
M  V30 COUNTS 32 36 0 0 0
M  V30 BEGIN ATOM
M  V30 1 O 0.0 0.0 0.0 0
M  V30 2 C 0.3778 1.4642 0.0 0
M  V30 3 N -0.6966 2.5387 0.0 0
M  V30 4 C 1.8184 1.8539 0.0 0
M  V30 5 C -2.1609 2.1727 0.0 0
M  V30 6 C -0.3188 4.003 0.0 0
M  V30 7 N 2.3498 3.2708 0.0 0
M  V30 8 C 2.9756 0.921 0.0 0
M  V30 9 C 3.8376 3.2 0.0 0
M  V30 10 C 1.5232 4.5461 0.0 0
M  V30 11 C 4.2273 1.7476 0.0 0
M  V30 12 N 4.8886 4.2746 0.0 0
M  V30 13 C 0.0118 4.6406 0.0 0
M  V30 14 C 2.0546 5.9631 0.0 0
M  V30 15 C 5.6679 1.3697 0.0 0
M  V30 16 C 6.3292 3.8967 0.0 0
M  V30 17 C -0.3778 6.1048 0.0 0
M  V30 18 C 0.8738 6.9196 0.0 0
M  V30 19 N 6.7189 2.4443 0.0 0
M  V30 20 N 7.3801 4.9712 0.0 0
M  V30 21 C 8.8208 4.5934 0.0 0
M  V30 22 N 9.8717 5.6679 0.0 0
M  V30 23 C 9.1868 3.1528 0.0 0
M  V30 24 C 11.3123 5.2901 0.0 0
M  V30 25 C 10.6274 2.7749 0.0 0
M  V30 26 C 11.6784 3.8495 0.0 0
M  V30 27 N 13.119 3.4716 0.0 0
M  V30 28 C 13.485 2.031 0.0 0
M  V30 29 C 14.1699 4.5461 0.0 0
M  V30 30 C 14.9256 1.6531 0.0 0
M  V30 31 C 15.6105 4.1683 0.0 0
M  V30 32 N 15.9766 2.7277 0.0 0
M  V30 END ATOM
M  V30 BEGIN BOND
M  V30 1 2 1 2
M  V30 2 1 2 3
M  V30 3 1 2 4
M  V30 4 1 3 5
M  V30 5 1 3 6
M  V30 6 1 4 7
M  V30 7 2 4 8
M  V30 8 1 7 9
M  V30 9 1 7 10
M  V30 10 1 8 11
M  V30 11 1 9 12
M  V30 12 1 10 13
M  V30 13 1 10 14
M  V30 14 1 11 15
M  V30 15 2 12 16
M  V30 16 1 13 17
M  V30 17 1 14 18
M  V30 18 2 15 19
M  V30 19 1 16 20
M  V30 20 1 20 21
M  V30 21 2 21 22
M  V30 22 1 21 23
M  V30 23 1 22 24
M  V30 24 2 23 25
M  V30 25 2 24 26
M  V30 26 1 26 27
M  V30 27 1 27 28
M  V30 28 1 27 29
M  V30 29 1 28 30
M  V30 30 1 29 31
M  V30 31 1 30 32
M  V30 32 2 9 11
M  V30 33 1 16 19
M  V30 34 1 17 18
M  V30 35 1 25 26
M  V30 36 1 31 32
M  V30 END BOND
M  V30 END CTAB
M  END
>  <Compound ID>
55

>  <Name>
Ribociclib

>  <Uniprot>
Q00534

>  <Target>
CDK6

>  <Smiles>
CN(C)C(=O)C1=CC2=CN=C(NC3=CC=C(N4CCNCC4)C=N3)N=C2N1C1CCCC1

>  <Kd (nM)>


>  <Assay (Kd)>


>  <Ki (nM)>


>  <Assay (Ki)>


>  <IC50 (nM)>
39

>  <Assay (IC50)>
IC50 of CDK6

>  <EC50 (nM)>


>  <Assay (EC50)>


>  <Article DOI>
10.1016/j.bmcl.2015.05.100

>  <Molecular Weight>
434.548

>  <Exact Mass>
434.25425758

>  <XLogP3>
2.19

>  <Heavy Atom Count>
32

>  <Ring Count>
5

>  <Hydrogen Bond Acceptor Count>
8

>  <Hydrogen Bond Donor Count>
2

>  <Rotatable Bond Count>
5

>  <Topological Polar Surface Area>
91.21

>  <Molecular Formula>
C23H30N8O

>  <InChI>
InChI=1S/C23H30N8O/c1-29(2)22(32)19-13-16-14-26-23(28-21(16)31(19)17-5-3-4-6-17)27-20-8-7-18(15-25-20)30-11-9-24-10-12-30/h7-8,13-15,17,24H,3-6,9-12H2,1-2H3,(H,25,26,27,28)

>  <InChI Key>
RHXHGRAEPCAFML-UHFFFAOYSA-N

>  <BindingDB>
148264

>  <PubChem>
44631912

>  <ChEMBL>
CHEMBL3545110

$$$$
Compound 104
Actelion Java MolfileCreator 2.0

  0  0  0  0  0  0              0 V3000
M  V30 BEGIN CTAB
M  V30 COUNTS 32 36 0 0 0
M  V30 BEGIN ATOM
M  V30 1 O 0.0 0.0 0.0 0
M  V30 2 C 0.3778 1.4642 0.0 0
M  V30 3 N -0.6966 2.5387 0.0 0
M  V30 4 C 1.8184 1.8539 0.0 0
M  V30 5 C -2.1609 2.1727 0.0 0
M  V30 6 C -0.3188 4.003 0.0 0
M  V30 7 N 2.3498 3.2708 0.0 0
M  V30 8 C 2.9756 0.921 0.0 0
M  V30 9 C 3.8376 3.2 0.0 0
M  V30 10 C 1.5232 4.5461 0.0 0
M  V30 11 C 4.2273 1.7476 0.0 0
M  V30 12 N 4.8886 4.2746 0.0 0
M  V30 13 C 0.0118 4.6406 0.0 0
M  V30 14 C 2.0546 5.9631 0.0 0
M  V30 15 C 5.6679 1.3697 0.0 0
M  V30 16 C 6.3292 3.8967 0.0 0
M  V30 17 C -0.3778 6.1048 0.0 0
M  V30 18 C 0.8738 6.9196 0.0 0
M  V30 19 N 6.7189 2.4443 0.0 0
M  V30 20 N 7.3801 4.9712 0.0 0
M  V30 21 C 8.8208 4.5934 0.0 0
M  V30 22 N 9.8717 5.6679 0.0 0
M  V30 23 C 9.1868 3.1528 0.0 0
M  V30 24 C 11.3123 5.2901 0.0 0
M  V30 25 C 10.6274 2.7749 0.0 0
M  V30 26 C 11.6784 3.8495 0.0 0
M  V30 27 N 13.119 3.4716 0.0 0
M  V30 28 C 13.485 2.031 0.0 0
M  V30 29 C 14.1699 4.5461 0.0 0
M  V30 30 C 14.9256 1.6531 0.0 0
M  V30 31 C 15.6105 4.1683 0.0 0
M  V30 32 N 15.9766 2.7277 0.0 0
M  V30 END ATOM
M  V30 BEGIN BOND
M  V30 1 2 1 2
M  V30 2 1 2 3
M  V30 3 1 2 4
M  V30 4 1 3 5
M  V30 5 1 3 6
M  V30 6 1 4 7
M  V30 7 2 4 8
M  V30 8 1 7 9
M  V30 9 1 7 10
M  V30 10 1 8 11
M  V30 11 1 9 12
M  V30 12 1 10 13
M  V30 13 1 10 14
M  V30 14 1 11 15
M  V30 15 2 12 16
M  V30 16 1 13 17
M  V30 17 1 14 18
M  V30 18 2 15 19
M  V30 19 1 16 20
M  V30 20 1 20 21
M  V30 21 2 21 22
M  V30 22 1 21 23
M  V30 23 1 22 24
M  V30 24 2 23 25
M  V30 25 2 24 26
M  V30 26 1 26 27
M  V30 27 1 27 28
M  V30 28 1 27 29
M  V30 29 1 28 30
M  V30 30 1 29 31
M  V30 31 1 30 32
M  V30 32 2 9 11
M  V30 33 1 16 19
M  V30 34 1 17 18
M  V30 35 1 25 26
M  V30 36 1 31 32
M  V30 END BOND
M  V30 END CTAB
M  END
>  <Compound ID>
55

>  <Name>
Ribociclib

>  <Uniprot>
Q8NI60

>  <Target>
COQ8A

>  <Smiles>
CN(C)C(=O)C1=CC2=CN=C(NC3=CC=C(N4CCNCC4)C=N3)N=C2N1C1CCCC1

>  <Kd (nM)>


>  <Assay (Kd)>


>  <Ki (nM)>


>  <Assay (Ki)>


>  <IC50 (nM)>


>  <Assay (IC50)>


>  <EC50 (nM)>


>  <Assay (EC50)>


>  <Article DOI>
10.1016/j.cell.2020.10.038

>  <Molecular Weight>
434.548

>  <Exact Mass>
434.25425758

>  <XLogP3>
2.19

>  <Heavy Atom Count>
32

>  <Ring Count>
5

>  <Hydrogen Bond Acceptor Count>
8

>  <Hydrogen Bond Donor Count>
2

>  <Rotatable Bond Count>
5

>  <Topological Polar Surface Area>
91.21

>  <Molecular Formula>
C23H30N8O

>  <InChI>
InChI=1S/C23H30N8O/c1-29(2)22(32)19-13-16-14-26-23(28-21(16)31(19)17-5-3-4-6-17)27-20-8-7-18(15-25-20)30-11-9-24-10-12-30/h7-8,13-15,17,24H,3-6,9-12H2,1-2H3,(H,25,26,27,28)

>  <InChI Key>
RHXHGRAEPCAFML-UHFFFAOYSA-N

>  <BindingDB>
148264

>  <PubChem>
44631912

>  <ChEMBL>
CHEMBL3545110

$$$$
Compound 105
Actelion Java MolfileCreator 2.0

  0  0  0  0  0  0              0 V3000
M  V30 BEGIN CTAB
M  V30 COUNTS 32 36 0 0 0
M  V30 BEGIN ATOM
M  V30 1 O 0.0 0.0 0.0 0
M  V30 2 C 0.3778 1.4642 0.0 0
M  V30 3 N -0.6966 2.5387 0.0 0
M  V30 4 C 1.8184 1.8539 0.0 0
M  V30 5 C -2.1609 2.1727 0.0 0
M  V30 6 C -0.3188 4.003 0.0 0
M  V30 7 N 2.3498 3.2708 0.0 0
M  V30 8 C 2.9756 0.921 0.0 0
M  V30 9 C 3.8376 3.2 0.0 0
M  V30 10 C 1.5232 4.5461 0.0 0
M  V30 11 C 4.2273 1.7476 0.0 0
M  V30 12 N 4.8886 4.2746 0.0 0
M  V30 13 C 0.0118 4.6406 0.0 0
M  V30 14 C 2.0546 5.9631 0.0 0
M  V30 15 C 5.6679 1.3697 0.0 0
M  V30 16 C 6.3292 3.8967 0.0 0
M  V30 17 C -0.3778 6.1048 0.0 0
M  V30 18 C 0.8738 6.9196 0.0 0
M  V30 19 N 6.7189 2.4443 0.0 0
M  V30 20 N 7.3801 4.9712 0.0 0
M  V30 21 C 8.8208 4.5934 0.0 0
M  V30 22 N 9.8717 5.6679 0.0 0
M  V30 23 C 9.1868 3.1528 0.0 0
M  V30 24 C 11.3123 5.2901 0.0 0
M  V30 25 C 10.6274 2.7749 0.0 0
M  V30 26 C 11.6784 3.8495 0.0 0
M  V30 27 N 13.119 3.4716 0.0 0
M  V30 28 C 13.485 2.031 0.0 0
M  V30 29 C 14.1699 4.5461 0.0 0
M  V30 30 C 14.9256 1.6531 0.0 0
M  V30 31 C 15.6105 4.1683 0.0 0
M  V30 32 N 15.9766 2.7277 0.0 0
M  V30 END ATOM
M  V30 BEGIN BOND
M  V30 1 2 1 2
M  V30 2 1 2 3
M  V30 3 1 2 4
M  V30 4 1 3 5
M  V30 5 1 3 6
M  V30 6 1 4 7
M  V30 7 2 4 8
M  V30 8 1 7 9
M  V30 9 1 7 10
M  V30 10 1 8 11
M  V30 11 1 9 12
M  V30 12 1 10 13
M  V30 13 1 10 14
M  V30 14 1 11 15
M  V30 15 2 12 16
M  V30 16 1 13 17
M  V30 17 1 14 18
M  V30 18 2 15 19
M  V30 19 1 16 20
M  V30 20 1 20 21
M  V30 21 2 21 22
M  V30 22 1 21 23
M  V30 23 1 22 24
M  V30 24 2 23 25
M  V30 25 2 24 26
M  V30 26 1 26 27
M  V30 27 1 27 28
M  V30 28 1 27 29
M  V30 29 1 28 30
M  V30 30 1 29 31
M  V30 31 1 30 32
M  V30 32 2 9 11
M  V30 33 1 16 19
M  V30 34 1 17 18
M  V30 35 1 25 26
M  V30 36 1 31 32
M  V30 END BOND
M  V30 END CTAB
M  END
>  <Compound ID>
55

>  <Name>
Ribociclib

>  <Uniprot>
Q15118

>  <Target>
PDK1

>  <Smiles>
CN(C)C(=O)C1=CC2=CN=C(NC3=CC=C(N4CCNCC4)C=N3)N=C2N1C1CCCC1

>  <Kd (nM)>


>  <Assay (Kd)>


>  <Ki (nM)>


>  <Assay (Ki)>


>  <IC50 (nM)>


>  <Assay (IC50)>


>  <EC50 (nM)>


>  <Assay (EC50)>


>  <Article DOI>
10.1016/j.cell.2020.10.038

>  <Molecular Weight>
434.548

>  <Exact Mass>
434.25425758

>  <XLogP3>
2.19

>  <Heavy Atom Count>
32

>  <Ring Count>
5

>  <Hydrogen Bond Acceptor Count>
8

>  <Hydrogen Bond Donor Count>
2

>  <Rotatable Bond Count>
5

>  <Topological Polar Surface Area>
91.21

>  <Molecular Formula>
C23H30N8O

>  <InChI>
InChI=1S/C23H30N8O/c1-29(2)22(32)19-13-16-14-26-23(28-21(16)31(19)17-5-3-4-6-17)27-20-8-7-18(15-25-20)30-11-9-24-10-12-30/h7-8,13-15,17,24H,3-6,9-12H2,1-2H3,(H,25,26,27,28)

>  <InChI Key>
RHXHGRAEPCAFML-UHFFFAOYSA-N

>  <BindingDB>
148264

>  <PubChem>
44631912

>  <ChEMBL>
CHEMBL3545110

$$$$
Compound 106
Actelion Java MolfileCreator 2.0

  0  0  0  0  0  0              0 V3000
M  V30 BEGIN CTAB
M  V30 COUNTS 32 36 0 0 0
M  V30 BEGIN ATOM
M  V30 1 O 0.0 0.0 0.0 0
M  V30 2 C 0.3778 1.4642 0.0 0
M  V30 3 N -0.6966 2.5387 0.0 0
M  V30 4 C 1.8184 1.8539 0.0 0
M  V30 5 C -2.1609 2.1727 0.0 0
M  V30 6 C -0.3188 4.003 0.0 0
M  V30 7 N 2.3498 3.2708 0.0 0
M  V30 8 C 2.9756 0.921 0.0 0
M  V30 9 C 3.8376 3.2 0.0 0
M  V30 10 C 1.5232 4.5461 0.0 0
M  V30 11 C 4.2273 1.7476 0.0 0
M  V30 12 N 4.8886 4.2746 0.0 0
M  V30 13 C 0.0118 4.6406 0.0 0
M  V30 14 C 2.0546 5.9631 0.0 0
M  V30 15 C 5.6679 1.3697 0.0 0
M  V30 16 C 6.3292 3.8967 0.0 0
M  V30 17 C -0.3778 6.1048 0.0 0
M  V30 18 C 0.8738 6.9196 0.0 0
M  V30 19 N 6.7189 2.4443 0.0 0
M  V30 20 N 7.3801 4.9712 0.0 0
M  V30 21 C 8.8208 4.5934 0.0 0
M  V30 22 N 9.8717 5.6679 0.0 0
M  V30 23 C 9.1868 3.1528 0.0 0
M  V30 24 C 11.3123 5.2901 0.0 0
M  V30 25 C 10.6274 2.7749 0.0 0
M  V30 26 C 11.6784 3.8495 0.0 0
M  V30 27 N 13.119 3.4716 0.0 0
M  V30 28 C 13.485 2.031 0.0 0
M  V30 29 C 14.1699 4.5461 0.0 0
M  V30 30 C 14.9256 1.6531 0.0 0
M  V30 31 C 15.6105 4.1683 0.0 0
M  V30 32 N 15.9766 2.7277 0.0 0
M  V30 END ATOM
M  V30 BEGIN BOND
M  V30 1 2 1 2
M  V30 2 1 2 3
M  V30 3 1 2 4
M  V30 4 1 3 5
M  V30 5 1 3 6
M  V30 6 1 4 7
M  V30 7 2 4 8
M  V30 8 1 7 9
M  V30 9 1 7 10
M  V30 10 1 8 11
M  V30 11 1 9 12
M  V30 12 1 10 13
M  V30 13 1 10 14
M  V30 14 1 11 15
M  V30 15 2 12 16
M  V30 16 1 13 17
M  V30 17 1 14 18
M  V30 18 2 15 19
M  V30 19 1 16 20
M  V30 20 1 20 21
M  V30 21 2 21 22
M  V30 22 1 21 23
M  V30 23 1 22 24
M  V30 24 2 23 25
M  V30 25 2 24 26
M  V30 26 1 26 27
M  V30 27 1 27 28
M  V30 28 1 27 29
M  V30 29 1 28 30
M  V30 30 1 29 31
M  V30 31 1 30 32
M  V30 32 2 9 11
M  V30 33 1 16 19
M  V30 34 1 17 18
M  V30 35 1 25 26
M  V30 36 1 31 32
M  V30 END BOND
M  V30 END CTAB
M  END
>  <Compound ID>
55

>  <Name>
Ribociclib

>  <Uniprot>
Q15119

>  <Target>
PDK2

>  <Smiles>
CN(C)C(=O)C1=CC2=CN=C(NC3=CC=C(N4CCNCC4)C=N3)N=C2N1C1CCCC1

>  <Kd (nM)>


>  <Assay (Kd)>


>  <Ki (nM)>


>  <Assay (Ki)>


>  <IC50 (nM)>


>  <Assay (IC50)>


>  <EC50 (nM)>


>  <Assay (EC50)>


>  <Article DOI>
10.1016/j.cell.2020.10.038

>  <Molecular Weight>
434.548

>  <Exact Mass>
434.25425758

>  <XLogP3>
2.19

>  <Heavy Atom Count>
32

>  <Ring Count>
5

>  <Hydrogen Bond Acceptor Count>
8

>  <Hydrogen Bond Donor Count>
2

>  <Rotatable Bond Count>
5

>  <Topological Polar Surface Area>
91.21

>  <Molecular Formula>
C23H30N8O

>  <InChI>
InChI=1S/C23H30N8O/c1-29(2)22(32)19-13-16-14-26-23(28-21(16)31(19)17-5-3-4-6-17)27-20-8-7-18(15-25-20)30-11-9-24-10-12-30/h7-8,13-15,17,24H,3-6,9-12H2,1-2H3,(H,25,26,27,28)

>  <InChI Key>
RHXHGRAEPCAFML-UHFFFAOYSA-N

>  <BindingDB>
148264

>  <PubChem>
44631912

>  <ChEMBL>
CHEMBL3545110

$$$$
Compound 107
Actelion Java MolfileCreator 2.0

  0  0  0  0  0  0              0 V3000
M  V30 BEGIN CTAB
M  V30 COUNTS 32 36 0 0 0
M  V30 BEGIN ATOM
M  V30 1 O 0.0 0.0 0.0 0
M  V30 2 C 0.3778 1.4642 0.0 0
M  V30 3 N -0.6966 2.5387 0.0 0
M  V30 4 C 1.8184 1.8539 0.0 0
M  V30 5 C -2.1609 2.1727 0.0 0
M  V30 6 C -0.3188 4.003 0.0 0
M  V30 7 N 2.3498 3.2708 0.0 0
M  V30 8 C 2.9756 0.921 0.0 0
M  V30 9 C 3.8376 3.2 0.0 0
M  V30 10 C 1.5232 4.5461 0.0 0
M  V30 11 C 4.2273 1.7476 0.0 0
M  V30 12 N 4.8886 4.2746 0.0 0
M  V30 13 C 0.0118 4.6406 0.0 0
M  V30 14 C 2.0546 5.9631 0.0 0
M  V30 15 C 5.6679 1.3697 0.0 0
M  V30 16 C 6.3292 3.8967 0.0 0
M  V30 17 C -0.3778 6.1048 0.0 0
M  V30 18 C 0.8738 6.9196 0.0 0
M  V30 19 N 6.7189 2.4443 0.0 0
M  V30 20 N 7.3801 4.9712 0.0 0
M  V30 21 C 8.8208 4.5934 0.0 0
M  V30 22 N 9.8717 5.6679 0.0 0
M  V30 23 C 9.1868 3.1528 0.0 0
M  V30 24 C 11.3123 5.2901 0.0 0
M  V30 25 C 10.6274 2.7749 0.0 0
M  V30 26 C 11.6784 3.8495 0.0 0
M  V30 27 N 13.119 3.4716 0.0 0
M  V30 28 C 13.485 2.031 0.0 0
M  V30 29 C 14.1699 4.5461 0.0 0
M  V30 30 C 14.9256 1.6531 0.0 0
M  V30 31 C 15.6105 4.1683 0.0 0
M  V30 32 N 15.9766 2.7277 0.0 0
M  V30 END ATOM
M  V30 BEGIN BOND
M  V30 1 2 1 2
M  V30 2 1 2 3
M  V30 3 1 2 4
M  V30 4 1 3 5
M  V30 5 1 3 6
M  V30 6 1 4 7
M  V30 7 2 4 8
M  V30 8 1 7 9
M  V30 9 1 7 10
M  V30 10 1 8 11
M  V30 11 1 9 12
M  V30 12 1 10 13
M  V30 13 1 10 14
M  V30 14 1 11 15
M  V30 15 2 12 16
M  V30 16 1 13 17
M  V30 17 1 14 18
M  V30 18 2 15 19
M  V30 19 1 16 20
M  V30 20 1 20 21
M  V30 21 2 21 22
M  V30 22 1 21 23
M  V30 23 1 22 24
M  V30 24 2 23 25
M  V30 25 2 24 26
M  V30 26 1 26 27
M  V30 27 1 27 28
M  V30 28 1 27 29
M  V30 29 1 28 30
M  V30 30 1 29 31
M  V30 31 1 30 32
M  V30 32 2 9 11
M  V30 33 1 16 19
M  V30 34 1 17 18
M  V30 35 1 25 26
M  V30 36 1 31 32
M  V30 END BOND
M  V30 END CTAB
M  END
>  <Compound ID>
55

>  <Name>
Ribociclib

>  <Uniprot>
Q15120

>  <Target>
PDK3

>  <Smiles>
CN(C)C(=O)C1=CC2=CN=C(NC3=CC=C(N4CCNCC4)C=N3)N=C2N1C1CCCC1

>  <Kd (nM)>


>  <Assay (Kd)>


>  <Ki (nM)>


>  <Assay (Ki)>


>  <IC50 (nM)>


>  <Assay (IC50)>


>  <EC50 (nM)>


>  <Assay (EC50)>


>  <Article DOI>
10.1016/j.cell.2020.10.038

>  <Molecular Weight>
434.548

>  <Exact Mass>
434.25425758

>  <XLogP3>
2.19

>  <Heavy Atom Count>
32

>  <Ring Count>
5

>  <Hydrogen Bond Acceptor Count>
8

>  <Hydrogen Bond Donor Count>
2

>  <Rotatable Bond Count>
5

>  <Topological Polar Surface Area>
91.21

>  <Molecular Formula>
C23H30N8O

>  <InChI>
InChI=1S/C23H30N8O/c1-29(2)22(32)19-13-16-14-26-23(28-21(16)31(19)17-5-3-4-6-17)27-20-8-7-18(15-25-20)30-11-9-24-10-12-30/h7-8,13-15,17,24H,3-6,9-12H2,1-2H3,(H,25,26,27,28)

>  <InChI Key>
RHXHGRAEPCAFML-UHFFFAOYSA-N

>  <BindingDB>
148264

>  <PubChem>
44631912

>  <ChEMBL>
CHEMBL3545110

$$$$
Compound 108
Actelion Java MolfileCreator 2.0

  0  0  0  0  0  0              0 V3000
M  V30 BEGIN CTAB
M  V30 COUNTS 28 30 0 0 0
M  V30 BEGIN ATOM
M  V30 1 I 0.0 0.0 0.0 0
M  V30 2 C 0.2562 -1.4674 0.0 0
M  V30 3 C -0.9084 -2.4225 0.0 0
M  V30 4 C 1.6538 -1.9682 0.0 0
M  V30 5 C -0.6522 -3.8899 0.0 0
M  V30 6 C 1.91 -3.4357 0.0 0
M  V30 7 F -1.8168 -4.845 0.0 0
M  V30 8 C 0.7453 -4.3907 0.0 0
M  V30 9 N 1.0016 -5.8582 0.0 0
M  V30 10 C 2.3992 -6.359 0.0 0
M  V30 11 N 3.5405 -5.3807 0.0 0
M  V30 12 C 2.6554 -7.8265 0.0 0
M  V30 13 C 4.9381 -5.8815 0.0 0
M  V30 14 C 3.261 -3.8899 0.0 0
M  V30 15 N 1.4907 -8.7815 0.0 0
M  V30 16 C 4.053 -8.3273 0.0 0
M  V30 17 O 6.0795 -4.9032 0.0 0
M  V30 18 C 5.1944 -7.349 0.0 0
M  V30 19 S 0.0698 -8.2574 0.0 0
M  V30 20 C 6.592 -7.8498 0.0 0
M  V30 21 O 0.5706 -6.8366 0.0 0
M  V30 22 O -0.4542 -9.655 0.0 0
M  V30 23 C -1.351 -7.7333 0.0 0
M  V30 24 C -1.6305 -6.2426 0.0 0
M  V30 25 C -2.5156 -8.6884 0.0 0
M  V30 26 C -3.0514 -5.7185 0.0 0
M  V30 27 C -3.9365 -8.1643 0.0 0
M  V30 28 C -4.216 -6.6735 0.0 0
M  V30 END ATOM
M  V30 BEGIN BOND
M  V30 1 1 1 2
M  V30 2 2 2 3
M  V30 3 1 2 4
M  V30 4 1 3 5
M  V30 5 2 4 6
M  V30 6 1 5 7
M  V30 7 2 5 8
M  V30 8 1 8 9
M  V30 9 1 9 10
M  V30 10 1 10 11
M  V30 11 2 10 12
M  V30 12 1 11 13
M  V30 13 1 11 14
M  V30 14 1 12 15
M  V30 15 1 12 16
M  V30 16 2 13 17
M  V30 17 1 13 18
M  V30 18 1 15 19
M  V30 19 1 18 20
M  V30 20 2 19 21
M  V30 21 2 19 22
M  V30 22 1 19 23
M  V30 23 2 23 24
M  V30 24 1 23 25
M  V30 25 1 24 26
M  V30 26 2 25 27
M  V30 27 2 26 28
M  V30 28 1 6 8
M  V30 29 2 16 18
M  V30 30 1 27 28
M  V30 END BOND
M  V30 END CTAB
M  END
>  <Compound ID>
56

>  <Name>


>  <Uniprot>
Q02750

>  <Target>
MEK1

>  <Smiles>
CC1=CC(NS(=O)(=O)C2=CC=CC=C2)=C(NC2=CC=C(I)C=C2F)N(C)C1=O

>  <Kd (nM)>


>  <Assay (Kd)>


>  <Ki (nM)>


>  <Assay (Ki)>


>  <IC50 (nM)>
398

>  <Assay (IC50)>
IC50 of MEK1

>  <EC50 (nM)>


>  <Assay (EC50)>


>  <Article DOI>
10.1021/acs.jmedchem.9b00810

>  <Molecular Weight>
513.332

>  <Exact Mass>
513.001938624

>  <XLogP3>
3.51

>  <Heavy Atom Count>
28

>  <Ring Count>
3

>  <Hydrogen Bond Acceptor Count>
5

>  <Hydrogen Bond Donor Count>
2

>  <Rotatable Bond Count>
5

>  <Topological Polar Surface Area>
80.2

>  <Molecular Formula>
C19H17FIN3O3S

>  <InChI>
InChI=1S/C19H17FIN3O3S/c1-12-10-17(23-28(26,27)14-6-4-3-5-7-14)18(24(2)19(12)25)22-16-9-8-13(21)11-15(16)20/h3-11,22-23H,1-2H3

>  <InChI Key>
DVNLLCLLEUIZHI-UHFFFAOYSA-N

>  <BindingDB>


>  <PubChem>
68796122

>  <ChEMBL>


$$$$
Compound 109
Actelion Java MolfileCreator 2.0

  0  0  0  0  0  0              0 V3000
M  V30 BEGIN CTAB
M  V30 COUNTS 28 30 0 0 0
M  V30 BEGIN ATOM
M  V30 1 I 0.0 0.0 0.0 0
M  V30 2 C 0.2562 -1.4674 0.0 0
M  V30 3 C -0.9084 -2.4225 0.0 0
M  V30 4 C 1.6538 -1.9682 0.0 0
M  V30 5 C -0.6522 -3.8899 0.0 0
M  V30 6 C 1.91 -3.4357 0.0 0
M  V30 7 F -1.8168 -4.845 0.0 0
M  V30 8 C 0.7453 -4.3907 0.0 0
M  V30 9 N 1.0016 -5.8582 0.0 0
M  V30 10 C 2.3992 -6.359 0.0 0
M  V30 11 N 3.5405 -5.3807 0.0 0
M  V30 12 C 2.6554 -7.8265 0.0 0
M  V30 13 C 4.9381 -5.8815 0.0 0
M  V30 14 C 3.261 -3.8899 0.0 0
M  V30 15 N 1.4907 -8.7815 0.0 0
M  V30 16 C 4.053 -8.3273 0.0 0
M  V30 17 O 6.0795 -4.9032 0.0 0
M  V30 18 C 5.1944 -7.349 0.0 0
M  V30 19 S 0.0698 -8.2574 0.0 0
M  V30 20 C 6.592 -7.8498 0.0 0
M  V30 21 O 0.5706 -6.8366 0.0 0
M  V30 22 O -0.4542 -9.655 0.0 0
M  V30 23 C -1.351 -7.7333 0.0 0
M  V30 24 C -1.6305 -6.2426 0.0 0
M  V30 25 C -2.5156 -8.6884 0.0 0
M  V30 26 C -3.0514 -5.7185 0.0 0
M  V30 27 C -3.9365 -8.1643 0.0 0
M  V30 28 C -4.216 -6.6735 0.0 0
M  V30 END ATOM
M  V30 BEGIN BOND
M  V30 1 1 1 2
M  V30 2 2 2 3
M  V30 3 1 2 4
M  V30 4 1 3 5
M  V30 5 2 4 6
M  V30 6 1 5 7
M  V30 7 2 5 8
M  V30 8 1 8 9
M  V30 9 1 9 10
M  V30 10 1 10 11
M  V30 11 2 10 12
M  V30 12 1 11 13
M  V30 13 1 11 14
M  V30 14 1 12 15
M  V30 15 1 12 16
M  V30 16 2 13 17
M  V30 17 1 13 18
M  V30 18 1 15 19
M  V30 19 1 18 20
M  V30 20 2 19 21
M  V30 21 2 19 22
M  V30 22 1 19 23
M  V30 23 2 23 24
M  V30 24 1 23 25
M  V30 25 1 24 26
M  V30 26 2 25 27
M  V30 27 2 26 28
M  V30 28 1 6 8
M  V30 29 2 16 18
M  V30 30 1 27 28
M  V30 END BOND
M  V30 END CTAB
M  END
>  <Compound ID>
56

>  <Name>


>  <Uniprot>
P36507

>  <Target>
MEK2

>  <Smiles>
CC1=CC(NS(=O)(=O)C2=CC=CC=C2)=C(NC2=CC=C(I)C=C2F)N(C)C1=O

>  <Kd (nM)>


>  <Assay (Kd)>


>  <Ki (nM)>


>  <Assay (Ki)>


>  <IC50 (nM)>


>  <Assay (IC50)>


>  <EC50 (nM)>


>  <Assay (EC50)>


>  <Article DOI>
10.1021/acs.jmedchem.9b00810

>  <Molecular Weight>
513.332

>  <Exact Mass>
513.001938624

>  <XLogP3>
3.51

>  <Heavy Atom Count>
28

>  <Ring Count>
3

>  <Hydrogen Bond Acceptor Count>
5

>  <Hydrogen Bond Donor Count>
2

>  <Rotatable Bond Count>
5

>  <Topological Polar Surface Area>
80.2

>  <Molecular Formula>
C19H17FIN3O3S

>  <InChI>
InChI=1S/C19H17FIN3O3S/c1-12-10-17(23-28(26,27)14-6-4-3-5-7-14)18(24(2)19(12)25)22-16-9-8-13(21)11-15(16)20/h3-11,22-23H,1-2H3

>  <InChI Key>
DVNLLCLLEUIZHI-UHFFFAOYSA-N

>  <BindingDB>


>  <PubChem>
68796122

>  <ChEMBL>


$$$$
Compound 110
Actelion Java MolfileCreator 2.0

  0  0  0  0  0  0              0 V3000
M  V30 BEGIN CTAB
M  V30 COUNTS 59 64 0 0 0
M  V30 BEGIN ATOM
M  V30 1 P 0.0 0.0 0.0 0
M  V30 2 O -0.5544 1.4037 0.0 0
M  V30 3 O 1.3801 0.5544 0.0 0
M  V30 4 O -1.498 -0.1769 0.0 0
M  V30 5 C 0.5308 -1.3801 0.0 0
M  V30 6 F 1.9109 -0.8257 0.0 0
M  V30 7 F 1.0616 -2.7602 0.0 0
M  V30 8 C -0.8728 -1.9109 0.0 0
M  V30 9 C -1.1088 -3.3854 0.0 0
M  V30 10 C -2.0524 -0.9554 0.0 0
M  V30 11 C -2.5125 -3.9162 0.0 0
M  V30 12 C -3.4562 -1.4862 0.0 0
M  V30 13 C -3.6921 -2.9607 0.0 0
M  V30 14 C -3.0551 -5.3081 0.0 0
M  V30 15 N -4.9542 -3.7746 0.0 0
M  V30 16 C -4.565 -5.2255 0.0 0
M  V30 17 C -5.5204 -6.3815 0.0 0
M  V30 18 O -4.9896 -7.7617 0.0 0
M  V30 19 N -7.0185 -6.1456 0.0 0
M  V30 20 C -7.974 -7.3016 0.0 0 CFG=2
M  V30 21 C -9.4249 -6.8652 0.0 0
M  V30 22 C -7.2662 -8.5992 0.0 0
M  V30 23 O -9.6018 -5.3671 0.0 0
M  V30 24 N -10.746 -7.5729 0.0 0
M  V30 25 N -7.7027 -10.0265 0.0 0
M  V30 26 C -11.9964 -6.7118 0.0 0 CFG=2
M  V30 27 C -11.1825 -9.0002 0.0 0 CFG=1
M  V30 28 C -6.5467 -10.9584 0.0 0
M  V30 29 C -9.0238 -10.7342 0.0 0
M  V30 30 C -12.0554 -5.202 0.0 0
M  V30 31 C -13.1996 -7.6201 0.0 0
M  V30 32 C -10.4747 -10.2978 0.0 0
M  V30 33 C -12.6924 -9.0356 0.0 0
M  V30 34 O -5.1666 -10.404 0.0 0
M  V30 35 C -6.7826 -12.4329 0.0 0
M  V30 36 O -10.7932 -4.3998 0.0 0
M  V30 37 N -13.3883 -4.4824 0.0 0
M  V30 38 C -13.4473 -2.9725 0.0 0 CFG=2
M  V30 39 C -12.1851 -2.1704 0.0 0
M  V30 40 C -14.7803 -2.253 0.0 0
M  V30 41 O -10.8758 -2.8664 0.0 0
M  V30 42 N -12.2441 -0.6605 0.0 0
M  V30 43 C -14.8392 -0.7431 0.0 0
M  V30 44 C -10.982 0.1415 0.0 0
M  V30 45 C -16.1722 -0.0235 0.0 0
M  V30 46 C -11.0409 1.6514 0.0 0
M  V30 47 C -9.6726 -0.5544 0.0 0
M  V30 48 O -17.4579 -0.8021 0.0 0
M  V30 49 N -16.2312 1.4862 0.0 0
M  V30 50 C -9.7788 2.4535 0.0 0
M  V30 51 C -12.3739 2.3709 0.0 0
M  V30 52 C -9.6372 -2.0406 0.0 0
M  V30 53 C -8.4105 0.2477 0.0 0
M  V30 54 C -9.8378 3.9634 0.0 0
M  V30 55 C -12.4329 3.8808 0.0 0
M  V30 56 C -8.3279 -2.7366 0.0 0
M  V30 57 C -7.1011 -0.4482 0.0 0
M  V30 58 C -11.1707 4.6829 0.0 0
M  V30 59 C -7.0657 -1.9345 0.0 0
M  V30 END ATOM
M  V30 BEGIN BOND
M  V30 1 2 1 2
M  V30 2 1 1 3
M  V30 3 1 1 4
M  V30 4 1 1 5
M  V30 5 1 5 6
M  V30 6 1 5 7
M  V30 7 1 5 8
M  V30 8 2 8 9
M  V30 9 1 8 10
M  V30 10 1 9 11
M  V30 11 2 10 12
M  V30 12 2 11 13
M  V30 13 1 11 14
M  V30 14 1 13 15
M  V30 15 2 14 16
M  V30 16 1 16 17
M  V30 17 2 17 18
M  V30 18 1 17 19
M  V30 19 1 20 19 CFG=1
M  V30 20 1 20 21
M  V30 21 1 20 22
M  V30 22 2 21 23
M  V30 23 1 21 24
M  V30 24 1 22 25
M  V30 25 1 24 26
M  V30 26 1 27 24 CFG=1
M  V30 27 1 25 28
M  V30 28 1 25 29
M  V30 29 1 26 30 CFG=1
M  V30 30 1 26 31
M  V30 31 1 27 32
M  V30 32 1 27 33
M  V30 33 2 28 34
M  V30 34 1 28 35
M  V30 35 2 30 36
M  V30 36 1 30 37
M  V30 37 1 38 37 CFG=1
M  V30 38 1 38 39
M  V30 39 1 38 40
M  V30 40 2 39 41
M  V30 41 1 39 42
M  V30 42 1 40 43
M  V30 43 1 42 44
M  V30 44 1 43 45
M  V30 45 1 44 46
M  V30 46 1 44 47
M  V30 47 2 45 48
M  V30 48 1 45 49
M  V30 49 2 46 50
M  V30 50 1 46 51
M  V30 51 2 47 52
M  V30 52 1 47 53
M  V30 53 1 50 54
M  V30 54 2 51 55
M  V30 55 1 52 56
M  V30 56 2 53 57
M  V30 57 2 54 58
M  V30 58 2 56 59
M  V30 59 1 12 13
M  V30 60 1 15 16
M  V30 61 1 29 32
M  V30 62 1 31 33
M  V30 63 1 55 58
M  V30 64 1 57 59
M  V30 END BOND
M  V30 BEGIN COLLECTION
M  V30 MDLV30/STEABS ATOMS=(4 20 26 27 38)
M  V30 END COLLECTION
M  V30 END CTAB
M  END
>  <Compound ID>
57

>  <Name>
SI-109

>  <Uniprot>
P40763

>  <Target>
STAT3

>  <Smiles>
CC(=O)N1CC[C@H]2CC[C@@H](C(=O)N[C@@H](CCC(N)=O)C(=O)NC(C3=CC=CC=C3)C3=CC=CC=C3)N2C(=O)[C@@H](NC(=O)C2=CC3=CC(C(F)(F)P(=O)(O)O)=CC=C3[NH]2)C1

>  <Kd (nM)>


>  <Assay (Kd)>


>  <Ki (nM)>
14

>  <Assay (Ki)>
FP

>  <IC50 (nM)>


>  <Assay (IC50)>


>  <EC50 (nM)>


>  <Assay (EC50)>


>  <Article DOI>
10.1021/acs.jmedchem.9b01530

>  <Molecular Weight>
835.802

>  <Exact Mass>
835.290619058

>  <XLogP3>
1.27

>  <Heavy Atom Count>
59

>  <Ring Count>
6

>  <Hydrogen Bond Acceptor Count>
7

>  <Hydrogen Bond Donor Count>
7

>  <Rotatable Bond Count>
13

>  <Topological Polar Surface Area>
244.33

>  <Molecular Formula>
C40H44F2N7O9P

>  <InChI>
InChI=1S/C40H44F2N7O9P/c1-23(50)48-19-18-28-13-16-33(38(54)45-30(15-17-34(43)51)36(52)47-35(24-8-4-2-5-9-24)25-10-6-3-7-11-25)49(28)39(55)32(22-48)46-37(53)31-21-26-20-27(12-14-29(26)44-31)40(41,42)59(56,57)58/h2-12,14,20-21,28,30,32-33,35,44H,13,15-19,22H2,1H3,(H2,43,51)(H,45,54)(H,46,53)(H,47,52)(H2,56,57,58)/t28-,30+,32+,33+/m1/s1

>  <InChI Key>
HBICZHLVBCLHSV-VUCLUUCHSA-N

>  <BindingDB>


>  <PubChem>
139600322

>  <ChEMBL>


$$$$
Compound 111
Actelion Java MolfileCreator 2.0

  0  0  0  0  0  0              0 V3000
M  V30 BEGIN CTAB
M  V30 COUNTS 53 57 0 0 0
M  V30 BEGIN ATOM
M  V30 1 P 0.0 0.0 0.0 0
M  V30 2 O -0.5421 1.4142 0.0 0
M  V30 3 O -1.4967 -0.1649 0.0 0
M  V30 4 O 1.3906 0.5421 0.0 0
M  V30 5 C 0.5185 -1.3906 0.0 0
M  V30 6 F 1.9092 -0.8485 0.0 0
M  V30 7 F 1.0371 -2.7813 0.0 0
M  V30 8 C -0.8956 -1.9092 0.0 0
M  V30 9 C -1.1549 -3.3706 0.0 0
M  V30 10 C -2.0624 -0.9546 0.0 0
M  V30 11 C -2.5692 -3.8891 0.0 0
M  V30 12 C -3.4766 -1.4731 0.0 0
M  V30 13 C -3.7359 -2.9345 0.0 0
M  V30 14 C -3.1231 -5.268 0.0 0
M  V30 15 N -5.0087 -3.7359 0.0 0
M  V30 16 C -4.6316 -5.1737 0.0 0
M  V30 17 C -5.5862 -6.3169 0.0 0
M  V30 18 O -5.0677 -7.7076 0.0 0
M  V30 19 N -7.0712 -6.0576 0.0 0
M  V30 20 C -8.0258 -7.2008 0.0 0 CFG=2
M  V30 21 C -9.4754 -6.753 0.0 0
M  V30 22 C -7.3304 -8.509 0.0 0
M  V30 23 O -9.6404 -5.2562 0.0 0
M  V30 24 N -10.8071 -7.4483 0.0 0
M  V30 25 N -7.7783 -9.935 0.0 0
M  V30 26 C -12.0446 -6.5762 0.0 0 CFG=2
M  V30 27 C -11.255 -8.8743 0.0 0 CFG=1
M  V30 28 C -6.6351 -10.8661 0.0 0
M  V30 29 C -9.11 -10.6303 0.0 0
M  V30 30 C -12.0917 -5.0677 0.0 0
M  V30 31 C -13.2467 -7.4719 0.0 0
M  V30 32 C -10.5596 -10.1825 0.0 0
M  V30 33 C -12.7635 -8.8979 0.0 0
M  V30 34 O -5.2444 -10.3239 0.0 0
M  V30 35 C -6.8944 -12.3274 0.0 0
M  V30 36 O -10.8189 -4.278 0.0 0
M  V30 37 N -13.4117 -4.337 0.0 0
M  V30 38 C -13.4588 -2.8284 0.0 0 CFG=2
M  V30 39 C -12.186 -2.0388 0.0 0
M  V30 40 C -14.7788 -2.0977 0.0 0
M  V30 41 O -10.8896 -2.7459 0.0 0
M  V30 42 N -12.2332 -0.5303 0.0 0
M  V30 43 C -14.8259 -0.5892 0.0 0
M  V30 44 C -10.9603 0.2592 0.0 0
M  V30 45 C -16.1459 0.1414 0.0 0
M  V30 46 C -11.0075 1.7678 0.0 0
M  V30 47 O -17.4423 -0.6246 0.0 0
M  V30 48 N -16.193 1.6499 0.0 0
M  V30 49 C -9.7347 2.5574 0.0 0
M  V30 50 C -12.3274 2.4984 0.0 0
M  V30 51 C -9.7818 4.0659 0.0 0
M  V30 52 C -12.3746 4.007 0.0 0
M  V30 53 C -11.1018 4.7966 0.0 0
M  V30 END ATOM
M  V30 BEGIN BOND
M  V30 1 2 1 2
M  V30 2 1 1 3
M  V30 3 1 1 4
M  V30 4 1 1 5
M  V30 5 1 5 6
M  V30 6 1 5 7
M  V30 7 1 5 8
M  V30 8 2 8 9
M  V30 9 1 8 10
M  V30 10 1 9 11
M  V30 11 2 10 12
M  V30 12 2 11 13
M  V30 13 1 11 14
M  V30 14 1 13 15
M  V30 15 2 14 16
M  V30 16 1 16 17
M  V30 17 2 17 18
M  V30 18 1 17 19
M  V30 19 1 20 19 CFG=1
M  V30 20 1 20 21
M  V30 21 1 20 22
M  V30 22 2 21 23
M  V30 23 1 21 24
M  V30 24 1 22 25
M  V30 25 1 24 26
M  V30 26 1 27 24 CFG=1
M  V30 27 1 25 28
M  V30 28 1 25 29
M  V30 29 1 26 30 CFG=1
M  V30 30 1 26 31
M  V30 31 1 27 32
M  V30 32 1 27 33
M  V30 33 2 28 34
M  V30 34 1 28 35
M  V30 35 2 30 36
M  V30 36 1 30 37
M  V30 37 1 38 37 CFG=1
M  V30 38 1 38 39
M  V30 39 1 38 40
M  V30 40 2 39 41
M  V30 41 1 39 42
M  V30 42 1 40 43
M  V30 43 1 42 44
M  V30 44 1 43 45
M  V30 45 1 44 46
M  V30 46 2 45 47
M  V30 47 1 45 48
M  V30 48 2 46 49
M  V30 49 1 46 50
M  V30 50 1 49 51
M  V30 51 2 50 52
M  V30 52 2 51 53
M  V30 53 1 12 13
M  V30 54 1 15 16
M  V30 55 1 29 32
M  V30 56 1 31 33
M  V30 57 1 52 53
M  V30 END BOND
M  V30 BEGIN COLLECTION
M  V30 MDLV30/STEABS ATOMS=(4 20 26 27 38)
M  V30 END COLLECTION
M  V30 END CTAB
M  END
>  <Compound ID>
58

>  <Name>


>  <Uniprot>
P40763

>  <Target>
STAT3

>  <Smiles>
CC(=O)N1CC[C@H]2CC[C@@H](C(=O)N[C@@H](CCC(N)=O)C(=O)NCC3=CC=CC=C3)N2C(=O)[C@@H](NC(=O)C2=CC3=CC(C(F)(F)P(=O)(O)O)=CC=C3[NH]2)C1

>  <Kd (nM)>


>  <Assay (Kd)>


>  <Ki (nM)>
14

>  <Assay (Ki)>
FP

>  <IC50 (nM)>


>  <Assay (IC50)>


>  <EC50 (nM)>


>  <Assay (EC50)>


>  <Article DOI>
10.1021/acs.jmedchem.9b01530

>  <Molecular Weight>
759.704

>  <Exact Mass>
759.25931893

>  <XLogP3>
-0.42

>  <Heavy Atom Count>
53

>  <Ring Count>
5

>  <Hydrogen Bond Acceptor Count>
7

>  <Hydrogen Bond Donor Count>
7

>  <Rotatable Bond Count>
12

>  <Topological Polar Surface Area>
244.33

>  <Molecular Formula>
C34H40F2N7O9P

>  <InChI>
InChI=1S/C34H40F2N7O9P/c1-19(44)42-14-13-23-8-11-28(32(48)40-25(10-12-29(37)45)30(46)38-17-20-5-3-2-4-6-20)43(23)33(49)27(18-42)41-31(47)26-16-21-15-22(7-9-24(21)39-26)34(35,36)53(50,51)52/h2-7,9,15-16,23,25,27-28,39H,8,10-14,17-18H2,1H3,(H2,37,45)(H,38,46)(H,40,48)(H,41,47)(H2,50,51,52)/t23-,25+,27+,28+/m1/s1

>  <InChI Key>
GQYPGEKTECILBT-DEKSYSNASA-N

>  <BindingDB>
50514299

>  <PubChem>
155189031

>  <ChEMBL>
CHEMBL4515406

$$$$
Compound 112
Actelion Java MolfileCreator 2.0

  0  0  0  0  0  0              0 V3000
M  V30 BEGIN CTAB
M  V30 COUNTS 57 62 0 0 0
M  V30 BEGIN ATOM
M  V30 1 P 0.0 0.0 0.0 0
M  V30 2 O 0.5895 1.3796 0.0 0
M  V30 3 O -1.3796 0.6131 0.0 0
M  V30 4 O -0.6131 -1.356 0.0 0
M  V30 5 O 1.356 -0.5895 0.0 0
M  V30 6 C -2.5942 -0.2594 0.0 0
M  V30 7 C -2.4409 -1.7334 0.0 0
M  V30 8 C -3.9738 0.3537 0.0 0
M  V30 9 C -3.6555 -2.606 0.0 0
M  V30 10 C -5.1884 -0.5188 0.0 0
M  V30 11 C -5.0351 -1.9928 0.0 0
M  V30 12 C -3.8087 -4.08 0.0 0
M  V30 13 N -6.0374 -3.1012 0.0 0
M  V30 14 C -5.2827 -4.3866 0.0 0
M  V30 15 C -5.8959 -5.7426 0.0 0
M  V30 16 O -5.0233 -6.9336 0.0 0
M  V30 17 N -7.3935 -5.8959 0.0 0
M  V30 18 C -8.0067 -7.252 0.0 0 CFG=2
M  V30 19 C -9.5161 -7.2166 0.0 0
M  V30 20 C -6.9808 -8.3251 0.0 0
M  V30 21 O -10.0703 -5.8134 0.0 0
M  V30 22 N -10.6127 -8.2425 0.0 0
M  V30 23 N -7.0162 -9.8108 0.0 0
M  V30 24 C -12.0395 -7.7355 0.0 0 CFG=2
M  V30 25 C -10.6481 -9.7283 0.0 0 CFG=1
M  V30 26 C -5.6601 -10.4004 0.0 0
M  V30 27 C -8.1128 -10.8367 0.0 0
M  V30 28 C -12.4876 -6.2851 0.0 0
M  V30 29 C -12.9593 -8.9147 0.0 0
M  V30 30 C -9.6222 -10.8014 0.0 0
M  V30 31 C -12.0985 -10.1528 0.0 0
M  V30 32 O -4.4691 -9.5043 0.0 0
M  V30 33 C -5.5068 -11.8744 0.0 0
M  V30 34 O -11.4735 -5.1766 0.0 0
M  V30 35 N -13.9616 -5.9313 0.0 0
M  V30 36 C -14.4097 -4.4809 0.0 0 CFG=2
M  V30 37 C -13.3956 -3.3724 0.0 0
M  V30 38 C -15.8837 -4.1271 0.0 0
M  V30 39 O -11.9452 -3.7026 0.0 0
M  V30 40 N -13.8437 -1.922 0.0 0
M  V30 41 C -16.3318 -2.6767 0.0 0
M  V30 42 C -12.8296 -0.8136 0.0 0
M  V30 43 C -17.8058 -2.323 0.0 0
M  V30 44 C -13.2777 0.6367 0.0 0
M  V30 45 C -11.3792 -1.1438 0.0 0
M  V30 46 O -18.8435 -3.4078 0.0 0
M  V30 47 N -18.2539 -0.8726 0.0 0
M  V30 48 C -12.2636 1.7452 0.0 0
M  V30 49 C -14.7517 0.9905 0.0 0
M  V30 50 C -10.9547 -2.5706 0.0 0
M  V30 51 C -10.3651 -0.0353 0.0 0
M  V30 52 C -12.7117 3.1956 0.0 0
M  V30 53 C -15.1998 2.4409 0.0 0
M  V30 54 C -9.5043 -2.9008 0.0 0
M  V30 55 C -8.9147 -0.3655 0.0 0
M  V30 56 C -14.1857 3.5493 0.0 0
M  V30 57 C -8.4902 -1.7923 0.0 0
M  V30 END ATOM
M  V30 BEGIN BOND
M  V30 1 2 1 2
M  V30 2 1 1 3
M  V30 3 1 1 4
M  V30 4 1 1 5
M  V30 5 1 3 6
M  V30 6 2 6 7
M  V30 7 1 6 8
M  V30 8 1 7 9
M  V30 9 2 8 10
M  V30 10 2 9 11
M  V30 11 1 9 12
M  V30 12 1 11 13
M  V30 13 2 12 14
M  V30 14 1 14 15
M  V30 15 2 15 16
M  V30 16 1 15 17
M  V30 17 1 18 17 CFG=1
M  V30 18 1 18 19
M  V30 19 1 18 20
M  V30 20 2 19 21
M  V30 21 1 19 22
M  V30 22 1 20 23
M  V30 23 1 22 24
M  V30 24 1 25 22 CFG=1
M  V30 25 1 23 26
M  V30 26 1 23 27
M  V30 27 1 24 28 CFG=1
M  V30 28 1 24 29
M  V30 29 1 25 30
M  V30 30 1 25 31
M  V30 31 2 26 32
M  V30 32 1 26 33
M  V30 33 2 28 34
M  V30 34 1 28 35
M  V30 35 1 36 35 CFG=1
M  V30 36 1 36 37
M  V30 37 1 36 38
M  V30 38 2 37 39
M  V30 39 1 37 40
M  V30 40 1 38 41
M  V30 41 1 40 42
M  V30 42 1 41 43
M  V30 43 1 42 44
M  V30 44 1 42 45
M  V30 45 2 43 46
M  V30 46 1 43 47
M  V30 47 2 44 48
M  V30 48 1 44 49
M  V30 49 2 45 50
M  V30 50 1 45 51
M  V30 51 1 48 52
M  V30 52 2 49 53
M  V30 53 1 50 54
M  V30 54 2 51 55
M  V30 55 2 52 56
M  V30 56 2 54 57
M  V30 57 1 10 11
M  V30 58 1 13 14
M  V30 59 1 27 30
M  V30 60 1 29 31
M  V30 61 1 53 56
M  V30 62 1 55 57
M  V30 END BOND
M  V30 BEGIN COLLECTION
M  V30 MDLV30/STEABS ATOMS=(4 18 24 25 36)
M  V30 END COLLECTION
M  V30 END CTAB
M  END
>  <Compound ID>
59

>  <Name>


>  <Uniprot>
P40763

>  <Target>
STAT3

>  <Smiles>
CC(=O)N1CC[C@H]2CC[C@@H](C(=O)N[C@@H](CCC(N)=O)C(=O)NC(C3=CC=CC=C3)C3=CC=CC=C3)N2C(=O)[C@@H](NC(=O)C2=CC3=CC(OP(=O)(O)O)=CC=C3[NH]2)C1

>  <Kd (nM)>


>  <Assay (Kd)>


>  <Ki (nM)>
33

>  <Assay (Ki)>
FP

>  <IC50 (nM)>


>  <Assay (IC50)>


>  <EC50 (nM)>


>  <Assay (EC50)>


>  <Article DOI>
10.1021/acs.jmedchem.9b01530

>  <Molecular Weight>
801.794

>  <Exact Mass>
801.288727238

>  <XLogP3>
0.9

>  <Heavy Atom Count>
57

>  <Ring Count>
6

>  <Hydrogen Bond Acceptor Count>
8

>  <Hydrogen Bond Donor Count>
7

>  <Rotatable Bond Count>
13

>  <Topological Polar Surface Area>
253.56

>  <Molecular Formula>
C39H44N7O10P

>  <InChI>
InChI=1S/C39H44N7O10P/c1-23(47)45-19-18-27-12-16-33(46(27)39(52)32(22-45)43-37(50)31-21-26-20-28(56-57(53,54)55)13-14-29(26)41-31)38(51)42-30(15-17-34(40)48)36(49)44-35(24-8-4-2-5-9-24)25-10-6-3-7-11-25/h2-11,13-14,20-21,27,30,32-33,35,41H,12,15-19,22H2,1H3,(H2,40,48)(H,42,51)(H,43,50)(H,44,49)(H2,53,54,55)/t27-,30+,32+,33+/m1/s1

>  <InChI Key>
OGXDAFGZMDHWLK-BSIQAPFRSA-N

>  <BindingDB>
50514296

>  <PubChem>
155516315

>  <ChEMBL>
CHEMBL4443240

$$$$
Compound 113
Actelion Java MolfileCreator 2.0

  0  0  0  0  0  0              0 V3000
M  V30 BEGIN CTAB
M  V30 COUNTS 57 62 0 0 0
M  V30 BEGIN ATOM
M  V30 1 P 0.0 0.0 0.0 0
M  V30 2 O 1.356 -0.5895 0.0 0
M  V30 3 O 0.5895 1.3796 0.0 0
M  V30 4 O -0.6131 -1.356 0.0 0
M  V30 5 C -1.3796 0.6131 0.0 0
M  V30 6 C -2.5942 -0.2594 0.0 0
M  V30 7 C -2.4409 -1.7334 0.0 0
M  V30 8 C -3.9738 0.3537 0.0 0
M  V30 9 C -3.6555 -2.606 0.0 0
M  V30 10 C -5.1884 -0.5188 0.0 0
M  V30 11 C -5.0351 -1.9928 0.0 0
M  V30 12 C -3.8087 -4.08 0.0 0
M  V30 13 N -6.0374 -3.1012 0.0 0
M  V30 14 C -5.2827 -4.3866 0.0 0
M  V30 15 C -5.8959 -5.7426 0.0 0
M  V30 16 O -5.0233 -6.9336 0.0 0
M  V30 17 N -7.3935 -5.8959 0.0 0
M  V30 18 C -8.0067 -7.252 0.0 0 CFG=2
M  V30 19 C -9.5161 -7.2166 0.0 0
M  V30 20 C -6.9808 -8.3251 0.0 0
M  V30 21 O -10.0703 -5.8134 0.0 0
M  V30 22 N -10.6127 -8.2425 0.0 0
M  V30 23 N -7.0162 -9.8108 0.0 0
M  V30 24 C -12.0395 -7.7355 0.0 0 CFG=2
M  V30 25 C -10.6481 -9.7283 0.0 0 CFG=1
M  V30 26 C -5.6601 -10.4004 0.0 0
M  V30 27 C -8.1128 -10.8367 0.0 0
M  V30 28 C -12.4876 -6.2851 0.0 0
M  V30 29 C -12.9593 -8.9147 0.0 0
M  V30 30 C -9.6222 -10.8014 0.0 0
M  V30 31 C -12.0985 -10.1528 0.0 0
M  V30 32 O -4.4691 -9.5043 0.0 0
M  V30 33 C -5.5068 -11.8744 0.0 0
M  V30 34 O -11.4735 -5.1766 0.0 0
M  V30 35 N -13.9616 -5.9313 0.0 0
M  V30 36 C -14.4097 -4.4809 0.0 0 CFG=2
M  V30 37 C -13.3956 -3.3724 0.0 0
M  V30 38 C -15.8837 -4.1271 0.0 0
M  V30 39 O -11.9452 -3.7026 0.0 0
M  V30 40 N -13.8437 -1.922 0.0 0
M  V30 41 C -16.3318 -2.6767 0.0 0
M  V30 42 C -12.8296 -0.8136 0.0 0
M  V30 43 C -17.8058 -2.323 0.0 0
M  V30 44 C -13.2777 0.6367 0.0 0
M  V30 45 C -11.3792 -1.1438 0.0 0
M  V30 46 O -18.8435 -3.4078 0.0 0
M  V30 47 N -18.2539 -0.8726 0.0 0
M  V30 48 C -12.2636 1.7452 0.0 0
M  V30 49 C -14.7517 0.9905 0.0 0
M  V30 50 C -10.9547 -2.5706 0.0 0
M  V30 51 C -10.3651 -0.0353 0.0 0
M  V30 52 C -12.7117 3.1956 0.0 0
M  V30 53 C -15.1998 2.4409 0.0 0
M  V30 54 C -9.5043 -2.9008 0.0 0
M  V30 55 C -8.9147 -0.3655 0.0 0
M  V30 56 C -14.1857 3.5493 0.0 0
M  V30 57 C -8.4902 -1.7923 0.0 0
M  V30 END ATOM
M  V30 BEGIN BOND
M  V30 1 2 1 2
M  V30 2 1 1 3
M  V30 3 1 1 4
M  V30 4 1 1 5
M  V30 5 1 5 6
M  V30 6 2 6 7
M  V30 7 1 6 8
M  V30 8 1 7 9
M  V30 9 2 8 10
M  V30 10 2 9 11
M  V30 11 1 9 12
M  V30 12 1 11 13
M  V30 13 2 12 14
M  V30 14 1 14 15
M  V30 15 2 15 16
M  V30 16 1 15 17
M  V30 17 1 18 17 CFG=1
M  V30 18 1 18 19
M  V30 19 1 18 20
M  V30 20 2 19 21
M  V30 21 1 19 22
M  V30 22 1 20 23
M  V30 23 1 22 24
M  V30 24 1 25 22 CFG=1
M  V30 25 1 23 26
M  V30 26 1 23 27
M  V30 27 1 24 28 CFG=1
M  V30 28 1 24 29
M  V30 29 1 25 30
M  V30 30 1 25 31
M  V30 31 2 26 32
M  V30 32 1 26 33
M  V30 33 2 28 34
M  V30 34 1 28 35
M  V30 35 1 36 35 CFG=1
M  V30 36 1 36 37
M  V30 37 1 36 38
M  V30 38 2 37 39
M  V30 39 1 37 40
M  V30 40 1 38 41
M  V30 41 1 40 42
M  V30 42 1 41 43
M  V30 43 1 42 44
M  V30 44 1 42 45
M  V30 45 2 43 46
M  V30 46 1 43 47
M  V30 47 2 44 48
M  V30 48 1 44 49
M  V30 49 2 45 50
M  V30 50 1 45 51
M  V30 51 1 48 52
M  V30 52 2 49 53
M  V30 53 1 50 54
M  V30 54 2 51 55
M  V30 55 2 52 56
M  V30 56 2 54 57
M  V30 57 1 10 11
M  V30 58 1 13 14
M  V30 59 1 27 30
M  V30 60 1 29 31
M  V30 61 1 53 56
M  V30 62 1 55 57
M  V30 END BOND
M  V30 BEGIN COLLECTION
M  V30 MDLV30/STEABS ATOMS=(4 18 24 25 36)
M  V30 END COLLECTION
M  V30 END CTAB
M  END
>  <Compound ID>
60

>  <Name>


>  <Uniprot>
P40763

>  <Target>
STAT3

>  <Smiles>
CC(=O)N1CC[C@H]2CC[C@@H](C(=O)N[C@@H](CCC(N)=O)C(=O)NC(C3=CC=CC=C3)C3=CC=CC=C3)N2C(=O)[C@@H](NC(=O)C2=CC3=CC(CP(=O)(O)O)=CC=C3[NH]2)C1

>  <Kd (nM)>


>  <Assay (Kd)>


>  <Ki (nM)>
584

>  <Assay (Ki)>
FP

>  <IC50 (nM)>


>  <Assay (IC50)>


>  <EC50 (nM)>


>  <Assay (EC50)>


>  <Article DOI>
10.1021/acs.jmedchem.9b01530

>  <Molecular Weight>
799.822

>  <Exact Mass>
799.309462682

>  <XLogP3>
0.53

>  <Heavy Atom Count>
57

>  <Ring Count>
6

>  <Hydrogen Bond Acceptor Count>
7

>  <Hydrogen Bond Donor Count>
7

>  <Rotatable Bond Count>
13

>  <Topological Polar Surface Area>
244.33

>  <Molecular Formula>
C40H46N7O9P

>  <InChI>
InChI=1S/C40H46N7O9P/c1-24(48)46-19-18-29-13-16-34(47(29)40(53)33(22-46)44-38(51)32-21-28-20-25(23-57(54,55)56)12-14-30(28)42-32)39(52)43-31(15-17-35(41)49)37(50)45-36(26-8-4-2-5-9-26)27-10-6-3-7-11-27/h2-12,14,20-21,29,31,33-34,36,42H,13,15-19,22-23H2,1H3,(H2,41,49)(H,43,52)(H,44,51)(H,45,50)(H2,54,55,56)/t29-,31+,33+,34+/m1/s1

>  <InChI Key>
NBLYOJSHSACQCC-ZDVZOPRYSA-N

>  <BindingDB>
50514300

>  <PubChem>
155544860

>  <ChEMBL>
CHEMBL4567312

$$$$
Compound 114
Actelion Java MolfileCreator 2.0

  0  0  0  0  0  0              0 V3000
M  V30 BEGIN CTAB
M  V30 COUNTS 59 63 0 0 0
M  V30 BEGIN ATOM
M  V30 1 P 0.0 0.0 0.0 0
M  V30 2 O 1.2383 -0.8137 0.0 0
M  V30 3 O -0.5071 -1.4034 0.0 0
M  V30 4 O 0.8137 1.2619 0.0 0
M  V30 5 C -1.2619 0.8373 0.0 0
M  V30 6 F -0.4481 2.0992 0.0 0
M  V30 7 F -2.5238 1.6747 0.0 0
M  V30 8 C -2.0992 -0.4009 0.0 0
M  V30 9 C -1.4388 -1.7336 0.0 0
M  V30 10 C -3.6088 -0.3066 0.0 0
M  V30 11 C -2.2761 -2.972 0.0 0
M  V30 12 C -4.4462 -1.5449 0.0 0
M  V30 13 C -3.7858 -2.8776 0.0 0
M  V30 14 C -4.6231 -4.116 0.0 0
M  V30 15 C -6.1327 -4.0216 0.0 0
M  V30 16 C -3.9627 -5.4487 0.0 0
M  V30 17 C -6.9701 -5.26 0.0 0
M  V30 18 O -6.3096 -6.5927 0.0 0
M  V30 19 N -8.4797 -5.1656 0.0 0
M  V30 20 C -9.317 -6.404 0.0 0 CFG=2
M  V30 21 C -10.8031 -6.1091 0.0 0
M  V30 22 C -8.4797 -7.6305 0.0 0
M  V30 23 O -11.1215 -4.6231 0.0 0
M  V30 24 N -12.0532 -6.9465 0.0 0
M  V30 25 N -8.7745 -9.093 0.0 0
M  V30 26 C -13.3859 -6.2153 0.0 0 CFG=2
M  V30 27 C -12.348 -8.4089 0.0 0 CFG=1
M  V30 28 C -7.5362 -9.9067 0.0 0
M  V30 29 C -10.0247 -9.9303 0.0 0
M  V30 30 C -13.5864 -4.7175 0.0 0
M  V30 31 C -14.4945 -7.2295 0.0 0
M  V30 32 C -11.5107 -9.6355 0.0 0
M  V30 33 C -13.8458 -8.5858 0.0 0
M  V30 34 O -6.2035 -9.2227 0.0 0
M  V30 35 C -7.6305 -11.3927 0.0 0
M  V30 36 O -12.407 -3.7975 0.0 0
M  V30 37 N -14.978 -4.1278 0.0 0
M  V30 38 C -15.1785 -2.63 0.0 0 CFG=2
M  V30 39 C -13.9992 -1.71 0.0 0
M  V30 40 C -16.5702 -2.0403 0.0 0
M  V30 41 O -12.6311 -2.2761 0.0 0
M  V30 42 N -14.1997 -0.2122 0.0 0
M  V30 43 C -16.7707 -0.5425 0.0 0
M  V30 44 C -13.0203 0.7076 0.0 0
M  V30 45 C -18.1624 0.0471 0.0 0
M  V30 46 C -13.2208 2.2054 0.0 0
M  V30 47 C -11.6522 0.1415 0.0 0
M  V30 48 O -19.3653 -0.8491 0.0 0
M  V30 49 N -18.3629 1.5449 0.0 0
M  V30 50 C -12.0414 3.1253 0.0 0
M  V30 51 C -14.6124 2.7951 0.0 0
M  V30 52 C -11.4753 -1.3326 0.0 0
M  V30 53 C -10.4728 1.0614 0.0 0
M  V30 54 C -12.2419 4.6231 0.0 0
M  V30 55 C -14.8129 4.2929 0.0 0
M  V30 56 C -10.1072 -1.8987 0.0 0
M  V30 57 C -9.1047 0.4953 0.0 0
M  V30 58 C -13.6336 5.2128 0.0 0
M  V30 59 C -8.9278 -0.9788 0.0 0
M  V30 END ATOM
M  V30 BEGIN BOND
M  V30 1 2 1 2
M  V30 2 1 1 3
M  V30 3 1 1 4
M  V30 4 1 1 5
M  V30 5 1 5 6
M  V30 6 1 5 7
M  V30 7 1 5 8
M  V30 8 2 8 9
M  V30 9 1 8 10
M  V30 10 1 9 11
M  V30 11 2 10 12
M  V30 12 2 11 13
M  V30 13 1 13 14
M  V30 14 2 14 15
M  V30 15 1 14 16
M  V30 16 1 15 17
M  V30 17 2 17 18
M  V30 18 1 17 19
M  V30 19 1 20 19 CFG=1
M  V30 20 1 20 21
M  V30 21 1 20 22
M  V30 22 2 21 23
M  V30 23 1 21 24
M  V30 24 1 22 25
M  V30 25 1 24 26
M  V30 26 1 27 24 CFG=1
M  V30 27 1 25 28
M  V30 28 1 25 29
M  V30 29 1 26 30 CFG=1
M  V30 30 1 26 31
M  V30 31 1 27 32
M  V30 32 1 27 33
M  V30 33 2 28 34
M  V30 34 1 28 35
M  V30 35 2 30 36
M  V30 36 1 30 37
M  V30 37 1 38 37 CFG=1
M  V30 38 1 38 39
M  V30 39 1 38 40
M  V30 40 2 39 41
M  V30 41 1 39 42
M  V30 42 1 40 43
M  V30 43 1 42 44
M  V30 44 1 43 45
M  V30 45 1 44 46
M  V30 46 1 44 47
M  V30 47 2 45 48
M  V30 48 1 45 49
M  V30 49 2 46 50
M  V30 50 1 46 51
M  V30 51 2 47 52
M  V30 52 1 47 53
M  V30 53 1 50 54
M  V30 54 2 51 55
M  V30 55 1 52 56
M  V30 56 2 53 57
M  V30 57 2 54 58
M  V30 58 2 56 59
M  V30 59 1 12 13
M  V30 60 1 29 32
M  V30 61 1 31 33
M  V30 62 1 55 58
M  V30 63 1 57 59
M  V30 END BOND
M  V30 BEGIN COLLECTION
M  V30 MDLV30/STEABS ATOMS=(4 20 26 27 38)
M  V30 END COLLECTION
M  V30 END CTAB
M  END
>  <Compound ID>
61

>  <Name>


>  <Uniprot>
P40763

>  <Target>
STAT3

>  <Smiles>
CC(=O)N1CC[C@H]2CC[C@@H](C(=O)N[C@@H](CCC(N)=O)C(=O)NC(C3=CC=CC=C3)C3=CC=CC=C3)N2C(=O)[C@@H](NC(=O)/C=C(\C)C2=CC=C(C(F)(F)P(=O)(O)O)C=C2)C1

>  <Kd (nM)>


>  <Assay (Kd)>


>  <Ki (nM)>
164

>  <Assay (Ki)>
FP

>  <IC50 (nM)>


>  <Assay (IC50)>


>  <EC50 (nM)>


>  <Assay (EC50)>


>  <Article DOI>
10.1021/acs.jmedchem.9b01530

>  <Molecular Weight>
836.83

>  <Exact Mass>
836.311020154

>  <XLogP3>
1.86

>  <Heavy Atom Count>
59

>  <Ring Count>
5

>  <Hydrogen Bond Acceptor Count>
7

>  <Hydrogen Bond Donor Count>
6

>  <Rotatable Bond Count>
14

>  <Topological Polar Surface Area>
228.54

>  <Molecular Formula>
C41H47F2N6O9P

>  <InChI>
InChI=1S/C41H47F2N6O9P/c1-25(27-13-15-30(16-14-27)41(42,43)59(56,57)58)23-36(52)45-33-24-48(26(2)50)22-21-31-17-19-34(49(31)40(33)55)39(54)46-32(18-20-35(44)51)38(53)47-37(28-9-5-3-6-10-28)29-11-7-4-8-12-29/h3-16,23,31-34,37H,17-22,24H2,1-2H3,(H2,44,51)(H,45,52)(H,46,54)(H,47,53)(H2,56,57,58)/b25-23+/t31-,32+,33+,34+/m1/s1

>  <InChI Key>
RKOSUZNTELZISV-XZUNAFFLSA-N

>  <BindingDB>
50514304

>  <PubChem>
155549005

>  <ChEMBL>
CHEMBL4538737

$$$$
Compound 115
Actelion Java MolfileCreator 2.0

  0  0  0  0  0  0              0 V3000
M  V30 BEGIN CTAB
M  V30 COUNTS 36 39 0 0 0
M  V30 BEGIN ATOM
M  V30 1 Br 0.0 0.0 0.0 0
M  V30 2 C 1.2309 -0.8522 0.0 0
M  V30 3 C 2.5803 -0.1893 0.0 0
M  V30 4 C 1.1007 -2.3436 0.0 0
M  V30 5 C 3.8113 -1.0416 0.0 0
M  V30 6 C 2.3317 -3.184 0.0 0
M  V30 7 C 3.6811 -2.533 0.0 0
M  V30 8 S 4.9121 -3.3733 0.0 0
M  V30 9 C 6.2614 -2.7105 0.0 0
M  V30 10 C 7.4924 -3.5627 0.0 0
M  V30 11 C 6.368 -1.1954 0.0 0
M  V30 12 C 8.8418 -2.8999 0.0 0
M  V30 13 C 7.3622 -5.0541 0.0 0
M  V30 14 C 7.7173 -0.5444 0.0 0
M  V30 15 C 8.9483 -1.3848 0.0 0
M  V30 16 C 10.0728 -3.7521 0.0 0
M  V30 17 C 8.5932 -5.8945 0.0 0
M  V30 18 C 10.2977 -0.7338 0.0 0
M  V30 19 C 11.4221 -3.0893 0.0 0
M  V30 20 C 9.9426 -5.2435 0.0 0
M  V30 21 O 10.4042 0.7812 0.0 0
M  V30 22 N 11.5287 -1.5742 0.0 0
M  V30 23 O 12.6531 -3.9297 0.0 0
M  V30 24 C 12.878 -0.9114 0.0 0
M  V30 25 C 14.109 -1.7636 0.0 0
M  V30 26 N 15.4584 -1.1007 0.0 0
M  V30 27 C 16.6894 -1.953 0.0 0
M  V30 28 O 16.5592 -3.4444 0.0 0
M  V30 29 C 18.0387 -1.2901 0.0 0
M  V30 30 C 19.2697 -2.1424 0.0 0
M  V30 31 C 20.6191 -1.4795 0.0 0
M  V30 32 C 21.8501 -2.3199 0.0 0
M  V30 33 C 23.1994 -1.6689 0.0 0
M  V30 34 O 23.306 -0.1538 0.0 0
M  V30 35 O 24.4304 -2.5093 0.0 0
M  V30 36 C 25.7798 -1.8583 0.0 0
M  V30 END ATOM
M  V30 BEGIN BOND
M  V30 1 1 1 2
M  V30 2 2 2 3
M  V30 3 1 2 4
M  V30 4 1 3 5
M  V30 5 2 4 6
M  V30 6 2 5 7
M  V30 7 1 7 8
M  V30 8 1 8 9
M  V30 9 1 9 10
M  V30 10 2 9 11
M  V30 11 1 10 12
M  V30 12 2 10 13
M  V30 13 1 11 14
M  V30 14 1 12 15
M  V30 15 2 12 16
M  V30 16 1 13 17
M  V30 17 1 15 18
M  V30 18 1 16 19
M  V30 19 1 16 20
M  V30 20 2 18 21
M  V30 21 1 18 22
M  V30 22 2 19 23
M  V30 23 1 22 24
M  V30 24 1 24 25
M  V30 25 1 25 26
M  V30 26 1 26 27
M  V30 27 2 27 28
M  V30 28 1 27 29
M  V30 29 1 29 30
M  V30 30 1 30 31
M  V30 31 1 31 32
M  V30 32 1 32 33
M  V30 33 2 33 34
M  V30 34 1 33 35
M  V30 35 1 35 36
M  V30 36 1 6 7
M  V30 37 2 14 15
M  V30 38 2 17 20
M  V30 39 1 19 22
M  V30 END BOND
M  V30 END CTAB
M  END
>  <Compound ID>
62

>  <Name>


>  <Uniprot>
P10415

>  <Target>
BCL2

>  <Smiles>
COC(=O)CCCCC(=O)NCCN1C(=O)C2=C3C(=CC=C(SC4=CC=C(Br)C=C4)C3=CC=C2)C1=O

>  <Kd (nM)>


>  <Assay (Kd)>


>  <Ki (nM)>


>  <Assay (Ki)>


>  <IC50 (nM)>
4780

>  <Assay (IC50)>
IC50 of BCL2 was assessed by ELISA

>  <EC50 (nM)>


>  <Assay (EC50)>


>  <Article DOI>
10.1021/acs.jmedchem.9b00919

>  <Molecular Weight>
569.477

>  <Exact Mass>
568.066755

>  <XLogP3>
4.7

>  <Heavy Atom Count>
36

>  <Ring Count>
4

>  <Hydrogen Bond Acceptor Count>
6

>  <Hydrogen Bond Donor Count>
1

>  <Rotatable Bond Count>
10

>  <Topological Polar Surface Area>
92.78

>  <Molecular Formula>
C27H25BrN2O5S

>  <InChI>
InChI=1S/C27H25BrN2O5S/c1-35-24(32)8-3-2-7-23(31)29-15-16-30-26(33)20-6-4-5-19-22(14-13-21(25(19)20)27(30)34)36-18-11-9-17(28)10-12-18/h4-6,9-14H,2-3,7-8,15-16H2,1H3,(H,29,31)

>  <InChI Key>
HZZXWFWVQWMGAR-UHFFFAOYSA-N

>  <BindingDB>


>  <PubChem>
145712377

>  <ChEMBL>


$$$$
Compound 116
Actelion Java MolfileCreator 2.0

  0  0  0  0  0  0              0 V3000
M  V30 BEGIN CTAB
M  V30 COUNTS 36 39 0 0 0
M  V30 BEGIN ATOM
M  V30 1 Br 0.0 0.0 0.0 0
M  V30 2 C 1.2309 -0.8522 0.0 0
M  V30 3 C 2.5803 -0.1893 0.0 0
M  V30 4 C 1.1007 -2.3436 0.0 0
M  V30 5 C 3.8113 -1.0416 0.0 0
M  V30 6 C 2.3317 -3.184 0.0 0
M  V30 7 C 3.6811 -2.533 0.0 0
M  V30 8 S 4.9121 -3.3733 0.0 0
M  V30 9 C 6.2614 -2.7105 0.0 0
M  V30 10 C 7.4924 -3.5627 0.0 0
M  V30 11 C 6.368 -1.1954 0.0 0
M  V30 12 C 8.8418 -2.8999 0.0 0
M  V30 13 C 7.3622 -5.0541 0.0 0
M  V30 14 C 7.7173 -0.5444 0.0 0
M  V30 15 C 8.9483 -1.3848 0.0 0
M  V30 16 C 10.0728 -3.7521 0.0 0
M  V30 17 C 8.5932 -5.8945 0.0 0
M  V30 18 C 10.2977 -0.7338 0.0 0
M  V30 19 C 11.4221 -3.0893 0.0 0
M  V30 20 C 9.9426 -5.2435 0.0 0
M  V30 21 O 10.4042 0.7812 0.0 0
M  V30 22 N 11.5287 -1.5742 0.0 0
M  V30 23 O 12.6531 -3.9297 0.0 0
M  V30 24 C 12.878 -0.9114 0.0 0
M  V30 25 C 14.109 -1.7636 0.0 0
M  V30 26 N 15.4584 -1.1007 0.0 0
M  V30 27 C 16.6894 -1.953 0.0 0
M  V30 28 O 16.5592 -3.4444 0.0 0
M  V30 29 C 18.0387 -1.2901 0.0 0
M  V30 30 C 19.2697 -2.1424 0.0 0
M  V30 31 C 20.6191 -1.4795 0.0 0
M  V30 32 C 21.8501 -2.3199 0.0 0
M  V30 33 C 23.1994 -1.6689 0.0 0
M  V30 34 O 23.306 -0.1538 0.0 0
M  V30 35 O 24.4304 -2.5093 0.0 0
M  V30 36 C 25.7798 -1.8583 0.0 0
M  V30 END ATOM
M  V30 BEGIN BOND
M  V30 1 1 1 2
M  V30 2 2 2 3
M  V30 3 1 2 4
M  V30 4 1 3 5
M  V30 5 2 4 6
M  V30 6 2 5 7
M  V30 7 1 7 8
M  V30 8 1 8 9
M  V30 9 1 9 10
M  V30 10 2 9 11
M  V30 11 1 10 12
M  V30 12 2 10 13
M  V30 13 1 11 14
M  V30 14 1 12 15
M  V30 15 2 12 16
M  V30 16 1 13 17
M  V30 17 1 15 18
M  V30 18 1 16 19
M  V30 19 1 16 20
M  V30 20 2 18 21
M  V30 21 1 18 22
M  V30 22 2 19 23
M  V30 23 1 22 24
M  V30 24 1 24 25
M  V30 25 1 25 26
M  V30 26 1 26 27
M  V30 27 2 27 28
M  V30 28 1 27 29
M  V30 29 1 29 30
M  V30 30 1 30 31
M  V30 31 1 31 32
M  V30 32 1 32 33
M  V30 33 2 33 34
M  V30 34 1 33 35
M  V30 35 1 35 36
M  V30 36 1 6 7
M  V30 37 2 14 15
M  V30 38 2 17 20
M  V30 39 1 19 22
M  V30 END BOND
M  V30 END CTAB
M  END
>  <Compound ID>
62

>  <Name>


>  <Uniprot>
Q07820

>  <Target>
MCL1

>  <Smiles>
COC(=O)CCCCC(=O)NCCN1C(=O)C2=C3C(=CC=C(SC4=CC=C(Br)C=C4)C3=CC=C2)C1=O

>  <Kd (nM)>


>  <Assay (Kd)>


>  <Ki (nM)>


>  <Assay (Ki)>


>  <IC50 (nM)>
5950

>  <Assay (IC50)>
IC50 of MCL1 was assessed by ELISA

>  <EC50 (nM)>


>  <Assay (EC50)>


>  <Article DOI>
10.1021/acs.jmedchem.9b00919

>  <Molecular Weight>
569.477

>  <Exact Mass>
568.066755

>  <XLogP3>
4.7

>  <Heavy Atom Count>
36

>  <Ring Count>
4

>  <Hydrogen Bond Acceptor Count>
6

>  <Hydrogen Bond Donor Count>
1

>  <Rotatable Bond Count>
10

>  <Topological Polar Surface Area>
92.78

>  <Molecular Formula>
C27H25BrN2O5S

>  <InChI>
InChI=1S/C27H25BrN2O5S/c1-35-24(32)8-3-2-7-23(31)29-15-16-30-26(33)20-6-4-5-19-22(14-13-21(25(19)20)27(30)34)36-18-11-9-17(28)10-12-18/h4-6,9-14H,2-3,7-8,15-16H2,1H3,(H,29,31)

>  <InChI Key>
HZZXWFWVQWMGAR-UHFFFAOYSA-N

>  <BindingDB>


>  <PubChem>
145712377

>  <ChEMBL>


$$$$
Compound 117
Actelion Java MolfileCreator 2.0

  0  0  0  0  0  0              0 V3000
M  V30 BEGIN CTAB
M  V30 COUNTS 30 33 0 0 0
M  V30 BEGIN ATOM
M  V30 1 Br 0.0 0.0 0.0 0
M  V30 2 C 0.9483 -1.1474 0.0 0
M  V30 3 C 2.4236 -0.8781 0.0 0
M  V30 4 C 0.4097 -2.5524 0.0 0
M  V30 5 C 3.372 -2.0255 0.0 0
M  V30 6 C 1.3581 -3.6998 0.0 0
M  V30 7 C 2.8334 -3.4305 0.0 0
M  V30 8 S 3.7817 -4.5779 0.0 0
M  V30 9 C 5.257 -4.3086 0.0 0
M  V30 10 C 6.2054 -5.456 0.0 0
M  V30 11 C 5.7722 -2.8802 0.0 0
M  V30 12 C 7.6806 -5.1867 0.0 0
M  V30 13 C 5.6668 -6.861 0.0 0
M  V30 14 C 7.2474 -2.6109 0.0 0
M  V30 15 C 8.1958 -3.7583 0.0 0
M  V30 16 C 8.629 -6.3342 0.0 0
M  V30 17 C 6.6152 -8.0085 0.0 0
M  V30 18 C 9.671 -3.489 0.0 0
M  V30 19 C 10.1043 -6.0649 0.0 0
M  V30 20 C 8.0904 -7.7392 0.0 0
M  V30 21 N 10.1862 -2.0606 0.0 0
M  V30 22 C 10.6194 -4.6365 0.0 0
M  V30 23 O 11.0526 -7.2123 0.0 0
M  V30 24 C 11.6615 -1.7913 0.0 0
M  V30 25 C 12.0947 -4.3672 0.0 0
M  V30 26 C 12.1766 -0.3629 0.0 0
M  V30 27 N 13.5699 -4.0979 0.0 0
M  V30 28 C 13.6519 -0.0936 0.0 0
M  V30 29 O 14.6003 -1.241 0.0 0
M  V30 30 C 14.1671 1.3347 0.0 0
M  V30 END ATOM
M  V30 BEGIN BOND
M  V30 1 1 1 2
M  V30 2 2 2 3
M  V30 3 1 2 4
M  V30 4 1 3 5
M  V30 5 2 4 6
M  V30 6 2 5 7
M  V30 7 1 7 8
M  V30 8 1 8 9
M  V30 9 1 9 10
M  V30 10 2 9 11
M  V30 11 1 10 12
M  V30 12 2 10 13
M  V30 13 1 11 14
M  V30 14 1 12 15
M  V30 15 2 12 16
M  V30 16 1 13 17
M  V30 17 1 15 18
M  V30 18 1 16 19
M  V30 19 1 16 20
M  V30 20 1 18 21
M  V30 21 2 18 22
M  V30 22 2 19 23
M  V30 23 1 21 24
M  V30 24 1 22 25
M  V30 25 1 24 26
M  V30 26 3 25 27
M  V30 27 1 26 28
M  V30 28 2 28 29
M  V30 29 1 28 30
M  V30 30 1 6 7
M  V30 31 2 14 15
M  V30 32 2 17 20
M  V30 33 1 19 22
M  V30 END BOND
M  V30 END CTAB
M  END
>  <Compound ID>
63

>  <Name>


>  <Uniprot>
P10415

>  <Target>
BCL2

>  <Smiles>
CC(=O)CCNC1=C(C#N)C(=O)C2=C3C1=CC=C(SC1=CC=C(Br)C=C1)C3=CC=C2

>  <Kd (nM)>


>  <Assay (Kd)>


>  <Ki (nM)>


>  <Assay (Ki)>


>  <IC50 (nM)>
4520

>  <Assay (IC50)>
IC50 of BCL2 was assessed by ELISA

>  <EC50 (nM)>


>  <Assay (EC50)>


>  <Article DOI>
10.1021/acs.jmedchem.9b00919

>  <Molecular Weight>
477.383

>  <Exact Mass>
476.019410884

>  <XLogP3>
5.78

>  <Heavy Atom Count>
30

>  <Ring Count>
4

>  <Hydrogen Bond Acceptor Count>
5

>  <Hydrogen Bond Donor Count>
1

>  <Rotatable Bond Count>
6

>  <Topological Polar Surface Area>
69.96

>  <Molecular Formula>
C24H17BrN2O2S

>  <InChI>
InChI=1S/C24H17BrN2O2S/c1-14(28)11-12-27-23-18-9-10-21(30-16-7-5-15(25)6-8-16)17-3-2-4-19(22(17)18)24(29)20(23)13-26/h2-10,27H,11-12H2,1H3

>  <InChI Key>
RQTPEUYNUKDSQP-UHFFFAOYSA-N

>  <BindingDB>


>  <PubChem>


>  <ChEMBL>


$$$$
Compound 118
Actelion Java MolfileCreator 2.0

  0  0  0  0  0  0              0 V3000
M  V30 BEGIN CTAB
M  V30 COUNTS 30 33 0 0 0
M  V30 BEGIN ATOM
M  V30 1 Br 0.0 0.0 0.0 0
M  V30 2 C 0.9483 -1.1474 0.0 0
M  V30 3 C 2.4236 -0.8781 0.0 0
M  V30 4 C 0.4097 -2.5524 0.0 0
M  V30 5 C 3.372 -2.0255 0.0 0
M  V30 6 C 1.3581 -3.6998 0.0 0
M  V30 7 C 2.8334 -3.4305 0.0 0
M  V30 8 S 3.7817 -4.5779 0.0 0
M  V30 9 C 5.257 -4.3086 0.0 0
M  V30 10 C 6.2054 -5.456 0.0 0
M  V30 11 C 5.7722 -2.8802 0.0 0
M  V30 12 C 7.6806 -5.1867 0.0 0
M  V30 13 C 5.6668 -6.861 0.0 0
M  V30 14 C 7.2474 -2.6109 0.0 0
M  V30 15 C 8.1958 -3.7583 0.0 0
M  V30 16 C 8.629 -6.3342 0.0 0
M  V30 17 C 6.6152 -8.0085 0.0 0
M  V30 18 C 9.671 -3.489 0.0 0
M  V30 19 C 10.1043 -6.0649 0.0 0
M  V30 20 C 8.0904 -7.7392 0.0 0
M  V30 21 N 10.1862 -2.0606 0.0 0
M  V30 22 C 10.6194 -4.6365 0.0 0
M  V30 23 O 11.0526 -7.2123 0.0 0
M  V30 24 C 11.6615 -1.7913 0.0 0
M  V30 25 C 12.0947 -4.3672 0.0 0
M  V30 26 C 12.1766 -0.3629 0.0 0
M  V30 27 N 13.5699 -4.0979 0.0 0
M  V30 28 C 13.6519 -0.0936 0.0 0
M  V30 29 O 14.6003 -1.241 0.0 0
M  V30 30 C 14.1671 1.3347 0.0 0
M  V30 END ATOM
M  V30 BEGIN BOND
M  V30 1 1 1 2
M  V30 2 2 2 3
M  V30 3 1 2 4
M  V30 4 1 3 5
M  V30 5 2 4 6
M  V30 6 2 5 7
M  V30 7 1 7 8
M  V30 8 1 8 9
M  V30 9 1 9 10
M  V30 10 2 9 11
M  V30 11 1 10 12
M  V30 12 2 10 13
M  V30 13 1 11 14
M  V30 14 1 12 15
M  V30 15 2 12 16
M  V30 16 1 13 17
M  V30 17 1 15 18
M  V30 18 1 16 19
M  V30 19 1 16 20
M  V30 20 1 18 21
M  V30 21 2 18 22
M  V30 22 2 19 23
M  V30 23 1 21 24
M  V30 24 1 22 25
M  V30 25 1 24 26
M  V30 26 3 25 27
M  V30 27 1 26 28
M  V30 28 2 28 29
M  V30 29 1 28 30
M  V30 30 1 6 7
M  V30 31 2 14 15
M  V30 32 2 17 20
M  V30 33 1 19 22
M  V30 END BOND
M  V30 END CTAB
M  END
>  <Compound ID>
63

>  <Name>


>  <Uniprot>
Q07820

>  <Target>
MCL1

>  <Smiles>
CC(=O)CCNC1=C(C#N)C(=O)C2=C3C1=CC=C(SC1=CC=C(Br)C=C1)C3=CC=C2

>  <Kd (nM)>


>  <Assay (Kd)>


>  <Ki (nM)>


>  <Assay (Ki)>


>  <IC50 (nM)>
3460

>  <Assay (IC50)>
IC50 of MCL1 was assessed by ELISA

>  <EC50 (nM)>


>  <Assay (EC50)>


>  <Article DOI>
10.1021/acs.jmedchem.9b00919

>  <Molecular Weight>
477.383

>  <Exact Mass>
476.019410884

>  <XLogP3>
5.78

>  <Heavy Atom Count>
30

>  <Ring Count>
4

>  <Hydrogen Bond Acceptor Count>
5

>  <Hydrogen Bond Donor Count>
1

>  <Rotatable Bond Count>
6

>  <Topological Polar Surface Area>
69.96

>  <Molecular Formula>
C24H17BrN2O2S

>  <InChI>
InChI=1S/C24H17BrN2O2S/c1-14(28)11-12-27-23-18-9-10-21(30-16-7-5-15(25)6-8-16)17-3-2-4-19(22(17)18)24(29)20(23)13-26/h2-10,27H,11-12H2,1H3

>  <InChI Key>
RQTPEUYNUKDSQP-UHFFFAOYSA-N

>  <BindingDB>


>  <PubChem>


>  <ChEMBL>


$$$$
Compound 119
Actelion Java MolfileCreator 2.0

  0  0  0  0  0  0              0 V3000
M  V30 BEGIN CTAB
M  V30 COUNTS 33 36 0 0 0
M  V30 BEGIN ATOM
M  V30 1 Cl 0.0 0.0 0.0 0
M  V30 2 C -0.9221 1.2023 0.0 0
M  V30 3 C -0.3618 2.5913 0.0 0
M  V30 4 C -2.4162 1.0272 0.0 0
M  V30 5 N -1.284 3.7936 0.0 0
M  V30 6 N 1.1089 2.7898 0.0 0
M  V30 7 N -3.3384 2.2295 0.0 0
M  V30 8 C -2.7781 3.6185 0.0 0
M  V30 9 C 1.6692 4.1788 0.0 0
M  V30 10 N -3.7003 4.8209 0.0 0
M  V30 11 C 3.14 4.3773 0.0 0
M  V30 12 C 0.747 5.3811 0.0 0
M  V30 13 C -5.1944 4.6458 0.0 0
M  V30 14 P 4.0388 3.1983 0.0 0
M  V30 15 C 3.7003 5.7664 0.0 0
M  V30 16 C 1.3073 6.7702 0.0 0
M  V30 17 C -5.778 3.28 0.0 0
M  V30 18 C -6.1165 5.8481 0.0 0
M  V30 19 O 4.9376 2.0194 0.0 0
M  V30 20 C 2.8365 2.2995 0.0 0
M  V30 21 C 5.2177 4.1205 0.0 0
M  V30 22 C 2.7781 6.9687 0.0 0
M  V30 23 O -4.8792 2.1011 0.0 0
M  V30 24 C -7.2722 3.1049 0.0 0
M  V30 25 C -7.6107 5.673 0.0 0
M  V30 26 C -5.4629 0.7353 0.0 0
M  V30 27 C -8.1943 4.3072 0.0 0
M  V30 28 N -9.6884 4.1322 0.0 0
M  V30 29 C -10.6106 5.3345 0.0 0
M  V30 30 C -10.2721 2.7664 0.0 0
M  V30 31 C -12.1047 5.1594 0.0 0
M  V30 32 C -11.7662 2.5913 0.0 0
M  V30 33 N -12.6884 3.7936 0.0 0
M  V30 END ATOM
M  V30 BEGIN BOND
M  V30 1 1 1 2
M  V30 2 2 2 3
M  V30 3 1 2 4
M  V30 4 1 3 5
M  V30 5 1 3 6
M  V30 6 2 4 7
M  V30 7 2 5 8
M  V30 8 1 6 9
M  V30 9 1 8 10
M  V30 10 2 9 11
M  V30 11 1 9 12
M  V30 12 1 10 13
M  V30 13 1 11 14
M  V30 14 1 11 15
M  V30 15 2 12 16
M  V30 16 2 13 17
M  V30 17 1 13 18
M  V30 18 2 14 19
M  V30 19 1 14 20
M  V30 20 1 14 21
M  V30 21 2 15 22
M  V30 22 1 17 23
M  V30 23 1 17 24
M  V30 24 2 18 25
M  V30 25 1 23 26
M  V30 26 2 24 27
M  V30 27 1 27 28
M  V30 28 1 28 29
M  V30 29 1 28 30
M  V30 30 1 29 31
M  V30 31 1 30 32
M  V30 32 1 31 33
M  V30 33 1 7 8
M  V30 34 1 16 22
M  V30 35 1 25 27
M  V30 36 1 32 33
M  V30 END BOND
M  V30 END CTAB
M  END
>  <Compound ID>
64

>  <Name>
Brigatinib A

>  <Uniprot>
Q9UM73

>  <Target>
ALK

>  <Smiles>
COC1=CC(N2CCNCC2)=CC=C1NC1=NC=C(Cl)C(NC2=CC=CC=C2P(C)(C)=O)=N1

>  <Kd (nM)>


>  <Assay (Kd)>


>  <Ki (nM)>


>  <Assay (Ki)>


>  <IC50 (nM)>
1.6

>  <Assay (IC50)>
Inhibit proliferation of SR cells

>  <EC50 (nM)>


>  <Assay (EC50)>


>  <Article DOI>
10.1016/j.ejmech.2020.112190

>  <Molecular Weight>
486.944

>  <Exact Mass>
486.169988446

>  <XLogP3>
3.59

>  <Heavy Atom Count>
33

>  <Ring Count>
4

>  <Hydrogen Bond Acceptor Count>
8

>  <Hydrogen Bond Donor Count>
3

>  <Rotatable Bond Count>
7

>  <Topological Polar Surface Area>
91.41

>  <Molecular Formula>
C23H28ClN6O2P

>  <InChI>
InChI=1S/C23H28ClN6O2P/c1-32-20-14-16(30-12-10-25-11-13-30)8-9-18(20)28-23-26-15-17(24)22(29-23)27-19-6-4-5-7-21(19)33(2,3)31/h4-9,14-15,25H,10-13H2,1-3H3,(H2,26,27,28,29)

>  <InChI Key>
YVXLIHUPXSTEHG-UHFFFAOYSA-N

>  <BindingDB>


>  <PubChem>
68165331

>  <ChEMBL>
CHEMBL4745797

$$$$
Compound 120
Actelion Java MolfileCreator 2.0

  0  0  0  0  0  0              0 V3000
M  V30 BEGIN CTAB
M  V30 COUNTS 33 36 0 0 0
M  V30 BEGIN ATOM
M  V30 1 Cl 0.0 0.0 0.0 0
M  V30 2 C -0.9221 1.2023 0.0 0
M  V30 3 C -0.3618 2.5913 0.0 0
M  V30 4 C -2.4162 1.0272 0.0 0
M  V30 5 N -1.284 3.7936 0.0 0
M  V30 6 N 1.1089 2.7898 0.0 0
M  V30 7 N -3.3384 2.2295 0.0 0
M  V30 8 C -2.7781 3.6185 0.0 0
M  V30 9 C 1.6692 4.1788 0.0 0
M  V30 10 N -3.7003 4.8209 0.0 0
M  V30 11 C 3.14 4.3773 0.0 0
M  V30 12 C 0.747 5.3811 0.0 0
M  V30 13 C -5.1944 4.6458 0.0 0
M  V30 14 P 4.0388 3.1983 0.0 0
M  V30 15 C 3.7003 5.7664 0.0 0
M  V30 16 C 1.3073 6.7702 0.0 0
M  V30 17 C -5.778 3.28 0.0 0
M  V30 18 C -6.1165 5.8481 0.0 0
M  V30 19 O 4.9376 2.0194 0.0 0
M  V30 20 C 2.8365 2.2995 0.0 0
M  V30 21 C 5.2177 4.1205 0.0 0
M  V30 22 C 2.7781 6.9687 0.0 0
M  V30 23 O -4.8792 2.1011 0.0 0
M  V30 24 C -7.2722 3.1049 0.0 0
M  V30 25 C -7.6107 5.673 0.0 0
M  V30 26 C -5.4629 0.7353 0.0 0
M  V30 27 C -8.1943 4.3072 0.0 0
M  V30 28 N -9.6884 4.1322 0.0 0
M  V30 29 C -10.6106 5.3345 0.0 0
M  V30 30 C -10.2721 2.7664 0.0 0
M  V30 31 C -12.1047 5.1594 0.0 0
M  V30 32 C -11.7662 2.5913 0.0 0
M  V30 33 N -12.6884 3.7936 0.0 0
M  V30 END ATOM
M  V30 BEGIN BOND
M  V30 1 1 1 2
M  V30 2 2 2 3
M  V30 3 1 2 4
M  V30 4 1 3 5
M  V30 5 1 3 6
M  V30 6 2 4 7
M  V30 7 2 5 8
M  V30 8 1 6 9
M  V30 9 1 8 10
M  V30 10 2 9 11
M  V30 11 1 9 12
M  V30 12 1 10 13
M  V30 13 1 11 14
M  V30 14 1 11 15
M  V30 15 2 12 16
M  V30 16 2 13 17
M  V30 17 1 13 18
M  V30 18 2 14 19
M  V30 19 1 14 20
M  V30 20 1 14 21
M  V30 21 2 15 22
M  V30 22 1 17 23
M  V30 23 1 17 24
M  V30 24 2 18 25
M  V30 25 1 23 26
M  V30 26 2 24 27
M  V30 27 1 27 28
M  V30 28 1 28 29
M  V30 29 1 28 30
M  V30 30 1 29 31
M  V30 31 1 30 32
M  V30 32 1 31 33
M  V30 33 1 7 8
M  V30 34 1 16 22
M  V30 35 1 25 27
M  V30 36 1 32 33
M  V30 END BOND
M  V30 END CTAB
M  END
>  <Compound ID>
64

>  <Name>
Brigatinib A

>  <Uniprot>
P00533

>  <Target>
EGFR del19/T790M/C797S

>  <Smiles>
COC1=CC(N2CCNCC2)=CC=C1NC1=NC=C(Cl)C(NC2=CC=CC=C2P(C)(C)=O)=N1

>  <Kd (nM)>


>  <Assay (Kd)>


>  <Ki (nM)>


>  <Assay (Ki)>


>  <IC50 (nM)>


>  <Assay (IC50)>


>  <EC50 (nM)>


>  <Assay (EC50)>


>  <Article DOI>
10.1021/acsmedchemlett.1c00645

>  <Molecular Weight>
486.944

>  <Exact Mass>
486.169988446

>  <XLogP3>
3.59

>  <Heavy Atom Count>
33

>  <Ring Count>
4

>  <Hydrogen Bond Acceptor Count>
8

>  <Hydrogen Bond Donor Count>
3

>  <Rotatable Bond Count>
7

>  <Topological Polar Surface Area>
91.41

>  <Molecular Formula>
C23H28ClN6O2P

>  <InChI>
InChI=1S/C23H28ClN6O2P/c1-32-20-14-16(30-12-10-25-11-13-30)8-9-18(20)28-23-26-15-17(24)22(29-23)27-19-6-4-5-7-21(19)33(2,3)31/h4-9,14-15,25H,10-13H2,1-3H3,(H2,26,27,28,29)

>  <InChI Key>
YVXLIHUPXSTEHG-UHFFFAOYSA-N

>  <BindingDB>


>  <PubChem>
68165331

>  <ChEMBL>
CHEMBL4745797

$$$$
Compound 121
Actelion Java MolfileCreator 2.0

  0  0  0  0  0  0              0 V3000
M  V30 BEGIN CTAB
M  V30 COUNTS 33 36 0 0 0
M  V30 BEGIN ATOM
M  V30 1 Cl 0.0 0.0 0.0 0
M  V30 2 C -0.9221 1.2023 0.0 0
M  V30 3 C -0.3618 2.5913 0.0 0
M  V30 4 C -2.4162 1.0272 0.0 0
M  V30 5 N -1.284 3.7936 0.0 0
M  V30 6 N 1.1089 2.7898 0.0 0
M  V30 7 N -3.3384 2.2295 0.0 0
M  V30 8 C -2.7781 3.6185 0.0 0
M  V30 9 C 1.6692 4.1788 0.0 0
M  V30 10 N -3.7003 4.8209 0.0 0
M  V30 11 C 3.14 4.3773 0.0 0
M  V30 12 C 0.747 5.3811 0.0 0
M  V30 13 C -5.1944 4.6458 0.0 0
M  V30 14 P 4.0388 3.1983 0.0 0
M  V30 15 C 3.7003 5.7664 0.0 0
M  V30 16 C 1.3073 6.7702 0.0 0
M  V30 17 C -5.778 3.28 0.0 0
M  V30 18 C -6.1165 5.8481 0.0 0
M  V30 19 O 4.9376 2.0194 0.0 0
M  V30 20 C 2.8365 2.2995 0.0 0
M  V30 21 C 5.2177 4.1205 0.0 0
M  V30 22 C 2.7781 6.9687 0.0 0
M  V30 23 O -4.8792 2.1011 0.0 0
M  V30 24 C -7.2722 3.1049 0.0 0
M  V30 25 C -7.6107 5.673 0.0 0
M  V30 26 C -5.4629 0.7353 0.0 0
M  V30 27 C -8.1943 4.3072 0.0 0
M  V30 28 N -9.6884 4.1322 0.0 0
M  V30 29 C -10.6106 5.3345 0.0 0
M  V30 30 C -10.2721 2.7664 0.0 0
M  V30 31 C -12.1047 5.1594 0.0 0
M  V30 32 C -11.7662 2.5913 0.0 0
M  V30 33 N -12.6884 3.7936 0.0 0
M  V30 END ATOM
M  V30 BEGIN BOND
M  V30 1 1 1 2
M  V30 2 2 2 3
M  V30 3 1 2 4
M  V30 4 1 3 5
M  V30 5 1 3 6
M  V30 6 2 4 7
M  V30 7 2 5 8
M  V30 8 1 6 9
M  V30 9 1 8 10
M  V30 10 2 9 11
M  V30 11 1 9 12
M  V30 12 1 10 13
M  V30 13 1 11 14
M  V30 14 1 11 15
M  V30 15 2 12 16
M  V30 16 2 13 17
M  V30 17 1 13 18
M  V30 18 2 14 19
M  V30 19 1 14 20
M  V30 20 1 14 21
M  V30 21 2 15 22
M  V30 22 1 17 23
M  V30 23 1 17 24
M  V30 24 2 18 25
M  V30 25 1 23 26
M  V30 26 2 24 27
M  V30 27 1 27 28
M  V30 28 1 28 29
M  V30 29 1 28 30
M  V30 30 1 29 31
M  V30 31 1 30 32
M  V30 32 1 31 33
M  V30 33 1 7 8
M  V30 34 1 16 22
M  V30 35 1 25 27
M  V30 36 1 32 33
M  V30 END BOND
M  V30 END CTAB
M  END
>  <Compound ID>
64

>  <Name>
Brigatinib A

>  <Uniprot>
P00533

>  <Target>
EGFR e19d

>  <Smiles>
COC1=CC(N2CCNCC2)=CC=C1NC1=NC=C(Cl)C(NC2=CC=CC=C2P(C)(C)=O)=N1

>  <Kd (nM)>


>  <Assay (Kd)>


>  <Ki (nM)>


>  <Assay (Ki)>


>  <IC50 (nM)>


>  <Assay (IC50)>


>  <EC50 (nM)>


>  <Assay (EC50)>


>  <Article DOI>
10.1021/acsmedchemlett.1c00645

>  <Molecular Weight>
486.944

>  <Exact Mass>
486.169988446

>  <XLogP3>
3.59

>  <Heavy Atom Count>
33

>  <Ring Count>
4

>  <Hydrogen Bond Acceptor Count>
8

>  <Hydrogen Bond Donor Count>
3

>  <Rotatable Bond Count>
7

>  <Topological Polar Surface Area>
91.41

>  <Molecular Formula>
C23H28ClN6O2P

>  <InChI>
InChI=1S/C23H28ClN6O2P/c1-32-20-14-16(30-12-10-25-11-13-30)8-9-18(20)28-23-26-15-17(24)22(29-23)27-19-6-4-5-7-21(19)33(2,3)31/h4-9,14-15,25H,10-13H2,1-3H3,(H2,26,27,28,29)

>  <InChI Key>
YVXLIHUPXSTEHG-UHFFFAOYSA-N

>  <BindingDB>


>  <PubChem>
68165331

>  <ChEMBL>
CHEMBL4745797

$$$$
Compound 122
Actelion Java MolfileCreator 2.0

  0  0  0  0  0  0              0 V3000
M  V30 BEGIN CTAB
M  V30 COUNTS 33 36 0 0 0
M  V30 BEGIN ATOM
M  V30 1 Cl 0.0 0.0 0.0 0
M  V30 2 C -0.9221 1.2023 0.0 0
M  V30 3 C -0.3618 2.5913 0.0 0
M  V30 4 C -2.4162 1.0272 0.0 0
M  V30 5 N -1.284 3.7936 0.0 0
M  V30 6 N 1.1089 2.7898 0.0 0
M  V30 7 N -3.3384 2.2295 0.0 0
M  V30 8 C -2.7781 3.6185 0.0 0
M  V30 9 C 1.6692 4.1788 0.0 0
M  V30 10 N -3.7003 4.8209 0.0 0
M  V30 11 C 3.14 4.3773 0.0 0
M  V30 12 C 0.747 5.3811 0.0 0
M  V30 13 C -5.1944 4.6458 0.0 0
M  V30 14 P 4.0388 3.1983 0.0 0
M  V30 15 C 3.7003 5.7664 0.0 0
M  V30 16 C 1.3073 6.7702 0.0 0
M  V30 17 C -5.778 3.28 0.0 0
M  V30 18 C -6.1165 5.8481 0.0 0
M  V30 19 O 4.9376 2.0194 0.0 0
M  V30 20 C 2.8365 2.2995 0.0 0
M  V30 21 C 5.2177 4.1205 0.0 0
M  V30 22 C 2.7781 6.9687 0.0 0
M  V30 23 O -4.8792 2.1011 0.0 0
M  V30 24 C -7.2722 3.1049 0.0 0
M  V30 25 C -7.6107 5.673 0.0 0
M  V30 26 C -5.4629 0.7353 0.0 0
M  V30 27 C -8.1943 4.3072 0.0 0
M  V30 28 N -9.6884 4.1322 0.0 0
M  V30 29 C -10.6106 5.3345 0.0 0
M  V30 30 C -10.2721 2.7664 0.0 0
M  V30 31 C -12.1047 5.1594 0.0 0
M  V30 32 C -11.7662 2.5913 0.0 0
M  V30 33 N -12.6884 3.7936 0.0 0
M  V30 END ATOM
M  V30 BEGIN BOND
M  V30 1 1 1 2
M  V30 2 2 2 3
M  V30 3 1 2 4
M  V30 4 1 3 5
M  V30 5 1 3 6
M  V30 6 2 4 7
M  V30 7 2 5 8
M  V30 8 1 6 9
M  V30 9 1 8 10
M  V30 10 2 9 11
M  V30 11 1 9 12
M  V30 12 1 10 13
M  V30 13 1 11 14
M  V30 14 1 11 15
M  V30 15 2 12 16
M  V30 16 2 13 17
M  V30 17 1 13 18
M  V30 18 2 14 19
M  V30 19 1 14 20
M  V30 20 1 14 21
M  V30 21 2 15 22
M  V30 22 1 17 23
M  V30 23 1 17 24
M  V30 24 2 18 25
M  V30 25 1 23 26
M  V30 26 2 24 27
M  V30 27 1 27 28
M  V30 28 1 28 29
M  V30 29 1 28 30
M  V30 30 1 29 31
M  V30 31 1 30 32
M  V30 32 1 31 33
M  V30 33 1 7 8
M  V30 34 1 16 22
M  V30 35 1 25 27
M  V30 36 1 32 33
M  V30 END BOND
M  V30 END CTAB
M  END
>  <Compound ID>
64

>  <Name>
Brigatinib A

>  <Uniprot>
P00533

>  <Target>
EGFR L858R/T790M

>  <Smiles>
COC1=CC(N2CCNCC2)=CC=C1NC1=NC=C(Cl)C(NC2=CC=CC=C2P(C)(C)=O)=N1

>  <Kd (nM)>


>  <Assay (Kd)>


>  <Ki (nM)>


>  <Assay (Ki)>


>  <IC50 (nM)>


>  <Assay (IC50)>


>  <EC50 (nM)>


>  <Assay (EC50)>


>  <Article DOI>
10.1021/acsmedchemlett.1c00645

>  <Molecular Weight>
486.944

>  <Exact Mass>
486.169988446

>  <XLogP3>
3.59

>  <Heavy Atom Count>
33

>  <Ring Count>
4

>  <Hydrogen Bond Acceptor Count>
8

>  <Hydrogen Bond Donor Count>
3

>  <Rotatable Bond Count>
7

>  <Topological Polar Surface Area>
91.41

>  <Molecular Formula>
C23H28ClN6O2P

>  <InChI>
InChI=1S/C23H28ClN6O2P/c1-32-20-14-16(30-12-10-25-11-13-30)8-9-18(20)28-23-26-15-17(24)22(29-23)27-19-6-4-5-7-21(19)33(2,3)31/h4-9,14-15,25H,10-13H2,1-3H3,(H2,26,27,28,29)

>  <InChI Key>
YVXLIHUPXSTEHG-UHFFFAOYSA-N

>  <BindingDB>


>  <PubChem>
68165331

>  <ChEMBL>
CHEMBL4745797

$$$$
Compound 123
Actelion Java MolfileCreator 2.0

  0  0  0  0  0  0              0 V3000
M  V30 BEGIN CTAB
M  V30 COUNTS 34 37 0 0 0
M  V30 BEGIN ATOM
M  V30 1 Cl 0.0 0.0 0.0 0
M  V30 2 C -0.9114 1.2035 0.0 0
M  V30 3 C -0.3388 2.594 0.0 0
M  V30 4 C -2.407 1.0282 0.0 0
M  V30 5 N -1.2502 3.7975 0.0 0
M  V30 6 N 1.1334 2.7926 0.0 0
M  V30 7 N -3.3184 2.2317 0.0 0
M  V30 8 C -2.7459 3.6222 0.0 0
M  V30 9 C 1.7059 4.1831 0.0 0
M  V30 10 N -3.6573 4.8258 0.0 0
M  V30 11 C 3.1782 4.3817 0.0 0
M  V30 12 C 0.7945 5.3866 0.0 0
M  V30 13 C -5.1529 4.6505 0.0 0
M  V30 14 P 4.0663 3.2016 0.0 0
M  V30 15 C 3.7508 5.7722 0.0 0
M  V30 16 C 1.3671 6.7771 0.0 0
M  V30 17 C -5.7489 3.2834 0.0 0
M  V30 18 C -6.0644 5.854 0.0 0
M  V30 19 O 4.9543 2.0214 0.0 0
M  V30 20 C 2.8627 2.3135 0.0 0
M  V30 21 C 5.2464 4.113 0.0 0
M  V30 22 C 2.8394 6.9758 0.0 0
M  V30 23 O -4.8608 2.1032 0.0 0
M  V30 24 C -7.2445 3.1081 0.0 0
M  V30 25 C -7.56 5.6788 0.0 0
M  V30 26 C -5.4567 0.7361 0.0 0
M  V30 27 C -8.1559 4.3116 0.0 0
M  V30 28 N -9.6516 4.1364 0.0 0
M  V30 29 C -10.563 5.3399 0.0 0
M  V30 30 C -10.2475 2.7692 0.0 0
M  V30 31 C -12.0586 5.1646 0.0 0
M  V30 32 C -11.7432 2.594 0.0 0
M  V30 33 C -12.6546 3.7975 0.0 0
M  V30 34 N -14.1502 3.6222 0.0 0
M  V30 END ATOM
M  V30 BEGIN BOND
M  V30 1 1 1 2
M  V30 2 2 2 3
M  V30 3 1 2 4
M  V30 4 1 3 5
M  V30 5 1 3 6
M  V30 6 2 4 7
M  V30 7 2 5 8
M  V30 8 1 6 9
M  V30 9 1 8 10
M  V30 10 2 9 11
M  V30 11 1 9 12
M  V30 12 1 10 13
M  V30 13 1 11 14
M  V30 14 1 11 15
M  V30 15 2 12 16
M  V30 16 2 13 17
M  V30 17 1 13 18
M  V30 18 2 14 19
M  V30 19 1 14 20
M  V30 20 1 14 21
M  V30 21 2 15 22
M  V30 22 1 17 23
M  V30 23 1 17 24
M  V30 24 2 18 25
M  V30 25 1 23 26
M  V30 26 2 24 27
M  V30 27 1 27 28
M  V30 28 1 28 29
M  V30 29 1 28 30
M  V30 30 1 29 31
M  V30 31 1 30 32
M  V30 32 1 31 33
M  V30 33 1 33 34
M  V30 34 1 7 8
M  V30 35 1 16 22
M  V30 36 1 25 27
M  V30 37 1 32 33
M  V30 END BOND
M  V30 END CTAB
M  END
>  <Compound ID>
65

>  <Name>
Brigatinib B

>  <Uniprot>
Q9UM73

>  <Target>
ALK G1202R

>  <Smiles>
COC1=CC(N2CCC(N)CC2)=CC=C1NC1=NC=C(Cl)C(NC2=CC=CC=C2P(C)(C)=O)=N1

>  <Kd (nM)>


>  <Assay (Kd)>


>  <Ki (nM)>


>  <Assay (Ki)>


>  <IC50 (nM)>
1.7

>  <Assay (IC50)>
Inhibit proliferation of SR cells

>  <EC50 (nM)>


>  <Assay (EC50)>


>  <Article DOI>
10.1016/j.ejmech.2020.112190

>  <Molecular Weight>
500.971

>  <Exact Mass>
500.18563851

>  <XLogP3>
3.86

>  <Heavy Atom Count>
34

>  <Ring Count>
4

>  <Hydrogen Bond Acceptor Count>
8

>  <Hydrogen Bond Donor Count>
3

>  <Rotatable Bond Count>
7

>  <Topological Polar Surface Area>
105.4

>  <Molecular Formula>
C24H30ClN6O2P

>  <InChI>
InChI=1S/C24H30ClN6O2P/c1-33-21-14-17(31-12-10-16(26)11-13-31)8-9-19(21)29-24-27-15-18(25)23(30-24)28-20-6-4-5-7-22(20)34(2,3)32/h4-9,14-16H,10-13,26H2,1-3H3,(H2,27,28,29,30)

>  <InChI Key>
VTMLWUJPMPXEQZ-UHFFFAOYSA-N

>  <BindingDB>


>  <PubChem>
138751530

>  <ChEMBL>


$$$$
Compound 124
Actelion Java MolfileCreator 2.0

  0  0  0  0  0  0              0 V3000
M  V30 BEGIN CTAB
M  V30 COUNTS 34 37 0 0 0
M  V30 BEGIN ATOM
M  V30 1 Cl 0.0 0.0 0.0 0
M  V30 2 C -0.9114 1.2035 0.0 0
M  V30 3 C -0.3388 2.594 0.0 0
M  V30 4 C -2.407 1.0282 0.0 0
M  V30 5 N -1.2502 3.7975 0.0 0
M  V30 6 N 1.1334 2.7926 0.0 0
M  V30 7 N -3.3184 2.2317 0.0 0
M  V30 8 C -2.7459 3.6222 0.0 0
M  V30 9 C 1.7059 4.1831 0.0 0
M  V30 10 N -3.6573 4.8258 0.0 0
M  V30 11 C 3.1782 4.3817 0.0 0
M  V30 12 C 0.7945 5.3866 0.0 0
M  V30 13 C -5.1529 4.6505 0.0 0
M  V30 14 P 4.0663 3.2016 0.0 0
M  V30 15 C 3.7508 5.7722 0.0 0
M  V30 16 C 1.3671 6.7771 0.0 0
M  V30 17 C -5.7489 3.2834 0.0 0
M  V30 18 C -6.0644 5.854 0.0 0
M  V30 19 O 4.9543 2.0214 0.0 0
M  V30 20 C 2.8627 2.3135 0.0 0
M  V30 21 C 5.2464 4.113 0.0 0
M  V30 22 C 2.8394 6.9758 0.0 0
M  V30 23 O -4.8608 2.1032 0.0 0
M  V30 24 C -7.2445 3.1081 0.0 0
M  V30 25 C -7.56 5.6788 0.0 0
M  V30 26 C -5.4567 0.7361 0.0 0
M  V30 27 C -8.1559 4.3116 0.0 0
M  V30 28 N -9.6516 4.1364 0.0 0
M  V30 29 C -10.563 5.3399 0.0 0
M  V30 30 C -10.2475 2.7692 0.0 0
M  V30 31 C -12.0586 5.1646 0.0 0
M  V30 32 C -11.7432 2.594 0.0 0
M  V30 33 C -12.6546 3.7975 0.0 0
M  V30 34 N -14.1502 3.6222 0.0 0
M  V30 END ATOM
M  V30 BEGIN BOND
M  V30 1 1 1 2
M  V30 2 2 2 3
M  V30 3 1 2 4
M  V30 4 1 3 5
M  V30 5 1 3 6
M  V30 6 2 4 7
M  V30 7 2 5 8
M  V30 8 1 6 9
M  V30 9 1 8 10
M  V30 10 2 9 11
M  V30 11 1 9 12
M  V30 12 1 10 13
M  V30 13 1 11 14
M  V30 14 1 11 15
M  V30 15 2 12 16
M  V30 16 2 13 17
M  V30 17 1 13 18
M  V30 18 2 14 19
M  V30 19 1 14 20
M  V30 20 1 14 21
M  V30 21 2 15 22
M  V30 22 1 17 23
M  V30 23 1 17 24
M  V30 24 2 18 25
M  V30 25 1 23 26
M  V30 26 2 24 27
M  V30 27 1 27 28
M  V30 28 1 28 29
M  V30 29 1 28 30
M  V30 30 1 29 31
M  V30 31 1 30 32
M  V30 32 1 31 33
M  V30 33 1 33 34
M  V30 34 1 7 8
M  V30 35 1 16 22
M  V30 36 1 25 27
M  V30 37 1 32 33
M  V30 END BOND
M  V30 END CTAB
M  END
>  <Compound ID>
65

>  <Name>
Brigatinib B

>  <Uniprot>
Q9UM73

>  <Target>
ALK

>  <Smiles>
COC1=CC(N2CCC(N)CC2)=CC=C1NC1=NC=C(Cl)C(NC2=CC=CC=C2P(C)(C)=O)=N1

>  <Kd (nM)>


>  <Assay (Kd)>


>  <Ki (nM)>


>  <Assay (Ki)>


>  <IC50 (nM)>
1.7

>  <Assay (IC50)>
Inhibit proliferation of SR cells

>  <EC50 (nM)>


>  <Assay (EC50)>


>  <Article DOI>
10.1016/j.ejmech.2020.112190

>  <Molecular Weight>
500.971

>  <Exact Mass>
500.18563851

>  <XLogP3>
3.86

>  <Heavy Atom Count>
34

>  <Ring Count>
4

>  <Hydrogen Bond Acceptor Count>
8

>  <Hydrogen Bond Donor Count>
3

>  <Rotatable Bond Count>
7

>  <Topological Polar Surface Area>
105.4

>  <Molecular Formula>
C24H30ClN6O2P

>  <InChI>
InChI=1S/C24H30ClN6O2P/c1-33-21-14-17(31-12-10-16(26)11-13-31)8-9-19(21)29-24-27-15-18(25)23(30-24)28-20-6-4-5-7-22(20)34(2,3)32/h4-9,14-16H,10-13,26H2,1-3H3,(H2,27,28,29,30)

>  <InChI Key>
VTMLWUJPMPXEQZ-UHFFFAOYSA-N

>  <BindingDB>


>  <PubChem>
138751530

>  <ChEMBL>


$$$$
Compound 125
Actelion Java MolfileCreator 2.0

  0  0  0  0  0  0              0 V3000
M  V30 BEGIN CTAB
M  V30 COUNTS 39 43 0 0 0
M  V30 BEGIN ATOM
M  V30 1 Cl 0.0 0.0 0.0 0
M  V30 2 C -0.9002 1.2159 0.0 0
M  V30 3 C -0.3156 2.5955 0.0 0
M  V30 4 C -2.3967 1.0522 0.0 0
M  V30 5 N -1.2159 3.8114 0.0 0
M  V30 6 N 1.1574 2.7826 0.0 0
M  V30 7 N -3.297 2.2681 0.0 0
M  V30 8 C -2.7124 3.6478 0.0 0
M  V30 9 C 1.742 4.1622 0.0 0
M  V30 10 N -3.6127 4.8637 0.0 0
M  V30 11 C 3.2152 4.3493 0.0 0
M  V30 12 C 0.8418 5.3781 0.0 0
M  V30 13 C -5.1092 4.7 0.0 0
M  V30 14 P 4.092 3.1567 0.0 0
M  V30 15 C 3.7998 5.7289 0.0 0
M  V30 16 C 1.4263 6.7577 0.0 0
M  V30 17 C -5.7172 3.3438 0.0 0
M  V30 18 C -6.0095 5.9159 0.0 0
M  V30 19 O 4.9689 1.9642 0.0 0
M  V30 20 C 2.8761 2.2798 0.0 0
M  V30 21 C 5.2846 4.057 0.0 0
M  V30 22 C 2.8995 6.9448 0.0 0
M  V30 23 O -4.8403 2.1512 0.0 0
M  V30 24 C -7.2137 3.1801 0.0 0
M  V30 25 C -7.506 5.7523 0.0 0
M  V30 26 C -5.4483 0.795 0.0 0
M  V30 27 C -8.114 4.396 0.0 0
M  V30 28 N -9.6105 4.2323 0.0 0
M  V30 29 C -10.5108 5.4483 0.0 0
M  V30 30 C -10.2185 2.8761 0.0 0
M  V30 31 C -12.0073 5.2846 0.0 0
M  V30 32 C -11.715 2.7124 0.0 0
M  V30 33 C -12.6153 3.9284 0.0 0
M  V30 34 N -14.1118 3.7647 0.0 0
M  V30 35 C -15.0121 4.9806 0.0 0
M  V30 36 C -14.7198 2.4084 0.0 0
M  V30 37 C -16.5086 4.8169 0.0 0
M  V30 38 C -16.2163 2.2448 0.0 0
M  V30 39 N -17.1166 3.4607 0.0 0
M  V30 END ATOM
M  V30 BEGIN BOND
M  V30 1 1 1 2
M  V30 2 2 2 3
M  V30 3 1 2 4
M  V30 4 1 3 5
M  V30 5 1 3 6
M  V30 6 2 4 7
M  V30 7 2 5 8
M  V30 8 1 6 9
M  V30 9 1 8 10
M  V30 10 2 9 11
M  V30 11 1 9 12
M  V30 12 1 10 13
M  V30 13 1 11 14
M  V30 14 1 11 15
M  V30 15 2 12 16
M  V30 16 2 13 17
M  V30 17 1 13 18
M  V30 18 2 14 19
M  V30 19 1 14 20
M  V30 20 1 14 21
M  V30 21 2 15 22
M  V30 22 1 17 23
M  V30 23 1 17 24
M  V30 24 2 18 25
M  V30 25 1 23 26
M  V30 26 2 24 27
M  V30 27 1 27 28
M  V30 28 1 28 29
M  V30 29 1 28 30
M  V30 30 1 29 31
M  V30 31 1 30 32
M  V30 32 1 31 33
M  V30 33 1 33 34
M  V30 34 1 34 35
M  V30 35 1 34 36
M  V30 36 1 35 37
M  V30 37 1 36 38
M  V30 38 1 37 39
M  V30 39 1 7 8
M  V30 40 1 16 22
M  V30 41 1 25 27
M  V30 42 1 32 33
M  V30 43 1 38 39
M  V30 END BOND
M  V30 END CTAB
M  END
>  <Compound ID>
66

>  <Name>
Brigatinib C

>  <Uniprot>
Q9UM73

>  <Target>
ALK G1202R

>  <Smiles>
COC1=CC(N2CCC(N3CCNCC3)CC2)=CC=C1NC1=NC=C(Cl)C(NC2=CC=CC=C2P(C)(C)=O)=N1

>  <Kd (nM)>


>  <Assay (Kd)>


>  <Ki (nM)>


>  <Assay (Ki)>


>  <IC50 (nM)>
6.8

>  <Assay (IC50)>
Inhibit proliferation of SR cells

>  <EC50 (nM)>


>  <Assay (EC50)>


>  <Article DOI>
10.1016/j.ejmech.2020.112190

>  <Molecular Weight>
570.078

>  <Exact Mass>
569.243487734

>  <XLogP3>
4.18

>  <Heavy Atom Count>
39

>  <Ring Count>
5

>  <Hydrogen Bond Acceptor Count>
9

>  <Hydrogen Bond Donor Count>
3

>  <Rotatable Bond Count>
8

>  <Topological Polar Surface Area>
94.65

>  <Molecular Formula>
C28H37ClN7O2P

>  <InChI>
InChI=1S/C28H37ClN7O2P/c1-38-25-18-21(35-14-10-20(11-15-35)36-16-12-30-13-17-36)8-9-23(25)33-28-31-19-22(29)27(34-28)32-24-6-4-5-7-26(24)39(2,3)37/h4-9,18-20,30H,10-17H2,1-3H3,(H2,31,32,33,34)

>  <InChI Key>
RWZBHSUFXJNDSS-UHFFFAOYSA-N

>  <BindingDB>


>  <PubChem>
68165330

>  <ChEMBL>
CHEMBL4793016

$$$$
Compound 126
Actelion Java MolfileCreator 2.0

  0  0  0  0  0  0              0 V3000
M  V30 BEGIN CTAB
M  V30 COUNTS 39 43 0 0 0
M  V30 BEGIN ATOM
M  V30 1 Cl 0.0 0.0 0.0 0
M  V30 2 C -0.9002 1.2159 0.0 0
M  V30 3 C -0.3156 2.5955 0.0 0
M  V30 4 C -2.3967 1.0522 0.0 0
M  V30 5 N -1.2159 3.8114 0.0 0
M  V30 6 N 1.1574 2.7826 0.0 0
M  V30 7 N -3.297 2.2681 0.0 0
M  V30 8 C -2.7124 3.6478 0.0 0
M  V30 9 C 1.742 4.1622 0.0 0
M  V30 10 N -3.6127 4.8637 0.0 0
M  V30 11 C 3.2152 4.3493 0.0 0
M  V30 12 C 0.8418 5.3781 0.0 0
M  V30 13 C -5.1092 4.7 0.0 0
M  V30 14 P 4.092 3.1567 0.0 0
M  V30 15 C 3.7998 5.7289 0.0 0
M  V30 16 C 1.4263 6.7577 0.0 0
M  V30 17 C -5.7172 3.3438 0.0 0
M  V30 18 C -6.0095 5.9159 0.0 0
M  V30 19 O 4.9689 1.9642 0.0 0
M  V30 20 C 2.8761 2.2798 0.0 0
M  V30 21 C 5.2846 4.057 0.0 0
M  V30 22 C 2.8995 6.9448 0.0 0
M  V30 23 O -4.8403 2.1512 0.0 0
M  V30 24 C -7.2137 3.1801 0.0 0
M  V30 25 C -7.506 5.7523 0.0 0
M  V30 26 C -5.4483 0.795 0.0 0
M  V30 27 C -8.114 4.396 0.0 0
M  V30 28 N -9.6105 4.2323 0.0 0
M  V30 29 C -10.5108 5.4483 0.0 0
M  V30 30 C -10.2185 2.8761 0.0 0
M  V30 31 C -12.0073 5.2846 0.0 0
M  V30 32 C -11.715 2.7124 0.0 0
M  V30 33 C -12.6153 3.9284 0.0 0
M  V30 34 N -14.1118 3.7647 0.0 0
M  V30 35 C -15.0121 4.9806 0.0 0
M  V30 36 C -14.7198 2.4084 0.0 0
M  V30 37 C -16.5086 4.8169 0.0 0
M  V30 38 C -16.2163 2.2448 0.0 0
M  V30 39 N -17.1166 3.4607 0.0 0
M  V30 END ATOM
M  V30 BEGIN BOND
M  V30 1 1 1 2
M  V30 2 2 2 3
M  V30 3 1 2 4
M  V30 4 1 3 5
M  V30 5 1 3 6
M  V30 6 2 4 7
M  V30 7 2 5 8
M  V30 8 1 6 9
M  V30 9 1 8 10
M  V30 10 2 9 11
M  V30 11 1 9 12
M  V30 12 1 10 13
M  V30 13 1 11 14
M  V30 14 1 11 15
M  V30 15 2 12 16
M  V30 16 2 13 17
M  V30 17 1 13 18
M  V30 18 2 14 19
M  V30 19 1 14 20
M  V30 20 1 14 21
M  V30 21 2 15 22
M  V30 22 1 17 23
M  V30 23 1 17 24
M  V30 24 2 18 25
M  V30 25 1 23 26
M  V30 26 2 24 27
M  V30 27 1 27 28
M  V30 28 1 28 29
M  V30 29 1 28 30
M  V30 30 1 29 31
M  V30 31 1 30 32
M  V30 32 1 31 33
M  V30 33 1 33 34
M  V30 34 1 34 35
M  V30 35 1 34 36
M  V30 36 1 35 37
M  V30 37 1 36 38
M  V30 38 1 37 39
M  V30 39 1 7 8
M  V30 40 1 16 22
M  V30 41 1 25 27
M  V30 42 1 32 33
M  V30 43 1 38 39
M  V30 END BOND
M  V30 END CTAB
M  END
>  <Compound ID>
66

>  <Name>
Brigatinib C

>  <Uniprot>
Q9UM73

>  <Target>
ALK

>  <Smiles>
COC1=CC(N2CCC(N3CCNCC3)CC2)=CC=C1NC1=NC=C(Cl)C(NC2=CC=CC=C2P(C)(C)=O)=N1

>  <Kd (nM)>


>  <Assay (Kd)>


>  <Ki (nM)>


>  <Assay (Ki)>


>  <IC50 (nM)>
6.8

>  <Assay (IC50)>
Inhibit proliferation of SR cells

>  <EC50 (nM)>


>  <Assay (EC50)>


>  <Article DOI>
10.1016/j.ejmech.2020.112190

>  <Molecular Weight>
570.078

>  <Exact Mass>
569.243487734

>  <XLogP3>
4.18

>  <Heavy Atom Count>
39

>  <Ring Count>
5

>  <Hydrogen Bond Acceptor Count>
9

>  <Hydrogen Bond Donor Count>
3

>  <Rotatable Bond Count>
8

>  <Topological Polar Surface Area>
94.65

>  <Molecular Formula>
C28H37ClN7O2P

>  <InChI>
InChI=1S/C28H37ClN7O2P/c1-38-25-18-21(35-14-10-20(11-15-35)36-16-12-30-13-17-36)8-9-23(25)33-28-31-19-22(29)27(34-28)32-24-6-4-5-7-26(24)39(2,3)37/h4-9,18-20,30H,10-17H2,1-3H3,(H2,31,32,33,34)

>  <InChI Key>
RWZBHSUFXJNDSS-UHFFFAOYSA-N

>  <BindingDB>


>  <PubChem>
68165330

>  <ChEMBL>
CHEMBL4793016

$$$$
Compound 127
Actelion Java MolfileCreator 2.0

  0  0  0  0  0  0              0 V3000
M  V30 BEGIN CTAB
M  V30 COUNTS 39 43 0 0 0
M  V30 BEGIN ATOM
M  V30 1 Cl 0.0 0.0 0.0 0
M  V30 2 C -0.9002 1.2159 0.0 0
M  V30 3 C -0.3156 2.5955 0.0 0
M  V30 4 C -2.3967 1.0522 0.0 0
M  V30 5 N -1.2159 3.8114 0.0 0
M  V30 6 N 1.1574 2.7826 0.0 0
M  V30 7 N -3.297 2.2681 0.0 0
M  V30 8 C -2.7124 3.6478 0.0 0
M  V30 9 C 1.742 4.1622 0.0 0
M  V30 10 N -3.6127 4.8637 0.0 0
M  V30 11 C 3.2152 4.3493 0.0 0
M  V30 12 C 0.8418 5.3781 0.0 0
M  V30 13 C -5.1092 4.7 0.0 0
M  V30 14 P 4.092 3.1567 0.0 0
M  V30 15 C 3.7998 5.7289 0.0 0
M  V30 16 C 1.4263 6.7577 0.0 0
M  V30 17 C -5.7172 3.3438 0.0 0
M  V30 18 C -6.0095 5.9159 0.0 0
M  V30 19 O 4.9689 1.9642 0.0 0
M  V30 20 C 2.8761 2.2798 0.0 0
M  V30 21 C 5.2846 4.057 0.0 0
M  V30 22 C 2.8995 6.9448 0.0 0
M  V30 23 O -4.8403 2.1512 0.0 0
M  V30 24 C -7.2137 3.1801 0.0 0
M  V30 25 C -7.506 5.7523 0.0 0
M  V30 26 C -5.4483 0.795 0.0 0
M  V30 27 C -8.114 4.396 0.0 0
M  V30 28 N -9.6105 4.2323 0.0 0
M  V30 29 C -10.5108 5.4483 0.0 0
M  V30 30 C -10.2185 2.8761 0.0 0
M  V30 31 C -12.0073 5.2846 0.0 0
M  V30 32 C -11.715 2.7124 0.0 0
M  V30 33 C -12.6153 3.9284 0.0 0
M  V30 34 N -14.1118 3.7647 0.0 0
M  V30 35 C -15.0121 4.9806 0.0 0
M  V30 36 C -14.7198 2.4084 0.0 0
M  V30 37 C -16.5086 4.8169 0.0 0
M  V30 38 C -16.2163 2.2448 0.0 0
M  V30 39 N -17.1166 3.4607 0.0 0
M  V30 END ATOM
M  V30 BEGIN BOND
M  V30 1 1 1 2
M  V30 2 2 2 3
M  V30 3 1 2 4
M  V30 4 1 3 5
M  V30 5 1 3 6
M  V30 6 2 4 7
M  V30 7 2 5 8
M  V30 8 1 6 9
M  V30 9 1 8 10
M  V30 10 2 9 11
M  V30 11 1 9 12
M  V30 12 1 10 13
M  V30 13 1 11 14
M  V30 14 1 11 15
M  V30 15 2 12 16
M  V30 16 2 13 17
M  V30 17 1 13 18
M  V30 18 2 14 19
M  V30 19 1 14 20
M  V30 20 1 14 21
M  V30 21 2 15 22
M  V30 22 1 17 23
M  V30 23 1 17 24
M  V30 24 2 18 25
M  V30 25 1 23 26
M  V30 26 2 24 27
M  V30 27 1 27 28
M  V30 28 1 28 29
M  V30 29 1 28 30
M  V30 30 1 29 31
M  V30 31 1 30 32
M  V30 32 1 31 33
M  V30 33 1 33 34
M  V30 34 1 34 35
M  V30 35 1 34 36
M  V30 36 1 35 37
M  V30 37 1 36 38
M  V30 38 1 37 39
M  V30 39 1 7 8
M  V30 40 1 16 22
M  V30 41 1 25 27
M  V30 42 1 32 33
M  V30 43 1 38 39
M  V30 END BOND
M  V30 END CTAB
M  END
>  <Compound ID>
66

>  <Name>
Brigatinib C

>  <Uniprot>
P00533

>  <Target>
EGFR L858R/T790M

>  <Smiles>
COC1=CC(N2CCC(N3CCNCC3)CC2)=CC=C1NC1=NC=C(Cl)C(NC2=CC=CC=C2P(C)(C)=O)=N1

>  <Kd (nM)>


>  <Assay (Kd)>


>  <Ki (nM)>


>  <Assay (Ki)>


>  <IC50 (nM)>
6.8

>  <Assay (IC50)>
Inhibit proliferation of SR cells

>  <EC50 (nM)>


>  <Assay (EC50)>


>  <Article DOI>
10.1016/j.ejmech.2020.112190

>  <Molecular Weight>
570.078

>  <Exact Mass>
569.243487734

>  <XLogP3>
4.18

>  <Heavy Atom Count>
39

>  <Ring Count>
5

>  <Hydrogen Bond Acceptor Count>
9

>  <Hydrogen Bond Donor Count>
3

>  <Rotatable Bond Count>
8

>  <Topological Polar Surface Area>
94.65

>  <Molecular Formula>
C28H37ClN7O2P

>  <InChI>
InChI=1S/C28H37ClN7O2P/c1-38-25-18-21(35-14-10-20(11-15-35)36-16-12-30-13-17-36)8-9-23(25)33-28-31-19-22(29)27(34-28)32-24-6-4-5-7-26(24)39(2,3)37/h4-9,18-20,30H,10-17H2,1-3H3,(H2,31,32,33,34)

>  <InChI Key>
RWZBHSUFXJNDSS-UHFFFAOYSA-N

>  <BindingDB>


>  <PubChem>
68165330

>  <ChEMBL>
CHEMBL4793016

$$$$
Compound 128
Actelion Java MolfileCreator 2.0

  0  0  0  0  0  0              0 V3000
M  V30 BEGIN CTAB
M  V30 COUNTS 39 43 0 0 0
M  V30 BEGIN ATOM
M  V30 1 Cl 0.0 0.0 0.0 0
M  V30 2 C -0.9002 1.2159 0.0 0
M  V30 3 C -0.3156 2.5955 0.0 0
M  V30 4 C -2.3967 1.0522 0.0 0
M  V30 5 N -1.2159 3.8114 0.0 0
M  V30 6 N 1.1574 2.7826 0.0 0
M  V30 7 N -3.297 2.2681 0.0 0
M  V30 8 C -2.7124 3.6478 0.0 0
M  V30 9 C 1.742 4.1622 0.0 0
M  V30 10 N -3.6127 4.8637 0.0 0
M  V30 11 C 3.2152 4.3493 0.0 0
M  V30 12 C 0.8418 5.3781 0.0 0
M  V30 13 C -5.1092 4.7 0.0 0
M  V30 14 P 4.092 3.1567 0.0 0
M  V30 15 C 3.7998 5.7289 0.0 0
M  V30 16 C 1.4263 6.7577 0.0 0
M  V30 17 C -5.7172 3.3438 0.0 0
M  V30 18 C -6.0095 5.9159 0.0 0
M  V30 19 O 4.9689 1.9642 0.0 0
M  V30 20 C 2.8761 2.2798 0.0 0
M  V30 21 C 5.2846 4.057 0.0 0
M  V30 22 C 2.8995 6.9448 0.0 0
M  V30 23 O -4.8403 2.1512 0.0 0
M  V30 24 C -7.2137 3.1801 0.0 0
M  V30 25 C -7.506 5.7523 0.0 0
M  V30 26 C -5.4483 0.795 0.0 0
M  V30 27 C -8.114 4.396 0.0 0
M  V30 28 N -9.6105 4.2323 0.0 0
M  V30 29 C -10.5108 5.4483 0.0 0
M  V30 30 C -10.2185 2.8761 0.0 0
M  V30 31 C -12.0073 5.2846 0.0 0
M  V30 32 C -11.715 2.7124 0.0 0
M  V30 33 C -12.6153 3.9284 0.0 0
M  V30 34 N -14.1118 3.7647 0.0 0
M  V30 35 C -15.0121 4.9806 0.0 0
M  V30 36 C -14.7198 2.4084 0.0 0
M  V30 37 C -16.5086 4.8169 0.0 0
M  V30 38 C -16.2163 2.2448 0.0 0
M  V30 39 N -17.1166 3.4607 0.0 0
M  V30 END ATOM
M  V30 BEGIN BOND
M  V30 1 1 1 2
M  V30 2 2 2 3
M  V30 3 1 2 4
M  V30 4 1 3 5
M  V30 5 1 3 6
M  V30 6 2 4 7
M  V30 7 2 5 8
M  V30 8 1 6 9
M  V30 9 1 8 10
M  V30 10 2 9 11
M  V30 11 1 9 12
M  V30 12 1 10 13
M  V30 13 1 11 14
M  V30 14 1 11 15
M  V30 15 2 12 16
M  V30 16 2 13 17
M  V30 17 1 13 18
M  V30 18 2 14 19
M  V30 19 1 14 20
M  V30 20 1 14 21
M  V30 21 2 15 22
M  V30 22 1 17 23
M  V30 23 1 17 24
M  V30 24 2 18 25
M  V30 25 1 23 26
M  V30 26 2 24 27
M  V30 27 1 27 28
M  V30 28 1 28 29
M  V30 29 1 28 30
M  V30 30 1 29 31
M  V30 31 1 30 32
M  V30 32 1 31 33
M  V30 33 1 33 34
M  V30 34 1 34 35
M  V30 35 1 34 36
M  V30 36 1 35 37
M  V30 37 1 36 38
M  V30 38 1 37 39
M  V30 39 1 7 8
M  V30 40 1 16 22
M  V30 41 1 25 27
M  V30 42 1 32 33
M  V30 43 1 38 39
M  V30 END BOND
M  V30 END CTAB
M  END
>  <Compound ID>
66

>  <Name>
Brigatinib C

>  <Uniprot>
Q05397

>  <Target>
FAK

>  <Smiles>
COC1=CC(N2CCC(N3CCNCC3)CC2)=CC=C1NC1=NC=C(Cl)C(NC2=CC=CC=C2P(C)(C)=O)=N1

>  <Kd (nM)>


>  <Assay (Kd)>


>  <Ki (nM)>


>  <Assay (Ki)>


>  <IC50 (nM)>
6.8

>  <Assay (IC50)>
Inhibit proliferation of SR cells

>  <EC50 (nM)>


>  <Assay (EC50)>


>  <Article DOI>
10.1016/j.ejmech.2020.112190

>  <Molecular Weight>
570.078

>  <Exact Mass>
569.243487734

>  <XLogP3>
4.18

>  <Heavy Atom Count>
39

>  <Ring Count>
5

>  <Hydrogen Bond Acceptor Count>
9

>  <Hydrogen Bond Donor Count>
3

>  <Rotatable Bond Count>
8

>  <Topological Polar Surface Area>
94.65

>  <Molecular Formula>
C28H37ClN7O2P

>  <InChI>
InChI=1S/C28H37ClN7O2P/c1-38-25-18-21(35-14-10-20(11-15-35)36-16-12-30-13-17-36)8-9-23(25)33-28-31-19-22(29)27(34-28)32-24-6-4-5-7-26(24)39(2,3)37/h4-9,18-20,30H,10-17H2,1-3H3,(H2,31,32,33,34)

>  <InChI Key>
RWZBHSUFXJNDSS-UHFFFAOYSA-N

>  <BindingDB>


>  <PubChem>
68165330

>  <ChEMBL>
CHEMBL4793016

$$$$
Compound 129
Actelion Java MolfileCreator 2.0

  0  0  0  0  0  0              0 V3000
M  V30 BEGIN CTAB
M  V30 COUNTS 39 43 0 0 0
M  V30 BEGIN ATOM
M  V30 1 Cl 0.0 0.0 0.0 0
M  V30 2 C -0.9002 1.2159 0.0 0
M  V30 3 C -0.3156 2.5955 0.0 0
M  V30 4 C -2.3967 1.0522 0.0 0
M  V30 5 N -1.2159 3.8114 0.0 0
M  V30 6 N 1.1574 2.7826 0.0 0
M  V30 7 N -3.297 2.2681 0.0 0
M  V30 8 C -2.7124 3.6478 0.0 0
M  V30 9 C 1.742 4.1622 0.0 0
M  V30 10 N -3.6127 4.8637 0.0 0
M  V30 11 C 3.2152 4.3493 0.0 0
M  V30 12 C 0.8418 5.3781 0.0 0
M  V30 13 C -5.1092 4.7 0.0 0
M  V30 14 P 4.092 3.1567 0.0 0
M  V30 15 C 3.7998 5.7289 0.0 0
M  V30 16 C 1.4263 6.7577 0.0 0
M  V30 17 C -5.7172 3.3438 0.0 0
M  V30 18 C -6.0095 5.9159 0.0 0
M  V30 19 O 4.9689 1.9642 0.0 0
M  V30 20 C 2.8761 2.2798 0.0 0
M  V30 21 C 5.2846 4.057 0.0 0
M  V30 22 C 2.8995 6.9448 0.0 0
M  V30 23 O -4.8403 2.1512 0.0 0
M  V30 24 C -7.2137 3.1801 0.0 0
M  V30 25 C -7.506 5.7523 0.0 0
M  V30 26 C -5.4483 0.795 0.0 0
M  V30 27 C -8.114 4.396 0.0 0
M  V30 28 N -9.6105 4.2323 0.0 0
M  V30 29 C -10.5108 5.4483 0.0 0
M  V30 30 C -10.2185 2.8761 0.0 0
M  V30 31 C -12.0073 5.2846 0.0 0
M  V30 32 C -11.715 2.7124 0.0 0
M  V30 33 C -12.6153 3.9284 0.0 0
M  V30 34 N -14.1118 3.7647 0.0 0
M  V30 35 C -15.0121 4.9806 0.0 0
M  V30 36 C -14.7198 2.4084 0.0 0
M  V30 37 C -16.5086 4.8169 0.0 0
M  V30 38 C -16.2163 2.2448 0.0 0
M  V30 39 N -17.1166 3.4607 0.0 0
M  V30 END ATOM
M  V30 BEGIN BOND
M  V30 1 1 1 2
M  V30 2 2 2 3
M  V30 3 1 2 4
M  V30 4 1 3 5
M  V30 5 1 3 6
M  V30 6 2 4 7
M  V30 7 2 5 8
M  V30 8 1 6 9
M  V30 9 1 8 10
M  V30 10 2 9 11
M  V30 11 1 9 12
M  V30 12 1 10 13
M  V30 13 1 11 14
M  V30 14 1 11 15
M  V30 15 2 12 16
M  V30 16 2 13 17
M  V30 17 1 13 18
M  V30 18 2 14 19
M  V30 19 1 14 20
M  V30 20 1 14 21
M  V30 21 2 15 22
M  V30 22 1 17 23
M  V30 23 1 17 24
M  V30 24 2 18 25
M  V30 25 1 23 26
M  V30 26 2 24 27
M  V30 27 1 27 28
M  V30 28 1 28 29
M  V30 29 1 28 30
M  V30 30 1 29 31
M  V30 31 1 30 32
M  V30 32 1 31 33
M  V30 33 1 33 34
M  V30 34 1 34 35
M  V30 35 1 34 36
M  V30 36 1 35 37
M  V30 37 1 36 38
M  V30 38 1 37 39
M  V30 39 1 7 8
M  V30 40 1 16 22
M  V30 41 1 25 27
M  V30 42 1 32 33
M  V30 43 1 38 39
M  V30 END BOND
M  V30 END CTAB
M  END
>  <Compound ID>
66

>  <Name>
Brigatinib C

>  <Uniprot>
P16591

>  <Target>
FER

>  <Smiles>
COC1=CC(N2CCC(N3CCNCC3)CC2)=CC=C1NC1=NC=C(Cl)C(NC2=CC=CC=C2P(C)(C)=O)=N1

>  <Kd (nM)>


>  <Assay (Kd)>


>  <Ki (nM)>


>  <Assay (Ki)>


>  <IC50 (nM)>
6.8

>  <Assay (IC50)>
Inhibit proliferation of SR cells

>  <EC50 (nM)>


>  <Assay (EC50)>


>  <Article DOI>
10.1016/j.ejmech.2020.112190

>  <Molecular Weight>
570.078

>  <Exact Mass>
569.243487734

>  <XLogP3>
4.18

>  <Heavy Atom Count>
39

>  <Ring Count>
5

>  <Hydrogen Bond Acceptor Count>
9

>  <Hydrogen Bond Donor Count>
3

>  <Rotatable Bond Count>
8

>  <Topological Polar Surface Area>
94.65

>  <Molecular Formula>
C28H37ClN7O2P

>  <InChI>
InChI=1S/C28H37ClN7O2P/c1-38-25-18-21(35-14-10-20(11-15-35)36-16-12-30-13-17-36)8-9-23(25)33-28-31-19-22(29)27(34-28)32-24-6-4-5-7-26(24)39(2,3)37/h4-9,18-20,30H,10-17H2,1-3H3,(H2,31,32,33,34)

>  <InChI Key>
RWZBHSUFXJNDSS-UHFFFAOYSA-N

>  <BindingDB>


>  <PubChem>
68165330

>  <ChEMBL>
CHEMBL4793016

$$$$
Compound 130
Actelion Java MolfileCreator 2.0

  0  0  0  0  0  0              0 V3000
M  V30 BEGIN CTAB
M  V30 COUNTS 39 43 0 0 0
M  V30 BEGIN ATOM
M  V30 1 Cl 0.0 0.0 0.0 0
M  V30 2 C -0.9002 1.2159 0.0 0
M  V30 3 C -0.3156 2.5955 0.0 0
M  V30 4 C -2.3967 1.0522 0.0 0
M  V30 5 N -1.2159 3.8114 0.0 0
M  V30 6 N 1.1574 2.7826 0.0 0
M  V30 7 N -3.297 2.2681 0.0 0
M  V30 8 C -2.7124 3.6478 0.0 0
M  V30 9 C 1.742 4.1622 0.0 0
M  V30 10 N -3.6127 4.8637 0.0 0
M  V30 11 C 3.2152 4.3493 0.0 0
M  V30 12 C 0.8418 5.3781 0.0 0
M  V30 13 C -5.1092 4.7 0.0 0
M  V30 14 P 4.092 3.1567 0.0 0
M  V30 15 C 3.7998 5.7289 0.0 0
M  V30 16 C 1.4263 6.7577 0.0 0
M  V30 17 C -5.7172 3.3438 0.0 0
M  V30 18 C -6.0095 5.9159 0.0 0
M  V30 19 O 4.9689 1.9642 0.0 0
M  V30 20 C 2.8761 2.2798 0.0 0
M  V30 21 C 5.2846 4.057 0.0 0
M  V30 22 C 2.8995 6.9448 0.0 0
M  V30 23 O -4.8403 2.1512 0.0 0
M  V30 24 C -7.2137 3.1801 0.0 0
M  V30 25 C -7.506 5.7523 0.0 0
M  V30 26 C -5.4483 0.795 0.0 0
M  V30 27 C -8.114 4.396 0.0 0
M  V30 28 N -9.6105 4.2323 0.0 0
M  V30 29 C -10.5108 5.4483 0.0 0
M  V30 30 C -10.2185 2.8761 0.0 0
M  V30 31 C -12.0073 5.2846 0.0 0
M  V30 32 C -11.715 2.7124 0.0 0
M  V30 33 C -12.6153 3.9284 0.0 0
M  V30 34 N -14.1118 3.7647 0.0 0
M  V30 35 C -15.0121 4.9806 0.0 0
M  V30 36 C -14.7198 2.4084 0.0 0
M  V30 37 C -16.5086 4.8169 0.0 0
M  V30 38 C -16.2163 2.2448 0.0 0
M  V30 39 N -17.1166 3.4607 0.0 0
M  V30 END ATOM
M  V30 BEGIN BOND
M  V30 1 1 1 2
M  V30 2 2 2 3
M  V30 3 1 2 4
M  V30 4 1 3 5
M  V30 5 1 3 6
M  V30 6 2 4 7
M  V30 7 2 5 8
M  V30 8 1 6 9
M  V30 9 1 8 10
M  V30 10 2 9 11
M  V30 11 1 9 12
M  V30 12 1 10 13
M  V30 13 1 11 14
M  V30 14 1 11 15
M  V30 15 2 12 16
M  V30 16 2 13 17
M  V30 17 1 13 18
M  V30 18 2 14 19
M  V30 19 1 14 20
M  V30 20 1 14 21
M  V30 21 2 15 22
M  V30 22 1 17 23
M  V30 23 1 17 24
M  V30 24 2 18 25
M  V30 25 1 23 26
M  V30 26 2 24 27
M  V30 27 1 27 28
M  V30 28 1 28 29
M  V30 29 1 28 30
M  V30 30 1 29 31
M  V30 31 1 30 32
M  V30 32 1 31 33
M  V30 33 1 33 34
M  V30 34 1 34 35
M  V30 35 1 34 36
M  V30 36 1 35 37
M  V30 37 1 36 38
M  V30 38 1 37 39
M  V30 39 1 7 8
M  V30 40 1 16 22
M  V30 41 1 25 27
M  V30 42 1 32 33
M  V30 43 1 38 39
M  V30 END BOND
M  V30 END CTAB
M  END
>  <Compound ID>
66

>  <Name>
Brigatinib C

>  <Uniprot>
Q14289

>  <Target>
PTK2B

>  <Smiles>
COC1=CC(N2CCC(N3CCNCC3)CC2)=CC=C1NC1=NC=C(Cl)C(NC2=CC=CC=C2P(C)(C)=O)=N1

>  <Kd (nM)>


>  <Assay (Kd)>


>  <Ki (nM)>


>  <Assay (Ki)>


>  <IC50 (nM)>
6.8

>  <Assay (IC50)>
Inhibit proliferation of SR cells

>  <EC50 (nM)>


>  <Assay (EC50)>


>  <Article DOI>
10.1016/j.ejmech.2020.112190

>  <Molecular Weight>
570.078

>  <Exact Mass>
569.243487734

>  <XLogP3>
4.18

>  <Heavy Atom Count>
39

>  <Ring Count>
5

>  <Hydrogen Bond Acceptor Count>
9

>  <Hydrogen Bond Donor Count>
3

>  <Rotatable Bond Count>
8

>  <Topological Polar Surface Area>
94.65

>  <Molecular Formula>
C28H37ClN7O2P

>  <InChI>
InChI=1S/C28H37ClN7O2P/c1-38-25-18-21(35-14-10-20(11-15-35)36-16-12-30-13-17-36)8-9-23(25)33-28-31-19-22(29)27(34-28)32-24-6-4-5-7-26(24)39(2,3)37/h4-9,18-20,30H,10-17H2,1-3H3,(H2,31,32,33,34)

>  <InChI Key>
RWZBHSUFXJNDSS-UHFFFAOYSA-N

>  <BindingDB>


>  <PubChem>
68165330

>  <ChEMBL>
CHEMBL4793016

$$$$
Compound 131
Actelion Java MolfileCreator 2.0

  0  0  0  0  0  0              0 V3000
M  V30 BEGIN CTAB
M  V30 COUNTS 39 43 0 0 0
M  V30 BEGIN ATOM
M  V30 1 Cl 0.0 0.0 0.0 0
M  V30 2 C -0.9002 1.2159 0.0 0
M  V30 3 C -0.3156 2.5955 0.0 0
M  V30 4 C -2.3967 1.0522 0.0 0
M  V30 5 N -1.2159 3.8114 0.0 0
M  V30 6 N 1.1574 2.7826 0.0 0
M  V30 7 N -3.297 2.2681 0.0 0
M  V30 8 C -2.7124 3.6478 0.0 0
M  V30 9 C 1.742 4.1622 0.0 0
M  V30 10 N -3.6127 4.8637 0.0 0
M  V30 11 C 3.2152 4.3493 0.0 0
M  V30 12 C 0.8418 5.3781 0.0 0
M  V30 13 C -5.1092 4.7 0.0 0
M  V30 14 P 4.092 3.1567 0.0 0
M  V30 15 C 3.7998 5.7289 0.0 0
M  V30 16 C 1.4263 6.7577 0.0 0
M  V30 17 C -5.7172 3.3438 0.0 0
M  V30 18 C -6.0095 5.9159 0.0 0
M  V30 19 O 4.9689 1.9642 0.0 0
M  V30 20 C 2.8761 2.2798 0.0 0
M  V30 21 C 5.2846 4.057 0.0 0
M  V30 22 C 2.8995 6.9448 0.0 0
M  V30 23 O -4.8403 2.1512 0.0 0
M  V30 24 C -7.2137 3.1801 0.0 0
M  V30 25 C -7.506 5.7523 0.0 0
M  V30 26 C -5.4483 0.795 0.0 0
M  V30 27 C -8.114 4.396 0.0 0
M  V30 28 N -9.6105 4.2323 0.0 0
M  V30 29 C -10.5108 5.4483 0.0 0
M  V30 30 C -10.2185 2.8761 0.0 0
M  V30 31 C -12.0073 5.2846 0.0 0
M  V30 32 C -11.715 2.7124 0.0 0
M  V30 33 C -12.6153 3.9284 0.0 0
M  V30 34 N -14.1118 3.7647 0.0 0
M  V30 35 C -15.0121 4.9806 0.0 0
M  V30 36 C -14.7198 2.4084 0.0 0
M  V30 37 C -16.5086 4.8169 0.0 0
M  V30 38 C -16.2163 2.2448 0.0 0
M  V30 39 N -17.1166 3.4607 0.0 0
M  V30 END ATOM
M  V30 BEGIN BOND
M  V30 1 1 1 2
M  V30 2 2 2 3
M  V30 3 1 2 4
M  V30 4 1 3 5
M  V30 5 1 3 6
M  V30 6 2 4 7
M  V30 7 2 5 8
M  V30 8 1 6 9
M  V30 9 1 8 10
M  V30 10 2 9 11
M  V30 11 1 9 12
M  V30 12 1 10 13
M  V30 13 1 11 14
M  V30 14 1 11 15
M  V30 15 2 12 16
M  V30 16 2 13 17
M  V30 17 1 13 18
M  V30 18 2 14 19
M  V30 19 1 14 20
M  V30 20 1 14 21
M  V30 21 2 15 22
M  V30 22 1 17 23
M  V30 23 1 17 24
M  V30 24 2 18 25
M  V30 25 1 23 26
M  V30 26 2 24 27
M  V30 27 1 27 28
M  V30 28 1 28 29
M  V30 29 1 28 30
M  V30 30 1 29 31
M  V30 31 1 30 32
M  V30 32 1 31 33
M  V30 33 1 33 34
M  V30 34 1 34 35
M  V30 35 1 34 36
M  V30 36 1 35 37
M  V30 37 1 36 38
M  V30 38 1 37 39
M  V30 39 1 7 8
M  V30 40 1 16 22
M  V30 41 1 25 27
M  V30 42 1 32 33
M  V30 43 1 38 39
M  V30 END BOND
M  V30 END CTAB
M  END
>  <Compound ID>
66

>  <Name>
Brigatinib C

>  <Uniprot>
Q13882

>  <Target>
PTK6

>  <Smiles>
COC1=CC(N2CCC(N3CCNCC3)CC2)=CC=C1NC1=NC=C(Cl)C(NC2=CC=CC=C2P(C)(C)=O)=N1

>  <Kd (nM)>


>  <Assay (Kd)>


>  <Ki (nM)>


>  <Assay (Ki)>


>  <IC50 (nM)>
6.8

>  <Assay (IC50)>
Inhibit proliferation of SR cells

>  <EC50 (nM)>


>  <Assay (EC50)>


>  <Article DOI>
10.1016/j.ejmech.2020.112190

>  <Molecular Weight>
570.078

>  <Exact Mass>
569.243487734

>  <XLogP3>
4.18

>  <Heavy Atom Count>
39

>  <Ring Count>
5

>  <Hydrogen Bond Acceptor Count>
9

>  <Hydrogen Bond Donor Count>
3

>  <Rotatable Bond Count>
8

>  <Topological Polar Surface Area>
94.65

>  <Molecular Formula>
C28H37ClN7O2P

>  <InChI>
InChI=1S/C28H37ClN7O2P/c1-38-25-18-21(35-14-10-20(11-15-35)36-16-12-30-13-17-36)8-9-23(25)33-28-31-19-22(29)27(34-28)32-24-6-4-5-7-26(24)39(2,3)37/h4-9,18-20,30H,10-17H2,1-3H3,(H2,31,32,33,34)

>  <InChI Key>
RWZBHSUFXJNDSS-UHFFFAOYSA-N

>  <BindingDB>


>  <PubChem>
68165330

>  <ChEMBL>
CHEMBL4793016

$$$$
Compound 132
Actelion Java MolfileCreator 2.0

  0  0  0  0  0  0              0 V3000
M  V30 BEGIN CTAB
M  V30 COUNTS 39 43 0 0 0
M  V30 BEGIN ATOM
M  V30 1 Cl 0.0 0.0 0.0 0
M  V30 2 C -0.9002 1.2159 0.0 0
M  V30 3 C -0.3156 2.5955 0.0 0
M  V30 4 C -2.3967 1.0522 0.0 0
M  V30 5 N -1.2159 3.8114 0.0 0
M  V30 6 N 1.1574 2.7826 0.0 0
M  V30 7 N -3.297 2.2681 0.0 0
M  V30 8 C -2.7124 3.6478 0.0 0
M  V30 9 C 1.742 4.1622 0.0 0
M  V30 10 N -3.6127 4.8637 0.0 0
M  V30 11 C 3.2152 4.3493 0.0 0
M  V30 12 C 0.8418 5.3781 0.0 0
M  V30 13 C -5.1092 4.7 0.0 0
M  V30 14 P 4.092 3.1567 0.0 0
M  V30 15 C 3.7998 5.7289 0.0 0
M  V30 16 C 1.4263 6.7577 0.0 0
M  V30 17 C -5.7172 3.3438 0.0 0
M  V30 18 C -6.0095 5.9159 0.0 0
M  V30 19 O 4.9689 1.9642 0.0 0
M  V30 20 C 2.8761 2.2798 0.0 0
M  V30 21 C 5.2846 4.057 0.0 0
M  V30 22 C 2.8995 6.9448 0.0 0
M  V30 23 O -4.8403 2.1512 0.0 0
M  V30 24 C -7.2137 3.1801 0.0 0
M  V30 25 C -7.506 5.7523 0.0 0
M  V30 26 C -5.4483 0.795 0.0 0
M  V30 27 C -8.114 4.396 0.0 0
M  V30 28 N -9.6105 4.2323 0.0 0
M  V30 29 C -10.5108 5.4483 0.0 0
M  V30 30 C -10.2185 2.8761 0.0 0
M  V30 31 C -12.0073 5.2846 0.0 0
M  V30 32 C -11.715 2.7124 0.0 0
M  V30 33 C -12.6153 3.9284 0.0 0
M  V30 34 N -14.1118 3.7647 0.0 0
M  V30 35 C -15.0121 4.9806 0.0 0
M  V30 36 C -14.7198 2.4084 0.0 0
M  V30 37 C -16.5086 4.8169 0.0 0
M  V30 38 C -16.2163 2.2448 0.0 0
M  V30 39 N -17.1166 3.4607 0.0 0
M  V30 END ATOM
M  V30 BEGIN BOND
M  V30 1 1 1 2
M  V30 2 2 2 3
M  V30 3 1 2 4
M  V30 4 1 3 5
M  V30 5 1 3 6
M  V30 6 2 4 7
M  V30 7 2 5 8
M  V30 8 1 6 9
M  V30 9 1 8 10
M  V30 10 2 9 11
M  V30 11 1 9 12
M  V30 12 1 10 13
M  V30 13 1 11 14
M  V30 14 1 11 15
M  V30 15 2 12 16
M  V30 16 2 13 17
M  V30 17 1 13 18
M  V30 18 2 14 19
M  V30 19 1 14 20
M  V30 20 1 14 21
M  V30 21 2 15 22
M  V30 22 1 17 23
M  V30 23 1 17 24
M  V30 24 2 18 25
M  V30 25 1 23 26
M  V30 26 2 24 27
M  V30 27 1 27 28
M  V30 28 1 28 29
M  V30 29 1 28 30
M  V30 30 1 29 31
M  V30 31 1 30 32
M  V30 32 1 31 33
M  V30 33 1 33 34
M  V30 34 1 34 35
M  V30 35 1 34 36
M  V30 36 1 35 37
M  V30 37 1 36 38
M  V30 38 1 37 39
M  V30 39 1 7 8
M  V30 40 1 16 22
M  V30 41 1 25 27
M  V30 42 1 32 33
M  V30 43 1 38 39
M  V30 END BOND
M  V30 END CTAB
M  END
>  <Compound ID>
66

>  <Name>
Brigatinib C

>  <Uniprot>
Q15418

>  <Target>
RPS6KA1

>  <Smiles>
COC1=CC(N2CCC(N3CCNCC3)CC2)=CC=C1NC1=NC=C(Cl)C(NC2=CC=CC=C2P(C)(C)=O)=N1

>  <Kd (nM)>


>  <Assay (Kd)>


>  <Ki (nM)>


>  <Assay (Ki)>


>  <IC50 (nM)>
6.8

>  <Assay (IC50)>
Inhibit proliferation of SR cells

>  <EC50 (nM)>


>  <Assay (EC50)>


>  <Article DOI>
10.1016/j.ejmech.2020.112190

>  <Molecular Weight>
570.078

>  <Exact Mass>
569.243487734

>  <XLogP3>
4.18

>  <Heavy Atom Count>
39

>  <Ring Count>
5

>  <Hydrogen Bond Acceptor Count>
9

>  <Hydrogen Bond Donor Count>
3

>  <Rotatable Bond Count>
8

>  <Topological Polar Surface Area>
94.65

>  <Molecular Formula>
C28H37ClN7O2P

>  <InChI>
InChI=1S/C28H37ClN7O2P/c1-38-25-18-21(35-14-10-20(11-15-35)36-16-12-30-13-17-36)8-9-23(25)33-28-31-19-22(29)27(34-28)32-24-6-4-5-7-26(24)39(2,3)37/h4-9,18-20,30H,10-17H2,1-3H3,(H2,31,32,33,34)

>  <InChI Key>
RWZBHSUFXJNDSS-UHFFFAOYSA-N

>  <BindingDB>


>  <PubChem>
68165330

>  <ChEMBL>
CHEMBL4793016

$$$$
Compound 133
Actelion Java MolfileCreator 2.0

  0  0  0  0  0  0              0 V3000
M  V30 BEGIN CTAB
M  V30 COUNTS 42 46 0 0 0
M  V30 BEGIN ATOM
M  V30 1 Cl 0.0 0.0 0.0 0
M  V30 2 C -0.9222 1.1907 0.0 0
M  V30 3 C -0.3618 2.5916 0.0 0
M  V30 4 C -2.4165 1.0039 0.0 0
M  V30 5 N -1.2841 3.7823 0.0 0
M  V30 6 N 1.109 2.8017 0.0 0
M  V30 7 N -3.3387 2.1947 0.0 0
M  V30 8 C -2.7783 3.5955 0.0 0
M  V30 9 C 1.6693 4.2026 0.0 0
M  V30 10 N -3.7006 4.7863 0.0 0
M  V30 11 C 3.1402 4.4127 0.0 0
M  V30 12 C 0.7471 5.3933 0.0 0
M  V30 13 C -5.1949 4.5995 0.0 0
M  V30 14 S 4.0391 3.2453 0.0 0
M  V30 15 C 3.7006 5.8136 0.0 0
M  V30 16 C 1.3074 6.7942 0.0 0
M  V30 17 C -5.7786 3.222 0.0 0
M  V30 18 C -6.1171 5.7902 0.0 0
M  V30 19 O 2.8484 2.3464 0.0 0
M  V30 20 O 5.2065 4.1675 0.0 0
M  V30 21 C 4.938 2.0779 0.0 0
M  V30 22 C 2.7783 7.0043 0.0 0
M  V30 23 O -4.8797 2.0546 0.0 0
M  V30 24 C -7.2728 3.0352 0.0 0
M  V30 25 C -7.6114 5.6034 0.0 0
M  V30 26 C 6.4089 2.288 0.0 0
M  V30 27 C 4.3543 0.7004 0.0 0
M  V30 28 C -5.4634 0.677 0.0 0
M  V30 29 C -8.1951 4.2259 0.0 0
M  V30 30 N -9.6893 4.0391 0.0 0
M  V30 31 C -10.6116 5.2299 0.0 0
M  V30 32 C -10.273 2.6616 0.0 0
M  V30 33 C -12.1058 5.0431 0.0 0
M  V30 34 C -11.7673 2.4748 0.0 0
M  V30 35 C -12.6895 3.6656 0.0 0
M  V30 36 N -14.1838 3.4788 0.0 0
M  V30 37 C -15.106 4.6695 0.0 0
M  V30 38 C -14.7675 2.1013 0.0 0
M  V30 39 C -16.6003 4.4827 0.0 0
M  V30 40 C -16.2618 1.9145 0.0 0
M  V30 41 N -17.184 3.1052 0.0 0
M  V30 42 C -18.6783 2.9184 0.0 0
M  V30 END ATOM
M  V30 BEGIN BOND
M  V30 1 1 1 2
M  V30 2 2 2 3
M  V30 3 1 2 4
M  V30 4 1 3 5
M  V30 5 1 3 6
M  V30 6 2 4 7
M  V30 7 2 5 8
M  V30 8 1 6 9
M  V30 9 1 8 10
M  V30 10 2 9 11
M  V30 11 1 9 12
M  V30 12 1 10 13
M  V30 13 1 11 14
M  V30 14 1 11 15
M  V30 15 2 12 16
M  V30 16 2 13 17
M  V30 17 1 13 18
M  V30 18 2 14 19
M  V30 19 2 14 20
M  V30 20 1 14 21
M  V30 21 2 15 22
M  V30 22 1 17 23
M  V30 23 1 17 24
M  V30 24 2 18 25
M  V30 25 1 21 26
M  V30 26 1 21 27
M  V30 27 1 23 28
M  V30 28 2 24 29
M  V30 29 1 29 30
M  V30 30 1 30 31
M  V30 31 1 30 32
M  V30 32 1 31 33
M  V30 33 1 32 34
M  V30 34 1 33 35
M  V30 35 1 35 36
M  V30 36 1 36 37
M  V30 37 1 36 38
M  V30 38 1 37 39
M  V30 39 1 38 40
M  V30 40 1 39 41
M  V30 41 1 41 42
M  V30 42 1 7 8
M  V30 43 1 16 22
M  V30 44 1 25 29
M  V30 45 1 34 35
M  V30 46 1 40 41
M  V30 END BOND
M  V30 END CTAB
M  END
>  <Compound ID>
67

>  <Name>
TAE684

>  <Uniprot>
Q2M2I8

>  <Target>
AAK1

>  <Smiles>
COC1=CC(N2CCC(N3CCN(C)CC3)CC2)=CC=C1NC1=NC=C(Cl)C(NC2=CC=CC=C2S(=O)(=O)C(C)C)=N1

>  <Kd (nM)>
470

>  <Assay (Kd)>
Kd was assessed by competition binding assays

>  <Ki (nM)>


>  <Assay (Ki)>


>  <IC50 (nM)>


>  <Assay (IC50)>


>  <EC50 (nM)>


>  <Assay (EC50)>


>  <Article DOI>
10.1038/nbt.1990

>  <Molecular Weight>
614.216

>  <Exact Mass>
613.26018682

>  <XLogP3>
5.67

>  <Heavy Atom Count>
42

>  <Ring Count>
5

>  <Hydrogen Bond Acceptor Count>
10

>  <Hydrogen Bond Donor Count>
2

>  <Rotatable Bond Count>
9

>  <Topological Polar Surface Area>
102.93

>  <Molecular Formula>
C30H40ClN7O3S

>  <InChI>
InChI=1S/C30H40ClN7O3S/c1-21(2)42(39,40)28-8-6-5-7-26(28)33-29-24(31)20-32-30(35-29)34-25-10-9-23(19-27(25)41-4)37-13-11-22(12-14-37)38-17-15-36(3)16-18-38/h5-10,19-22H,11-18H2,1-4H3,(H2,32,33,34,35)

>  <InChI Key>
QQWUGDVOUVUTOY-UHFFFAOYSA-N

>  <BindingDB>
50242742

>  <PubChem>
16038120

>  <ChEMBL>
CHEMBL509032

$$$$
Compound 134
Actelion Java MolfileCreator 2.0

  0  0  0  0  0  0              0 V3000
M  V30 BEGIN CTAB
M  V30 COUNTS 42 46 0 0 0
M  V30 BEGIN ATOM
M  V30 1 Cl 0.0 0.0 0.0 0
M  V30 2 C -0.9222 1.1907 0.0 0
M  V30 3 C -0.3618 2.5916 0.0 0
M  V30 4 C -2.4165 1.0039 0.0 0
M  V30 5 N -1.2841 3.7823 0.0 0
M  V30 6 N 1.109 2.8017 0.0 0
M  V30 7 N -3.3387 2.1947 0.0 0
M  V30 8 C -2.7783 3.5955 0.0 0
M  V30 9 C 1.6693 4.2026 0.0 0
M  V30 10 N -3.7006 4.7863 0.0 0
M  V30 11 C 3.1402 4.4127 0.0 0
M  V30 12 C 0.7471 5.3933 0.0 0
M  V30 13 C -5.1949 4.5995 0.0 0
M  V30 14 S 4.0391 3.2453 0.0 0
M  V30 15 C 3.7006 5.8136 0.0 0
M  V30 16 C 1.3074 6.7942 0.0 0
M  V30 17 C -5.7786 3.222 0.0 0
M  V30 18 C -6.1171 5.7902 0.0 0
M  V30 19 O 2.8484 2.3464 0.0 0
M  V30 20 O 5.2065 4.1675 0.0 0
M  V30 21 C 4.938 2.0779 0.0 0
M  V30 22 C 2.7783 7.0043 0.0 0
M  V30 23 O -4.8797 2.0546 0.0 0
M  V30 24 C -7.2728 3.0352 0.0 0
M  V30 25 C -7.6114 5.6034 0.0 0
M  V30 26 C 6.4089 2.288 0.0 0
M  V30 27 C 4.3543 0.7004 0.0 0
M  V30 28 C -5.4634 0.677 0.0 0
M  V30 29 C -8.1951 4.2259 0.0 0
M  V30 30 N -9.6893 4.0391 0.0 0
M  V30 31 C -10.6116 5.2299 0.0 0
M  V30 32 C -10.273 2.6616 0.0 0
M  V30 33 C -12.1058 5.0431 0.0 0
M  V30 34 C -11.7673 2.4748 0.0 0
M  V30 35 C -12.6895 3.6656 0.0 0
M  V30 36 N -14.1838 3.4788 0.0 0
M  V30 37 C -15.106 4.6695 0.0 0
M  V30 38 C -14.7675 2.1013 0.0 0
M  V30 39 C -16.6003 4.4827 0.0 0
M  V30 40 C -16.2618 1.9145 0.0 0
M  V30 41 N -17.184 3.1052 0.0 0
M  V30 42 C -18.6783 2.9184 0.0 0
M  V30 END ATOM
M  V30 BEGIN BOND
M  V30 1 1 1 2
M  V30 2 2 2 3
M  V30 3 1 2 4
M  V30 4 1 3 5
M  V30 5 1 3 6
M  V30 6 2 4 7
M  V30 7 2 5 8
M  V30 8 1 6 9
M  V30 9 1 8 10
M  V30 10 2 9 11
M  V30 11 1 9 12
M  V30 12 1 10 13
M  V30 13 1 11 14
M  V30 14 1 11 15
M  V30 15 2 12 16
M  V30 16 2 13 17
M  V30 17 1 13 18
M  V30 18 2 14 19
M  V30 19 2 14 20
M  V30 20 1 14 21
M  V30 21 2 15 22
M  V30 22 1 17 23
M  V30 23 1 17 24
M  V30 24 2 18 25
M  V30 25 1 21 26
M  V30 26 1 21 27
M  V30 27 1 23 28
M  V30 28 2 24 29
M  V30 29 1 29 30
M  V30 30 1 30 31
M  V30 31 1 30 32
M  V30 32 1 31 33
M  V30 33 1 32 34
M  V30 34 1 33 35
M  V30 35 1 35 36
M  V30 36 1 36 37
M  V30 37 1 36 38
M  V30 38 1 37 39
M  V30 39 1 38 40
M  V30 40 1 39 41
M  V30 41 1 41 42
M  V30 42 1 7 8
M  V30 43 1 16 22
M  V30 44 1 25 29
M  V30 45 1 34 35
M  V30 46 1 40 41
M  V30 END BOND
M  V30 END CTAB
M  END
>  <Compound ID>
67

>  <Name>
TAE684

>  <Uniprot>
P00519

>  <Target>
ABL1

>  <Smiles>
COC1=CC(N2CCC(N3CCN(C)CC3)CC2)=CC=C1NC1=NC=C(Cl)C(NC2=CC=CC=C2S(=O)(=O)C(C)C)=N1

>  <Kd (nM)>
200/170

>  <Assay (Kd)>
Kd of ABL1-non phosphorylated/ABL1-phosphorylated was assessed by competition binding assays

>  <Ki (nM)>


>  <Assay (Ki)>


>  <IC50 (nM)>


>  <Assay (IC50)>


>  <EC50 (nM)>


>  <Assay (EC50)>


>  <Article DOI>
10.1038/nbt.1990

>  <Molecular Weight>
614.216

>  <Exact Mass>
613.26018682

>  <XLogP3>
5.67

>  <Heavy Atom Count>
42

>  <Ring Count>
5

>  <Hydrogen Bond Acceptor Count>
10

>  <Hydrogen Bond Donor Count>
2

>  <Rotatable Bond Count>
9

>  <Topological Polar Surface Area>
102.93

>  <Molecular Formula>
C30H40ClN7O3S

>  <InChI>
InChI=1S/C30H40ClN7O3S/c1-21(2)42(39,40)28-8-6-5-7-26(28)33-29-24(31)20-32-30(35-29)34-25-10-9-23(19-27(25)41-4)37-13-11-22(12-14-37)38-17-15-36(3)16-18-38/h5-10,19-22H,11-18H2,1-4H3,(H2,32,33,34,35)

>  <InChI Key>
QQWUGDVOUVUTOY-UHFFFAOYSA-N

>  <BindingDB>
50242742

>  <PubChem>
16038120

>  <ChEMBL>
CHEMBL509032

$$$$
Compound 135
Actelion Java MolfileCreator 2.0

  0  0  0  0  0  0              0 V3000
M  V30 BEGIN CTAB
M  V30 COUNTS 42 46 0 0 0
M  V30 BEGIN ATOM
M  V30 1 Cl 0.0 0.0 0.0 0
M  V30 2 C -0.9222 1.1907 0.0 0
M  V30 3 C -0.3618 2.5916 0.0 0
M  V30 4 C -2.4165 1.0039 0.0 0
M  V30 5 N -1.2841 3.7823 0.0 0
M  V30 6 N 1.109 2.8017 0.0 0
M  V30 7 N -3.3387 2.1947 0.0 0
M  V30 8 C -2.7783 3.5955 0.0 0
M  V30 9 C 1.6693 4.2026 0.0 0
M  V30 10 N -3.7006 4.7863 0.0 0
M  V30 11 C 3.1402 4.4127 0.0 0
M  V30 12 C 0.7471 5.3933 0.0 0
M  V30 13 C -5.1949 4.5995 0.0 0
M  V30 14 S 4.0391 3.2453 0.0 0
M  V30 15 C 3.7006 5.8136 0.0 0
M  V30 16 C 1.3074 6.7942 0.0 0
M  V30 17 C -5.7786 3.222 0.0 0
M  V30 18 C -6.1171 5.7902 0.0 0
M  V30 19 O 2.8484 2.3464 0.0 0
M  V30 20 O 5.2065 4.1675 0.0 0
M  V30 21 C 4.938 2.0779 0.0 0
M  V30 22 C 2.7783 7.0043 0.0 0
M  V30 23 O -4.8797 2.0546 0.0 0
M  V30 24 C -7.2728 3.0352 0.0 0
M  V30 25 C -7.6114 5.6034 0.0 0
M  V30 26 C 6.4089 2.288 0.0 0
M  V30 27 C 4.3543 0.7004 0.0 0
M  V30 28 C -5.4634 0.677 0.0 0
M  V30 29 C -8.1951 4.2259 0.0 0
M  V30 30 N -9.6893 4.0391 0.0 0
M  V30 31 C -10.6116 5.2299 0.0 0
M  V30 32 C -10.273 2.6616 0.0 0
M  V30 33 C -12.1058 5.0431 0.0 0
M  V30 34 C -11.7673 2.4748 0.0 0
M  V30 35 C -12.6895 3.6656 0.0 0
M  V30 36 N -14.1838 3.4788 0.0 0
M  V30 37 C -15.106 4.6695 0.0 0
M  V30 38 C -14.7675 2.1013 0.0 0
M  V30 39 C -16.6003 4.4827 0.0 0
M  V30 40 C -16.2618 1.9145 0.0 0
M  V30 41 N -17.184 3.1052 0.0 0
M  V30 42 C -18.6783 2.9184 0.0 0
M  V30 END ATOM
M  V30 BEGIN BOND
M  V30 1 1 1 2
M  V30 2 2 2 3
M  V30 3 1 2 4
M  V30 4 1 3 5
M  V30 5 1 3 6
M  V30 6 2 4 7
M  V30 7 2 5 8
M  V30 8 1 6 9
M  V30 9 1 8 10
M  V30 10 2 9 11
M  V30 11 1 9 12
M  V30 12 1 10 13
M  V30 13 1 11 14
M  V30 14 1 11 15
M  V30 15 2 12 16
M  V30 16 2 13 17
M  V30 17 1 13 18
M  V30 18 2 14 19
M  V30 19 2 14 20
M  V30 20 1 14 21
M  V30 21 2 15 22
M  V30 22 1 17 23
M  V30 23 1 17 24
M  V30 24 2 18 25
M  V30 25 1 21 26
M  V30 26 1 21 27
M  V30 27 1 23 28
M  V30 28 2 24 29
M  V30 29 1 29 30
M  V30 30 1 30 31
M  V30 31 1 30 32
M  V30 32 1 31 33
M  V30 33 1 32 34
M  V30 34 1 33 35
M  V30 35 1 35 36
M  V30 36 1 36 37
M  V30 37 1 36 38
M  V30 38 1 37 39
M  V30 39 1 38 40
M  V30 40 1 39 41
M  V30 41 1 41 42
M  V30 42 1 7 8
M  V30 43 1 16 22
M  V30 44 1 25 29
M  V30 45 1 34 35
M  V30 46 1 40 41
M  V30 END BOND
M  V30 END CTAB
M  END
>  <Compound ID>
67

>  <Name>
TAE684

>  <Uniprot>
P42684

>  <Target>
ABL2

>  <Smiles>
COC1=CC(N2CCC(N3CCN(C)CC3)CC2)=CC=C1NC1=NC=C(Cl)C(NC2=CC=CC=C2S(=O)(=O)C(C)C)=N1

>  <Kd (nM)>
380

>  <Assay (Kd)>
Kd was assessed by competition binding assays

>  <Ki (nM)>


>  <Assay (Ki)>


>  <IC50 (nM)>


>  <Assay (IC50)>


>  <EC50 (nM)>


>  <Assay (EC50)>


>  <Article DOI>
10.1038/nbt.1990

>  <Molecular Weight>
614.216

>  <Exact Mass>
613.26018682

>  <XLogP3>
5.67

>  <Heavy Atom Count>
42

>  <Ring Count>
5

>  <Hydrogen Bond Acceptor Count>
10

>  <Hydrogen Bond Donor Count>
2

>  <Rotatable Bond Count>
9

>  <Topological Polar Surface Area>
102.93

>  <Molecular Formula>
C30H40ClN7O3S

>  <InChI>
InChI=1S/C30H40ClN7O3S/c1-21(2)42(39,40)28-8-6-5-7-26(28)33-29-24(31)20-32-30(35-29)34-25-10-9-23(19-27(25)41-4)37-13-11-22(12-14-37)38-17-15-36(3)16-18-38/h5-10,19-22H,11-18H2,1-4H3,(H2,32,33,34,35)

>  <InChI Key>
QQWUGDVOUVUTOY-UHFFFAOYSA-N

>  <BindingDB>
50242742

>  <PubChem>
16038120

>  <ChEMBL>
CHEMBL509032

$$$$
Compound 136
Actelion Java MolfileCreator 2.0

  0  0  0  0  0  0              0 V3000
M  V30 BEGIN CTAB
M  V30 COUNTS 42 46 0 0 0
M  V30 BEGIN ATOM
M  V30 1 Cl 0.0 0.0 0.0 0
M  V30 2 C -0.9222 1.1907 0.0 0
M  V30 3 C -0.3618 2.5916 0.0 0
M  V30 4 C -2.4165 1.0039 0.0 0
M  V30 5 N -1.2841 3.7823 0.0 0
M  V30 6 N 1.109 2.8017 0.0 0
M  V30 7 N -3.3387 2.1947 0.0 0
M  V30 8 C -2.7783 3.5955 0.0 0
M  V30 9 C 1.6693 4.2026 0.0 0
M  V30 10 N -3.7006 4.7863 0.0 0
M  V30 11 C 3.1402 4.4127 0.0 0
M  V30 12 C 0.7471 5.3933 0.0 0
M  V30 13 C -5.1949 4.5995 0.0 0
M  V30 14 S 4.0391 3.2453 0.0 0
M  V30 15 C 3.7006 5.8136 0.0 0
M  V30 16 C 1.3074 6.7942 0.0 0
M  V30 17 C -5.7786 3.222 0.0 0
M  V30 18 C -6.1171 5.7902 0.0 0
M  V30 19 O 2.8484 2.3464 0.0 0
M  V30 20 O 5.2065 4.1675 0.0 0
M  V30 21 C 4.938 2.0779 0.0 0
M  V30 22 C 2.7783 7.0043 0.0 0
M  V30 23 O -4.8797 2.0546 0.0 0
M  V30 24 C -7.2728 3.0352 0.0 0
M  V30 25 C -7.6114 5.6034 0.0 0
M  V30 26 C 6.4089 2.288 0.0 0
M  V30 27 C 4.3543 0.7004 0.0 0
M  V30 28 C -5.4634 0.677 0.0 0
M  V30 29 C -8.1951 4.2259 0.0 0
M  V30 30 N -9.6893 4.0391 0.0 0
M  V30 31 C -10.6116 5.2299 0.0 0
M  V30 32 C -10.273 2.6616 0.0 0
M  V30 33 C -12.1058 5.0431 0.0 0
M  V30 34 C -11.7673 2.4748 0.0 0
M  V30 35 C -12.6895 3.6656 0.0 0
M  V30 36 N -14.1838 3.4788 0.0 0
M  V30 37 C -15.106 4.6695 0.0 0
M  V30 38 C -14.7675 2.1013 0.0 0
M  V30 39 C -16.6003 4.4827 0.0 0
M  V30 40 C -16.2618 1.9145 0.0 0
M  V30 41 N -17.184 3.1052 0.0 0
M  V30 42 C -18.6783 2.9184 0.0 0
M  V30 END ATOM
M  V30 BEGIN BOND
M  V30 1 1 1 2
M  V30 2 2 2 3
M  V30 3 1 2 4
M  V30 4 1 3 5
M  V30 5 1 3 6
M  V30 6 2 4 7
M  V30 7 2 5 8
M  V30 8 1 6 9
M  V30 9 1 8 10
M  V30 10 2 9 11
M  V30 11 1 9 12
M  V30 12 1 10 13
M  V30 13 1 11 14
M  V30 14 1 11 15
M  V30 15 2 12 16
M  V30 16 2 13 17
M  V30 17 1 13 18
M  V30 18 2 14 19
M  V30 19 2 14 20
M  V30 20 1 14 21
M  V30 21 2 15 22
M  V30 22 1 17 23
M  V30 23 1 17 24
M  V30 24 2 18 25
M  V30 25 1 21 26
M  V30 26 1 21 27
M  V30 27 1 23 28
M  V30 28 2 24 29
M  V30 29 1 29 30
M  V30 30 1 30 31
M  V30 31 1 30 32
M  V30 32 1 31 33
M  V30 33 1 32 34
M  V30 34 1 33 35
M  V30 35 1 35 36
M  V30 36 1 36 37
M  V30 37 1 36 38
M  V30 38 1 37 39
M  V30 39 1 38 40
M  V30 40 1 39 41
M  V30 41 1 41 42
M  V30 42 1 7 8
M  V30 43 1 16 22
M  V30 44 1 25 29
M  V30 45 1 34 35
M  V30 46 1 40 41
M  V30 END BOND
M  V30 END CTAB
M  END
>  <Compound ID>
67

>  <Name>
TAE684

>  <Uniprot>
P31751

>  <Target>
AKT2

>  <Smiles>
COC1=CC(N2CCC(N3CCN(C)CC3)CC2)=CC=C1NC1=NC=C(Cl)C(NC2=CC=CC=C2S(=O)(=O)C(C)C)=N1

>  <Kd (nM)>
>10000

>  <Assay (Kd)>
Kd was assessed by competition binding assays

>  <Ki (nM)>


>  <Assay (Ki)>


>  <IC50 (nM)>


>  <Assay (IC50)>


>  <EC50 (nM)>


>  <Assay (EC50)>


>  <Article DOI>
10.1038/nbt.1990

>  <Molecular Weight>
614.216

>  <Exact Mass>
613.26018682

>  <XLogP3>
5.67

>  <Heavy Atom Count>
42

>  <Ring Count>
5

>  <Hydrogen Bond Acceptor Count>
10

>  <Hydrogen Bond Donor Count>
2

>  <Rotatable Bond Count>
9

>  <Topological Polar Surface Area>
102.93

>  <Molecular Formula>
C30H40ClN7O3S

>  <InChI>
InChI=1S/C30H40ClN7O3S/c1-21(2)42(39,40)28-8-6-5-7-26(28)33-29-24(31)20-32-30(35-29)34-25-10-9-23(19-27(25)41-4)37-13-11-22(12-14-37)38-17-15-36(3)16-18-38/h5-10,19-22H,11-18H2,1-4H3,(H2,32,33,34,35)

>  <InChI Key>
QQWUGDVOUVUTOY-UHFFFAOYSA-N

>  <BindingDB>
50242742

>  <PubChem>
16038120

>  <ChEMBL>
CHEMBL509032

$$$$
Compound 137
Actelion Java MolfileCreator 2.0

  0  0  0  0  0  0              0 V3000
M  V30 BEGIN CTAB
M  V30 COUNTS 42 46 0 0 0
M  V30 BEGIN ATOM
M  V30 1 Cl 0.0 0.0 0.0 0
M  V30 2 C -0.9222 1.1907 0.0 0
M  V30 3 C -0.3618 2.5916 0.0 0
M  V30 4 C -2.4165 1.0039 0.0 0
M  V30 5 N -1.2841 3.7823 0.0 0
M  V30 6 N 1.109 2.8017 0.0 0
M  V30 7 N -3.3387 2.1947 0.0 0
M  V30 8 C -2.7783 3.5955 0.0 0
M  V30 9 C 1.6693 4.2026 0.0 0
M  V30 10 N -3.7006 4.7863 0.0 0
M  V30 11 C 3.1402 4.4127 0.0 0
M  V30 12 C 0.7471 5.3933 0.0 0
M  V30 13 C -5.1949 4.5995 0.0 0
M  V30 14 S 4.0391 3.2453 0.0 0
M  V30 15 C 3.7006 5.8136 0.0 0
M  V30 16 C 1.3074 6.7942 0.0 0
M  V30 17 C -5.7786 3.222 0.0 0
M  V30 18 C -6.1171 5.7902 0.0 0
M  V30 19 O 2.8484 2.3464 0.0 0
M  V30 20 O 5.2065 4.1675 0.0 0
M  V30 21 C 4.938 2.0779 0.0 0
M  V30 22 C 2.7783 7.0043 0.0 0
M  V30 23 O -4.8797 2.0546 0.0 0
M  V30 24 C -7.2728 3.0352 0.0 0
M  V30 25 C -7.6114 5.6034 0.0 0
M  V30 26 C 6.4089 2.288 0.0 0
M  V30 27 C 4.3543 0.7004 0.0 0
M  V30 28 C -5.4634 0.677 0.0 0
M  V30 29 C -8.1951 4.2259 0.0 0
M  V30 30 N -9.6893 4.0391 0.0 0
M  V30 31 C -10.6116 5.2299 0.0 0
M  V30 32 C -10.273 2.6616 0.0 0
M  V30 33 C -12.1058 5.0431 0.0 0
M  V30 34 C -11.7673 2.4748 0.0 0
M  V30 35 C -12.6895 3.6656 0.0 0
M  V30 36 N -14.1838 3.4788 0.0 0
M  V30 37 C -15.106 4.6695 0.0 0
M  V30 38 C -14.7675 2.1013 0.0 0
M  V30 39 C -16.6003 4.4827 0.0 0
M  V30 40 C -16.2618 1.9145 0.0 0
M  V30 41 N -17.184 3.1052 0.0 0
M  V30 42 C -18.6783 2.9184 0.0 0
M  V30 END ATOM
M  V30 BEGIN BOND
M  V30 1 1 1 2
M  V30 2 2 2 3
M  V30 3 1 2 4
M  V30 4 1 3 5
M  V30 5 1 3 6
M  V30 6 2 4 7
M  V30 7 2 5 8
M  V30 8 1 6 9
M  V30 9 1 8 10
M  V30 10 2 9 11
M  V30 11 1 9 12
M  V30 12 1 10 13
M  V30 13 1 11 14
M  V30 14 1 11 15
M  V30 15 2 12 16
M  V30 16 2 13 17
M  V30 17 1 13 18
M  V30 18 2 14 19
M  V30 19 2 14 20
M  V30 20 1 14 21
M  V30 21 2 15 22
M  V30 22 1 17 23
M  V30 23 1 17 24
M  V30 24 2 18 25
M  V30 25 1 21 26
M  V30 26 1 21 27
M  V30 27 1 23 28
M  V30 28 2 24 29
M  V30 29 1 29 30
M  V30 30 1 30 31
M  V30 31 1 30 32
M  V30 32 1 31 33
M  V30 33 1 32 34
M  V30 34 1 33 35
M  V30 35 1 35 36
M  V30 36 1 36 37
M  V30 37 1 36 38
M  V30 38 1 37 39
M  V30 39 1 38 40
M  V30 40 1 39 41
M  V30 41 1 41 42
M  V30 42 1 7 8
M  V30 43 1 16 22
M  V30 44 1 25 29
M  V30 45 1 34 35
M  V30 46 1 40 41
M  V30 END BOND
M  V30 END CTAB
M  END
>  <Compound ID>
67

>  <Name>
TAE684

>  <Uniprot>
Q9Y243

>  <Target>
AKT3

>  <Smiles>
COC1=CC(N2CCC(N3CCN(C)CC3)CC2)=CC=C1NC1=NC=C(Cl)C(NC2=CC=CC=C2S(=O)(=O)C(C)C)=N1

>  <Kd (nM)>
>10000

>  <Assay (Kd)>
Kd was assessed by competition binding assays

>  <Ki (nM)>


>  <Assay (Ki)>


>  <IC50 (nM)>


>  <Assay (IC50)>


>  <EC50 (nM)>


>  <Assay (EC50)>


>  <Article DOI>
10.1038/nbt.1990

>  <Molecular Weight>
614.216

>  <Exact Mass>
613.26018682

>  <XLogP3>
5.67

>  <Heavy Atom Count>
42

>  <Ring Count>
5

>  <Hydrogen Bond Acceptor Count>
10

>  <Hydrogen Bond Donor Count>
2

>  <Rotatable Bond Count>
9

>  <Topological Polar Surface Area>
102.93

>  <Molecular Formula>
C30H40ClN7O3S

>  <InChI>
InChI=1S/C30H40ClN7O3S/c1-21(2)42(39,40)28-8-6-5-7-26(28)33-29-24(31)20-32-30(35-29)34-25-10-9-23(19-27(25)41-4)37-13-11-22(12-14-37)38-17-15-36(3)16-18-38/h5-10,19-22H,11-18H2,1-4H3,(H2,32,33,34,35)

>  <InChI Key>
QQWUGDVOUVUTOY-UHFFFAOYSA-N

>  <BindingDB>
50242742

>  <PubChem>
16038120

>  <ChEMBL>
CHEMBL509032

$$$$
Compound 138
Actelion Java MolfileCreator 2.0

  0  0  0  0  0  0              0 V3000
M  V30 BEGIN CTAB
M  V30 COUNTS 42 46 0 0 0
M  V30 BEGIN ATOM
M  V30 1 Cl 0.0 0.0 0.0 0
M  V30 2 C -0.9222 1.1907 0.0 0
M  V30 3 C -0.3618 2.5916 0.0 0
M  V30 4 C -2.4165 1.0039 0.0 0
M  V30 5 N -1.2841 3.7823 0.0 0
M  V30 6 N 1.109 2.8017 0.0 0
M  V30 7 N -3.3387 2.1947 0.0 0
M  V30 8 C -2.7783 3.5955 0.0 0
M  V30 9 C 1.6693 4.2026 0.0 0
M  V30 10 N -3.7006 4.7863 0.0 0
M  V30 11 C 3.1402 4.4127 0.0 0
M  V30 12 C 0.7471 5.3933 0.0 0
M  V30 13 C -5.1949 4.5995 0.0 0
M  V30 14 S 4.0391 3.2453 0.0 0
M  V30 15 C 3.7006 5.8136 0.0 0
M  V30 16 C 1.3074 6.7942 0.0 0
M  V30 17 C -5.7786 3.222 0.0 0
M  V30 18 C -6.1171 5.7902 0.0 0
M  V30 19 O 2.8484 2.3464 0.0 0
M  V30 20 O 5.2065 4.1675 0.0 0
M  V30 21 C 4.938 2.0779 0.0 0
M  V30 22 C 2.7783 7.0043 0.0 0
M  V30 23 O -4.8797 2.0546 0.0 0
M  V30 24 C -7.2728 3.0352 0.0 0
M  V30 25 C -7.6114 5.6034 0.0 0
M  V30 26 C 6.4089 2.288 0.0 0
M  V30 27 C 4.3543 0.7004 0.0 0
M  V30 28 C -5.4634 0.677 0.0 0
M  V30 29 C -8.1951 4.2259 0.0 0
M  V30 30 N -9.6893 4.0391 0.0 0
M  V30 31 C -10.6116 5.2299 0.0 0
M  V30 32 C -10.273 2.6616 0.0 0
M  V30 33 C -12.1058 5.0431 0.0 0
M  V30 34 C -11.7673 2.4748 0.0 0
M  V30 35 C -12.6895 3.6656 0.0 0
M  V30 36 N -14.1838 3.4788 0.0 0
M  V30 37 C -15.106 4.6695 0.0 0
M  V30 38 C -14.7675 2.1013 0.0 0
M  V30 39 C -16.6003 4.4827 0.0 0
M  V30 40 C -16.2618 1.9145 0.0 0
M  V30 41 N -17.184 3.1052 0.0 0
M  V30 42 C -18.6783 2.9184 0.0 0
M  V30 END ATOM
M  V30 BEGIN BOND
M  V30 1 1 1 2
M  V30 2 2 2 3
M  V30 3 1 2 4
M  V30 4 1 3 5
M  V30 5 1 3 6
M  V30 6 2 4 7
M  V30 7 2 5 8
M  V30 8 1 6 9
M  V30 9 1 8 10
M  V30 10 2 9 11
M  V30 11 1 9 12
M  V30 12 1 10 13
M  V30 13 1 11 14
M  V30 14 1 11 15
M  V30 15 2 12 16
M  V30 16 2 13 17
M  V30 17 1 13 18
M  V30 18 2 14 19
M  V30 19 2 14 20
M  V30 20 1 14 21
M  V30 21 2 15 22
M  V30 22 1 17 23
M  V30 23 1 17 24
M  V30 24 2 18 25
M  V30 25 1 21 26
M  V30 26 1 21 27
M  V30 27 1 23 28
M  V30 28 2 24 29
M  V30 29 1 29 30
M  V30 30 1 30 31
M  V30 31 1 30 32
M  V30 32 1 31 33
M  V30 33 1 32 34
M  V30 34 1 33 35
M  V30 35 1 35 36
M  V30 36 1 36 37
M  V30 37 1 36 38
M  V30 38 1 37 39
M  V30 39 1 38 40
M  V30 40 1 39 41
M  V30 41 1 41 42
M  V30 42 1 7 8
M  V30 43 1 16 22
M  V30 44 1 25 29
M  V30 45 1 34 35
M  V30 46 1 40 41
M  V30 END BOND
M  V30 END CTAB
M  END
>  <Compound ID>
67

>  <Name>
TAE684

>  <Uniprot>
Q9UM73

>  <Target>
ALK

>  <Smiles>
COC1=CC(N2CCC(N3CCN(C)CC3)CC2)=CC=C1NC1=NC=C(Cl)C(NC2=CC=CC=C2S(=O)(=O)C(C)C)=N1

>  <Kd (nM)>


>  <Assay (Kd)>


>  <Ki (nM)>


>  <Assay (Ki)>


>  <IC50 (nM)>
0.1

>  <Assay (IC50)>
IC50 of ALK was assessed by TR-FRET ALK activity assay

>  <EC50 (nM)>


>  <Assay (EC50)>


>  <Article DOI>
10.1021/acs.jmedchem.7b01655

>  <Molecular Weight>
614.216

>  <Exact Mass>
613.26018682

>  <XLogP3>
5.67

>  <Heavy Atom Count>
42

>  <Ring Count>
5

>  <Hydrogen Bond Acceptor Count>
10

>  <Hydrogen Bond Donor Count>
2

>  <Rotatable Bond Count>
9

>  <Topological Polar Surface Area>
102.93

>  <Molecular Formula>
C30H40ClN7O3S

>  <InChI>
InChI=1S/C30H40ClN7O3S/c1-21(2)42(39,40)28-8-6-5-7-26(28)33-29-24(31)20-32-30(35-29)34-25-10-9-23(19-27(25)41-4)37-13-11-22(12-14-37)38-17-15-36(3)16-18-38/h5-10,19-22H,11-18H2,1-4H3,(H2,32,33,34,35)

>  <InChI Key>
QQWUGDVOUVUTOY-UHFFFAOYSA-N

>  <BindingDB>
50242742

>  <PubChem>
16038120

>  <ChEMBL>
CHEMBL509032

$$$$
Compound 139
Actelion Java MolfileCreator 2.0

  0  0  0  0  0  0              0 V3000
M  V30 BEGIN CTAB
M  V30 COUNTS 42 46 0 0 0
M  V30 BEGIN ATOM
M  V30 1 Cl 0.0 0.0 0.0 0
M  V30 2 C -0.9222 1.1907 0.0 0
M  V30 3 C -0.3618 2.5916 0.0 0
M  V30 4 C -2.4165 1.0039 0.0 0
M  V30 5 N -1.2841 3.7823 0.0 0
M  V30 6 N 1.109 2.8017 0.0 0
M  V30 7 N -3.3387 2.1947 0.0 0
M  V30 8 C -2.7783 3.5955 0.0 0
M  V30 9 C 1.6693 4.2026 0.0 0
M  V30 10 N -3.7006 4.7863 0.0 0
M  V30 11 C 3.1402 4.4127 0.0 0
M  V30 12 C 0.7471 5.3933 0.0 0
M  V30 13 C -5.1949 4.5995 0.0 0
M  V30 14 S 4.0391 3.2453 0.0 0
M  V30 15 C 3.7006 5.8136 0.0 0
M  V30 16 C 1.3074 6.7942 0.0 0
M  V30 17 C -5.7786 3.222 0.0 0
M  V30 18 C -6.1171 5.7902 0.0 0
M  V30 19 O 2.8484 2.3464 0.0 0
M  V30 20 O 5.2065 4.1675 0.0 0
M  V30 21 C 4.938 2.0779 0.0 0
M  V30 22 C 2.7783 7.0043 0.0 0
M  V30 23 O -4.8797 2.0546 0.0 0
M  V30 24 C -7.2728 3.0352 0.0 0
M  V30 25 C -7.6114 5.6034 0.0 0
M  V30 26 C 6.4089 2.288 0.0 0
M  V30 27 C 4.3543 0.7004 0.0 0
M  V30 28 C -5.4634 0.677 0.0 0
M  V30 29 C -8.1951 4.2259 0.0 0
M  V30 30 N -9.6893 4.0391 0.0 0
M  V30 31 C -10.6116 5.2299 0.0 0
M  V30 32 C -10.273 2.6616 0.0 0
M  V30 33 C -12.1058 5.0431 0.0 0
M  V30 34 C -11.7673 2.4748 0.0 0
M  V30 35 C -12.6895 3.6656 0.0 0
M  V30 36 N -14.1838 3.4788 0.0 0
M  V30 37 C -15.106 4.6695 0.0 0
M  V30 38 C -14.7675 2.1013 0.0 0
M  V30 39 C -16.6003 4.4827 0.0 0
M  V30 40 C -16.2618 1.9145 0.0 0
M  V30 41 N -17.184 3.1052 0.0 0
M  V30 42 C -18.6783 2.9184 0.0 0
M  V30 END ATOM
M  V30 BEGIN BOND
M  V30 1 1 1 2
M  V30 2 2 2 3
M  V30 3 1 2 4
M  V30 4 1 3 5
M  V30 5 1 3 6
M  V30 6 2 4 7
M  V30 7 2 5 8
M  V30 8 1 6 9
M  V30 9 1 8 10
M  V30 10 2 9 11
M  V30 11 1 9 12
M  V30 12 1 10 13
M  V30 13 1 11 14
M  V30 14 1 11 15
M  V30 15 2 12 16
M  V30 16 2 13 17
M  V30 17 1 13 18
M  V30 18 2 14 19
M  V30 19 2 14 20
M  V30 20 1 14 21
M  V30 21 2 15 22
M  V30 22 1 17 23
M  V30 23 1 17 24
M  V30 24 2 18 25
M  V30 25 1 21 26
M  V30 26 1 21 27
M  V30 27 1 23 28
M  V30 28 2 24 29
M  V30 29 1 29 30
M  V30 30 1 30 31
M  V30 31 1 30 32
M  V30 32 1 31 33
M  V30 33 1 32 34
M  V30 34 1 33 35
M  V30 35 1 35 36
M  V30 36 1 36 37
M  V30 37 1 36 38
M  V30 38 1 37 39
M  V30 39 1 38 40
M  V30 40 1 39 41
M  V30 41 1 41 42
M  V30 42 1 7 8
M  V30 43 1 16 22
M  V30 44 1 25 29
M  V30 45 1 34 35
M  V30 46 1 40 41
M  V30 END BOND
M  V30 END CTAB
M  END
>  <Compound ID>
67

>  <Name>
TAE684

>  <Uniprot>
O14965

>  <Target>
AURKA

>  <Smiles>
COC1=CC(N2CCC(N3CCN(C)CC3)CC2)=CC=C1NC1=NC=C(Cl)C(NC2=CC=CC=C2S(=O)(=O)C(C)C)=N1

>  <Kd (nM)>
44

>  <Assay (Kd)>
Kd was assessed by competition binding assays

>  <Ki (nM)>


>  <Assay (Ki)>


>  <IC50 (nM)>


>  <Assay (IC50)>


>  <EC50 (nM)>


>  <Assay (EC50)>


>  <Article DOI>
10.1038/nbt.1990

>  <Molecular Weight>
614.216

>  <Exact Mass>
613.26018682

>  <XLogP3>
5.67

>  <Heavy Atom Count>
42

>  <Ring Count>
5

>  <Hydrogen Bond Acceptor Count>
10

>  <Hydrogen Bond Donor Count>
2

>  <Rotatable Bond Count>
9

>  <Topological Polar Surface Area>
102.93

>  <Molecular Formula>
C30H40ClN7O3S

>  <InChI>
InChI=1S/C30H40ClN7O3S/c1-21(2)42(39,40)28-8-6-5-7-26(28)33-29-24(31)20-32-30(35-29)34-25-10-9-23(19-27(25)41-4)37-13-11-22(12-14-37)38-17-15-36(3)16-18-38/h5-10,19-22H,11-18H2,1-4H3,(H2,32,33,34,35)

>  <InChI Key>
QQWUGDVOUVUTOY-UHFFFAOYSA-N

>  <BindingDB>
50242742

>  <PubChem>
16038120

>  <ChEMBL>
CHEMBL509032

$$$$
Compound 140
Actelion Java MolfileCreator 2.0

  0  0  0  0  0  0              0 V3000
M  V30 BEGIN CTAB
M  V30 COUNTS 42 46 0 0 0
M  V30 BEGIN ATOM
M  V30 1 Cl 0.0 0.0 0.0 0
M  V30 2 C -0.9222 1.1907 0.0 0
M  V30 3 C -0.3618 2.5916 0.0 0
M  V30 4 C -2.4165 1.0039 0.0 0
M  V30 5 N -1.2841 3.7823 0.0 0
M  V30 6 N 1.109 2.8017 0.0 0
M  V30 7 N -3.3387 2.1947 0.0 0
M  V30 8 C -2.7783 3.5955 0.0 0
M  V30 9 C 1.6693 4.2026 0.0 0
M  V30 10 N -3.7006 4.7863 0.0 0
M  V30 11 C 3.1402 4.4127 0.0 0
M  V30 12 C 0.7471 5.3933 0.0 0
M  V30 13 C -5.1949 4.5995 0.0 0
M  V30 14 S 4.0391 3.2453 0.0 0
M  V30 15 C 3.7006 5.8136 0.0 0
M  V30 16 C 1.3074 6.7942 0.0 0
M  V30 17 C -5.7786 3.222 0.0 0
M  V30 18 C -6.1171 5.7902 0.0 0
M  V30 19 O 2.8484 2.3464 0.0 0
M  V30 20 O 5.2065 4.1675 0.0 0
M  V30 21 C 4.938 2.0779 0.0 0
M  V30 22 C 2.7783 7.0043 0.0 0
M  V30 23 O -4.8797 2.0546 0.0 0
M  V30 24 C -7.2728 3.0352 0.0 0
M  V30 25 C -7.6114 5.6034 0.0 0
M  V30 26 C 6.4089 2.288 0.0 0
M  V30 27 C 4.3543 0.7004 0.0 0
M  V30 28 C -5.4634 0.677 0.0 0
M  V30 29 C -8.1951 4.2259 0.0 0
M  V30 30 N -9.6893 4.0391 0.0 0
M  V30 31 C -10.6116 5.2299 0.0 0
M  V30 32 C -10.273 2.6616 0.0 0
M  V30 33 C -12.1058 5.0431 0.0 0
M  V30 34 C -11.7673 2.4748 0.0 0
M  V30 35 C -12.6895 3.6656 0.0 0
M  V30 36 N -14.1838 3.4788 0.0 0
M  V30 37 C -15.106 4.6695 0.0 0
M  V30 38 C -14.7675 2.1013 0.0 0
M  V30 39 C -16.6003 4.4827 0.0 0
M  V30 40 C -16.2618 1.9145 0.0 0
M  V30 41 N -17.184 3.1052 0.0 0
M  V30 42 C -18.6783 2.9184 0.0 0
M  V30 END ATOM
M  V30 BEGIN BOND
M  V30 1 1 1 2
M  V30 2 2 2 3
M  V30 3 1 2 4
M  V30 4 1 3 5
M  V30 5 1 3 6
M  V30 6 2 4 7
M  V30 7 2 5 8
M  V30 8 1 6 9
M  V30 9 1 8 10
M  V30 10 2 9 11
M  V30 11 1 9 12
M  V30 12 1 10 13
M  V30 13 1 11 14
M  V30 14 1 11 15
M  V30 15 2 12 16
M  V30 16 2 13 17
M  V30 17 1 13 18
M  V30 18 2 14 19
M  V30 19 2 14 20
M  V30 20 1 14 21
M  V30 21 2 15 22
M  V30 22 1 17 23
M  V30 23 1 17 24
M  V30 24 2 18 25
M  V30 25 1 21 26
M  V30 26 1 21 27
M  V30 27 1 23 28
M  V30 28 2 24 29
M  V30 29 1 29 30
M  V30 30 1 30 31
M  V30 31 1 30 32
M  V30 32 1 31 33
M  V30 33 1 32 34
M  V30 34 1 33 35
M  V30 35 1 35 36
M  V30 36 1 36 37
M  V30 37 1 36 38
M  V30 38 1 37 39
M  V30 39 1 38 40
M  V30 40 1 39 41
M  V30 41 1 41 42
M  V30 42 1 7 8
M  V30 43 1 16 22
M  V30 44 1 25 29
M  V30 45 1 34 35
M  V30 46 1 40 41
M  V30 END BOND
M  V30 END CTAB
M  END
>  <Compound ID>
67

>  <Name>
TAE684

>  <Uniprot>
Q96GD4

>  <Target>
AURKB

>  <Smiles>
COC1=CC(N2CCC(N3CCN(C)CC3)CC2)=CC=C1NC1=NC=C(Cl)C(NC2=CC=CC=C2S(=O)(=O)C(C)C)=N1

>  <Kd (nM)>
150

>  <Assay (Kd)>
Kd was assessed by competition binding assays

>  <Ki (nM)>


>  <Assay (Ki)>


>  <IC50 (nM)>


>  <Assay (IC50)>


>  <EC50 (nM)>


>  <Assay (EC50)>


>  <Article DOI>
10.1038/nbt.1990

>  <Molecular Weight>
614.216

>  <Exact Mass>
613.26018682

>  <XLogP3>
5.67

>  <Heavy Atom Count>
42

>  <Ring Count>
5

>  <Hydrogen Bond Acceptor Count>
10

>  <Hydrogen Bond Donor Count>
2

>  <Rotatable Bond Count>
9

>  <Topological Polar Surface Area>
102.93

>  <Molecular Formula>
C30H40ClN7O3S

>  <InChI>
InChI=1S/C30H40ClN7O3S/c1-21(2)42(39,40)28-8-6-5-7-26(28)33-29-24(31)20-32-30(35-29)34-25-10-9-23(19-27(25)41-4)37-13-11-22(12-14-37)38-17-15-36(3)16-18-38/h5-10,19-22H,11-18H2,1-4H3,(H2,32,33,34,35)

>  <InChI Key>
QQWUGDVOUVUTOY-UHFFFAOYSA-N

>  <BindingDB>
50242742

>  <PubChem>
16038120

>  <ChEMBL>
CHEMBL509032

$$$$
Compound 141
Actelion Java MolfileCreator 2.0

  0  0  0  0  0  0              0 V3000
M  V30 BEGIN CTAB
M  V30 COUNTS 42 46 0 0 0
M  V30 BEGIN ATOM
M  V30 1 Cl 0.0 0.0 0.0 0
M  V30 2 C -0.9222 1.1907 0.0 0
M  V30 3 C -0.3618 2.5916 0.0 0
M  V30 4 C -2.4165 1.0039 0.0 0
M  V30 5 N -1.2841 3.7823 0.0 0
M  V30 6 N 1.109 2.8017 0.0 0
M  V30 7 N -3.3387 2.1947 0.0 0
M  V30 8 C -2.7783 3.5955 0.0 0
M  V30 9 C 1.6693 4.2026 0.0 0
M  V30 10 N -3.7006 4.7863 0.0 0
M  V30 11 C 3.1402 4.4127 0.0 0
M  V30 12 C 0.7471 5.3933 0.0 0
M  V30 13 C -5.1949 4.5995 0.0 0
M  V30 14 S 4.0391 3.2453 0.0 0
M  V30 15 C 3.7006 5.8136 0.0 0
M  V30 16 C 1.3074 6.7942 0.0 0
M  V30 17 C -5.7786 3.222 0.0 0
M  V30 18 C -6.1171 5.7902 0.0 0
M  V30 19 O 2.8484 2.3464 0.0 0
M  V30 20 O 5.2065 4.1675 0.0 0
M  V30 21 C 4.938 2.0779 0.0 0
M  V30 22 C 2.7783 7.0043 0.0 0
M  V30 23 O -4.8797 2.0546 0.0 0
M  V30 24 C -7.2728 3.0352 0.0 0
M  V30 25 C -7.6114 5.6034 0.0 0
M  V30 26 C 6.4089 2.288 0.0 0
M  V30 27 C 4.3543 0.7004 0.0 0
M  V30 28 C -5.4634 0.677 0.0 0
M  V30 29 C -8.1951 4.2259 0.0 0
M  V30 30 N -9.6893 4.0391 0.0 0
M  V30 31 C -10.6116 5.2299 0.0 0
M  V30 32 C -10.273 2.6616 0.0 0
M  V30 33 C -12.1058 5.0431 0.0 0
M  V30 34 C -11.7673 2.4748 0.0 0
M  V30 35 C -12.6895 3.6656 0.0 0
M  V30 36 N -14.1838 3.4788 0.0 0
M  V30 37 C -15.106 4.6695 0.0 0
M  V30 38 C -14.7675 2.1013 0.0 0
M  V30 39 C -16.6003 4.4827 0.0 0
M  V30 40 C -16.2618 1.9145 0.0 0
M  V30 41 N -17.184 3.1052 0.0 0
M  V30 42 C -18.6783 2.9184 0.0 0
M  V30 END ATOM
M  V30 BEGIN BOND
M  V30 1 1 1 2
M  V30 2 2 2 3
M  V30 3 1 2 4
M  V30 4 1 3 5
M  V30 5 1 3 6
M  V30 6 2 4 7
M  V30 7 2 5 8
M  V30 8 1 6 9
M  V30 9 1 8 10
M  V30 10 2 9 11
M  V30 11 1 9 12
M  V30 12 1 10 13
M  V30 13 1 11 14
M  V30 14 1 11 15
M  V30 15 2 12 16
M  V30 16 2 13 17
M  V30 17 1 13 18
M  V30 18 2 14 19
M  V30 19 2 14 20
M  V30 20 1 14 21
M  V30 21 2 15 22
M  V30 22 1 17 23
M  V30 23 1 17 24
M  V30 24 2 18 25
M  V30 25 1 21 26
M  V30 26 1 21 27
M  V30 27 1 23 28
M  V30 28 2 24 29
M  V30 29 1 29 30
M  V30 30 1 30 31
M  V30 31 1 30 32
M  V30 32 1 31 33
M  V30 33 1 32 34
M  V30 34 1 33 35
M  V30 35 1 35 36
M  V30 36 1 36 37
M  V30 37 1 36 38
M  V30 38 1 37 39
M  V30 39 1 38 40
M  V30 40 1 39 41
M  V30 41 1 41 42
M  V30 42 1 7 8
M  V30 43 1 16 22
M  V30 44 1 25 29
M  V30 45 1 34 35
M  V30 46 1 40 41
M  V30 END BOND
M  V30 END CTAB
M  END
>  <Compound ID>
67

>  <Name>
TAE684

>  <Uniprot>
O14874

>  <Target>
BCKDK

>  <Smiles>
COC1=CC(N2CCC(N3CCN(C)CC3)CC2)=CC=C1NC1=NC=C(Cl)C(NC2=CC=CC=C2S(=O)(=O)C(C)C)=N1

>  <Kd (nM)>


>  <Assay (Kd)>


>  <Ki (nM)>


>  <Assay (Ki)>


>  <IC50 (nM)>


>  <Assay (IC50)>


>  <EC50 (nM)>


>  <Assay (EC50)>


>  <Article DOI>
10.1016/j.cell.2020.10.038

>  <Molecular Weight>
614.216

>  <Exact Mass>
613.26018682

>  <XLogP3>
5.67

>  <Heavy Atom Count>
42

>  <Ring Count>
5

>  <Hydrogen Bond Acceptor Count>
10

>  <Hydrogen Bond Donor Count>
2

>  <Rotatable Bond Count>
9

>  <Topological Polar Surface Area>
102.93

>  <Molecular Formula>
C30H40ClN7O3S

>  <InChI>
InChI=1S/C30H40ClN7O3S/c1-21(2)42(39,40)28-8-6-5-7-26(28)33-29-24(31)20-32-30(35-29)34-25-10-9-23(19-27(25)41-4)37-13-11-22(12-14-37)38-17-15-36(3)16-18-38/h5-10,19-22H,11-18H2,1-4H3,(H2,32,33,34,35)

>  <InChI Key>
QQWUGDVOUVUTOY-UHFFFAOYSA-N

>  <BindingDB>
50242742

>  <PubChem>
16038120

>  <ChEMBL>
CHEMBL509032

$$$$
Compound 142
Actelion Java MolfileCreator 2.0

  0  0  0  0  0  0              0 V3000
M  V30 BEGIN CTAB
M  V30 COUNTS 42 46 0 0 0
M  V30 BEGIN ATOM
M  V30 1 Cl 0.0 0.0 0.0 0
M  V30 2 C -0.9222 1.1907 0.0 0
M  V30 3 C -0.3618 2.5916 0.0 0
M  V30 4 C -2.4165 1.0039 0.0 0
M  V30 5 N -1.2841 3.7823 0.0 0
M  V30 6 N 1.109 2.8017 0.0 0
M  V30 7 N -3.3387 2.1947 0.0 0
M  V30 8 C -2.7783 3.5955 0.0 0
M  V30 9 C 1.6693 4.2026 0.0 0
M  V30 10 N -3.7006 4.7863 0.0 0
M  V30 11 C 3.1402 4.4127 0.0 0
M  V30 12 C 0.7471 5.3933 0.0 0
M  V30 13 C -5.1949 4.5995 0.0 0
M  V30 14 S 4.0391 3.2453 0.0 0
M  V30 15 C 3.7006 5.8136 0.0 0
M  V30 16 C 1.3074 6.7942 0.0 0
M  V30 17 C -5.7786 3.222 0.0 0
M  V30 18 C -6.1171 5.7902 0.0 0
M  V30 19 O 2.8484 2.3464 0.0 0
M  V30 20 O 5.2065 4.1675 0.0 0
M  V30 21 C 4.938 2.0779 0.0 0
M  V30 22 C 2.7783 7.0043 0.0 0
M  V30 23 O -4.8797 2.0546 0.0 0
M  V30 24 C -7.2728 3.0352 0.0 0
M  V30 25 C -7.6114 5.6034 0.0 0
M  V30 26 C 6.4089 2.288 0.0 0
M  V30 27 C 4.3543 0.7004 0.0 0
M  V30 28 C -5.4634 0.677 0.0 0
M  V30 29 C -8.1951 4.2259 0.0 0
M  V30 30 N -9.6893 4.0391 0.0 0
M  V30 31 C -10.6116 5.2299 0.0 0
M  V30 32 C -10.273 2.6616 0.0 0
M  V30 33 C -12.1058 5.0431 0.0 0
M  V30 34 C -11.7673 2.4748 0.0 0
M  V30 35 C -12.6895 3.6656 0.0 0
M  V30 36 N -14.1838 3.4788 0.0 0
M  V30 37 C -15.106 4.6695 0.0 0
M  V30 38 C -14.7675 2.1013 0.0 0
M  V30 39 C -16.6003 4.4827 0.0 0
M  V30 40 C -16.2618 1.9145 0.0 0
M  V30 41 N -17.184 3.1052 0.0 0
M  V30 42 C -18.6783 2.9184 0.0 0
M  V30 END ATOM
M  V30 BEGIN BOND
M  V30 1 1 1 2
M  V30 2 2 2 3
M  V30 3 1 2 4
M  V30 4 1 3 5
M  V30 5 1 3 6
M  V30 6 2 4 7
M  V30 7 2 5 8
M  V30 8 1 6 9
M  V30 9 1 8 10
M  V30 10 2 9 11
M  V30 11 1 9 12
M  V30 12 1 10 13
M  V30 13 1 11 14
M  V30 14 1 11 15
M  V30 15 2 12 16
M  V30 16 2 13 17
M  V30 17 1 13 18
M  V30 18 2 14 19
M  V30 19 2 14 20
M  V30 20 1 14 21
M  V30 21 2 15 22
M  V30 22 1 17 23
M  V30 23 1 17 24
M  V30 24 2 18 25
M  V30 25 1 21 26
M  V30 26 1 21 27
M  V30 27 1 23 28
M  V30 28 2 24 29
M  V30 29 1 29 30
M  V30 30 1 30 31
M  V30 31 1 30 32
M  V30 32 1 31 33
M  V30 33 1 32 34
M  V30 34 1 33 35
M  V30 35 1 35 36
M  V30 36 1 36 37
M  V30 37 1 36 38
M  V30 38 1 37 39
M  V30 39 1 38 40
M  V30 40 1 39 41
M  V30 41 1 41 42
M  V30 42 1 7 8
M  V30 43 1 16 22
M  V30 44 1 25 29
M  V30 45 1 34 35
M  V30 46 1 40 41
M  V30 END BOND
M  V30 END CTAB
M  END
>  <Compound ID>
67

>  <Name>
TAE684

>  <Uniprot>
P51451

>  <Target>
BLK

>  <Smiles>
COC1=CC(N2CCC(N3CCN(C)CC3)CC2)=CC=C1NC1=NC=C(Cl)C(NC2=CC=CC=C2S(=O)(=O)C(C)C)=N1

>  <Kd (nM)>
130

>  <Assay (Kd)>
Kd was assessed by competition binding assays

>  <Ki (nM)>


>  <Assay (Ki)>


>  <IC50 (nM)>


>  <Assay (IC50)>


>  <EC50 (nM)>


>  <Assay (EC50)>


>  <Article DOI>
10.1038/nbt.1990

>  <Molecular Weight>
614.216

>  <Exact Mass>
613.26018682

>  <XLogP3>
5.67

>  <Heavy Atom Count>
42

>  <Ring Count>
5

>  <Hydrogen Bond Acceptor Count>
10

>  <Hydrogen Bond Donor Count>
2

>  <Rotatable Bond Count>
9

>  <Topological Polar Surface Area>
102.93

>  <Molecular Formula>
C30H40ClN7O3S

>  <InChI>
InChI=1S/C30H40ClN7O3S/c1-21(2)42(39,40)28-8-6-5-7-26(28)33-29-24(31)20-32-30(35-29)34-25-10-9-23(19-27(25)41-4)37-13-11-22(12-14-37)38-17-15-36(3)16-18-38/h5-10,19-22H,11-18H2,1-4H3,(H2,32,33,34,35)

>  <InChI Key>
QQWUGDVOUVUTOY-UHFFFAOYSA-N

>  <BindingDB>
50242742

>  <PubChem>
16038120

>  <ChEMBL>
CHEMBL509032

$$$$
Compound 143
Actelion Java MolfileCreator 2.0

  0  0  0  0  0  0              0 V3000
M  V30 BEGIN CTAB
M  V30 COUNTS 42 46 0 0 0
M  V30 BEGIN ATOM
M  V30 1 Cl 0.0 0.0 0.0 0
M  V30 2 C -0.9222 1.1907 0.0 0
M  V30 3 C -0.3618 2.5916 0.0 0
M  V30 4 C -2.4165 1.0039 0.0 0
M  V30 5 N -1.2841 3.7823 0.0 0
M  V30 6 N 1.109 2.8017 0.0 0
M  V30 7 N -3.3387 2.1947 0.0 0
M  V30 8 C -2.7783 3.5955 0.0 0
M  V30 9 C 1.6693 4.2026 0.0 0
M  V30 10 N -3.7006 4.7863 0.0 0
M  V30 11 C 3.1402 4.4127 0.0 0
M  V30 12 C 0.7471 5.3933 0.0 0
M  V30 13 C -5.1949 4.5995 0.0 0
M  V30 14 S 4.0391 3.2453 0.0 0
M  V30 15 C 3.7006 5.8136 0.0 0
M  V30 16 C 1.3074 6.7942 0.0 0
M  V30 17 C -5.7786 3.222 0.0 0
M  V30 18 C -6.1171 5.7902 0.0 0
M  V30 19 O 2.8484 2.3464 0.0 0
M  V30 20 O 5.2065 4.1675 0.0 0
M  V30 21 C 4.938 2.0779 0.0 0
M  V30 22 C 2.7783 7.0043 0.0 0
M  V30 23 O -4.8797 2.0546 0.0 0
M  V30 24 C -7.2728 3.0352 0.0 0
M  V30 25 C -7.6114 5.6034 0.0 0
M  V30 26 C 6.4089 2.288 0.0 0
M  V30 27 C 4.3543 0.7004 0.0 0
M  V30 28 C -5.4634 0.677 0.0 0
M  V30 29 C -8.1951 4.2259 0.0 0
M  V30 30 N -9.6893 4.0391 0.0 0
M  V30 31 C -10.6116 5.2299 0.0 0
M  V30 32 C -10.273 2.6616 0.0 0
M  V30 33 C -12.1058 5.0431 0.0 0
M  V30 34 C -11.7673 2.4748 0.0 0
M  V30 35 C -12.6895 3.6656 0.0 0
M  V30 36 N -14.1838 3.4788 0.0 0
M  V30 37 C -15.106 4.6695 0.0 0
M  V30 38 C -14.7675 2.1013 0.0 0
M  V30 39 C -16.6003 4.4827 0.0 0
M  V30 40 C -16.2618 1.9145 0.0 0
M  V30 41 N -17.184 3.1052 0.0 0
M  V30 42 C -18.6783 2.9184 0.0 0
M  V30 END ATOM
M  V30 BEGIN BOND
M  V30 1 1 1 2
M  V30 2 2 2 3
M  V30 3 1 2 4
M  V30 4 1 3 5
M  V30 5 1 3 6
M  V30 6 2 4 7
M  V30 7 2 5 8
M  V30 8 1 6 9
M  V30 9 1 8 10
M  V30 10 2 9 11
M  V30 11 1 9 12
M  V30 12 1 10 13
M  V30 13 1 11 14
M  V30 14 1 11 15
M  V30 15 2 12 16
M  V30 16 2 13 17
M  V30 17 1 13 18
M  V30 18 2 14 19
M  V30 19 2 14 20
M  V30 20 1 14 21
M  V30 21 2 15 22
M  V30 22 1 17 23
M  V30 23 1 17 24
M  V30 24 2 18 25
M  V30 25 1 21 26
M  V30 26 1 21 27
M  V30 27 1 23 28
M  V30 28 2 24 29
M  V30 29 1 29 30
M  V30 30 1 30 31
M  V30 31 1 30 32
M  V30 32 1 31 33
M  V30 33 1 32 34
M  V30 34 1 33 35
M  V30 35 1 35 36
M  V30 36 1 36 37
M  V30 37 1 36 38
M  V30 38 1 37 39
M  V30 39 1 38 40
M  V30 40 1 39 41
M  V30 41 1 41 42
M  V30 42 1 7 8
M  V30 43 1 16 22
M  V30 44 1 25 29
M  V30 45 1 34 35
M  V30 46 1 40 41
M  V30 END BOND
M  V30 END CTAB
M  END
>  <Compound ID>
67

>  <Name>
TAE684

>  <Uniprot>
Q9NSY1

>  <Target>
BMP2K

>  <Smiles>
COC1=CC(N2CCC(N3CCN(C)CC3)CC2)=CC=C1NC1=NC=C(Cl)C(NC2=CC=CC=C2S(=O)(=O)C(C)C)=N1

>  <Kd (nM)>
1900

>  <Assay (Kd)>
Kd was assessed by competition binding assays

>  <Ki (nM)>


>  <Assay (Ki)>


>  <IC50 (nM)>


>  <Assay (IC50)>


>  <EC50 (nM)>


>  <Assay (EC50)>


>  <Article DOI>
10.1038/nbt.1990

>  <Molecular Weight>
614.216

>  <Exact Mass>
613.26018682

>  <XLogP3>
5.67

>  <Heavy Atom Count>
42

>  <Ring Count>
5

>  <Hydrogen Bond Acceptor Count>
10

>  <Hydrogen Bond Donor Count>
2

>  <Rotatable Bond Count>
9

>  <Topological Polar Surface Area>
102.93

>  <Molecular Formula>
C30H40ClN7O3S

>  <InChI>
InChI=1S/C30H40ClN7O3S/c1-21(2)42(39,40)28-8-6-5-7-26(28)33-29-24(31)20-32-30(35-29)34-25-10-9-23(19-27(25)41-4)37-13-11-22(12-14-37)38-17-15-36(3)16-18-38/h5-10,19-22H,11-18H2,1-4H3,(H2,32,33,34,35)

>  <InChI Key>
QQWUGDVOUVUTOY-UHFFFAOYSA-N

>  <BindingDB>
50242742

>  <PubChem>
16038120

>  <ChEMBL>
CHEMBL509032

$$$$
Compound 144
Actelion Java MolfileCreator 2.0

  0  0  0  0  0  0              0 V3000
M  V30 BEGIN CTAB
M  V30 COUNTS 42 46 0 0 0
M  V30 BEGIN ATOM
M  V30 1 Cl 0.0 0.0 0.0 0
M  V30 2 C -0.9222 1.1907 0.0 0
M  V30 3 C -0.3618 2.5916 0.0 0
M  V30 4 C -2.4165 1.0039 0.0 0
M  V30 5 N -1.2841 3.7823 0.0 0
M  V30 6 N 1.109 2.8017 0.0 0
M  V30 7 N -3.3387 2.1947 0.0 0
M  V30 8 C -2.7783 3.5955 0.0 0
M  V30 9 C 1.6693 4.2026 0.0 0
M  V30 10 N -3.7006 4.7863 0.0 0
M  V30 11 C 3.1402 4.4127 0.0 0
M  V30 12 C 0.7471 5.3933 0.0 0
M  V30 13 C -5.1949 4.5995 0.0 0
M  V30 14 S 4.0391 3.2453 0.0 0
M  V30 15 C 3.7006 5.8136 0.0 0
M  V30 16 C 1.3074 6.7942 0.0 0
M  V30 17 C -5.7786 3.222 0.0 0
M  V30 18 C -6.1171 5.7902 0.0 0
M  V30 19 O 2.8484 2.3464 0.0 0
M  V30 20 O 5.2065 4.1675 0.0 0
M  V30 21 C 4.938 2.0779 0.0 0
M  V30 22 C 2.7783 7.0043 0.0 0
M  V30 23 O -4.8797 2.0546 0.0 0
M  V30 24 C -7.2728 3.0352 0.0 0
M  V30 25 C -7.6114 5.6034 0.0 0
M  V30 26 C 6.4089 2.288 0.0 0
M  V30 27 C 4.3543 0.7004 0.0 0
M  V30 28 C -5.4634 0.677 0.0 0
M  V30 29 C -8.1951 4.2259 0.0 0
M  V30 30 N -9.6893 4.0391 0.0 0
M  V30 31 C -10.6116 5.2299 0.0 0
M  V30 32 C -10.273 2.6616 0.0 0
M  V30 33 C -12.1058 5.0431 0.0 0
M  V30 34 C -11.7673 2.4748 0.0 0
M  V30 35 C -12.6895 3.6656 0.0 0
M  V30 36 N -14.1838 3.4788 0.0 0
M  V30 37 C -15.106 4.6695 0.0 0
M  V30 38 C -14.7675 2.1013 0.0 0
M  V30 39 C -16.6003 4.4827 0.0 0
M  V30 40 C -16.2618 1.9145 0.0 0
M  V30 41 N -17.184 3.1052 0.0 0
M  V30 42 C -18.6783 2.9184 0.0 0
M  V30 END ATOM
M  V30 BEGIN BOND
M  V30 1 1 1 2
M  V30 2 2 2 3
M  V30 3 1 2 4
M  V30 4 1 3 5
M  V30 5 1 3 6
M  V30 6 2 4 7
M  V30 7 2 5 8
M  V30 8 1 6 9
M  V30 9 1 8 10
M  V30 10 2 9 11
M  V30 11 1 9 12
M  V30 12 1 10 13
M  V30 13 1 11 14
M  V30 14 1 11 15
M  V30 15 2 12 16
M  V30 16 2 13 17
M  V30 17 1 13 18
M  V30 18 2 14 19
M  V30 19 2 14 20
M  V30 20 1 14 21
M  V30 21 2 15 22
M  V30 22 1 17 23
M  V30 23 1 17 24
M  V30 24 2 18 25
M  V30 25 1 21 26
M  V30 26 1 21 27
M  V30 27 1 23 28
M  V30 28 2 24 29
M  V30 29 1 29 30
M  V30 30 1 30 31
M  V30 31 1 30 32
M  V30 32 1 31 33
M  V30 33 1 32 34
M  V30 34 1 33 35
M  V30 35 1 35 36
M  V30 36 1 36 37
M  V30 37 1 36 38
M  V30 38 1 37 39
M  V30 39 1 38 40
M  V30 40 1 39 41
M  V30 41 1 41 42
M  V30 42 1 7 8
M  V30 43 1 16 22
M  V30 44 1 25 29
M  V30 45 1 34 35
M  V30 46 1 40 41
M  V30 END BOND
M  V30 END CTAB
M  END
>  <Compound ID>
67

>  <Name>
TAE684

>  <Uniprot>
P36894

>  <Target>
BMPR1A

>  <Smiles>
COC1=CC(N2CCC(N3CCN(C)CC3)CC2)=CC=C1NC1=NC=C(Cl)C(NC2=CC=CC=C2S(=O)(=O)C(C)C)=N1

>  <Kd (nM)>
170

>  <Assay (Kd)>
Kd was assessed by competition binding assays

>  <Ki (nM)>


>  <Assay (Ki)>


>  <IC50 (nM)>


>  <Assay (IC50)>


>  <EC50 (nM)>


>  <Assay (EC50)>


>  <Article DOI>
10.1038/nbt.1990

>  <Molecular Weight>
614.216

>  <Exact Mass>
613.26018682

>  <XLogP3>
5.67

>  <Heavy Atom Count>
42

>  <Ring Count>
5

>  <Hydrogen Bond Acceptor Count>
10

>  <Hydrogen Bond Donor Count>
2

>  <Rotatable Bond Count>
9

>  <Topological Polar Surface Area>
102.93

>  <Molecular Formula>
C30H40ClN7O3S

>  <InChI>
InChI=1S/C30H40ClN7O3S/c1-21(2)42(39,40)28-8-6-5-7-26(28)33-29-24(31)20-32-30(35-29)34-25-10-9-23(19-27(25)41-4)37-13-11-22(12-14-37)38-17-15-36(3)16-18-38/h5-10,19-22H,11-18H2,1-4H3,(H2,32,33,34,35)

>  <InChI Key>
QQWUGDVOUVUTOY-UHFFFAOYSA-N

>  <BindingDB>
50242742

>  <PubChem>
16038120

>  <ChEMBL>
CHEMBL509032

$$$$
Compound 145
Actelion Java MolfileCreator 2.0

  0  0  0  0  0  0              0 V3000
M  V30 BEGIN CTAB
M  V30 COUNTS 42 46 0 0 0
M  V30 BEGIN ATOM
M  V30 1 Cl 0.0 0.0 0.0 0
M  V30 2 C -0.9222 1.1907 0.0 0
M  V30 3 C -0.3618 2.5916 0.0 0
M  V30 4 C -2.4165 1.0039 0.0 0
M  V30 5 N -1.2841 3.7823 0.0 0
M  V30 6 N 1.109 2.8017 0.0 0
M  V30 7 N -3.3387 2.1947 0.0 0
M  V30 8 C -2.7783 3.5955 0.0 0
M  V30 9 C 1.6693 4.2026 0.0 0
M  V30 10 N -3.7006 4.7863 0.0 0
M  V30 11 C 3.1402 4.4127 0.0 0
M  V30 12 C 0.7471 5.3933 0.0 0
M  V30 13 C -5.1949 4.5995 0.0 0
M  V30 14 S 4.0391 3.2453 0.0 0
M  V30 15 C 3.7006 5.8136 0.0 0
M  V30 16 C 1.3074 6.7942 0.0 0
M  V30 17 C -5.7786 3.222 0.0 0
M  V30 18 C -6.1171 5.7902 0.0 0
M  V30 19 O 2.8484 2.3464 0.0 0
M  V30 20 O 5.2065 4.1675 0.0 0
M  V30 21 C 4.938 2.0779 0.0 0
M  V30 22 C 2.7783 7.0043 0.0 0
M  V30 23 O -4.8797 2.0546 0.0 0
M  V30 24 C -7.2728 3.0352 0.0 0
M  V30 25 C -7.6114 5.6034 0.0 0
M  V30 26 C 6.4089 2.288 0.0 0
M  V30 27 C 4.3543 0.7004 0.0 0
M  V30 28 C -5.4634 0.677 0.0 0
M  V30 29 C -8.1951 4.2259 0.0 0
M  V30 30 N -9.6893 4.0391 0.0 0
M  V30 31 C -10.6116 5.2299 0.0 0
M  V30 32 C -10.273 2.6616 0.0 0
M  V30 33 C -12.1058 5.0431 0.0 0
M  V30 34 C -11.7673 2.4748 0.0 0
M  V30 35 C -12.6895 3.6656 0.0 0
M  V30 36 N -14.1838 3.4788 0.0 0
M  V30 37 C -15.106 4.6695 0.0 0
M  V30 38 C -14.7675 2.1013 0.0 0
M  V30 39 C -16.6003 4.4827 0.0 0
M  V30 40 C -16.2618 1.9145 0.0 0
M  V30 41 N -17.184 3.1052 0.0 0
M  V30 42 C -18.6783 2.9184 0.0 0
M  V30 END ATOM
M  V30 BEGIN BOND
M  V30 1 1 1 2
M  V30 2 2 2 3
M  V30 3 1 2 4
M  V30 4 1 3 5
M  V30 5 1 3 6
M  V30 6 2 4 7
M  V30 7 2 5 8
M  V30 8 1 6 9
M  V30 9 1 8 10
M  V30 10 2 9 11
M  V30 11 1 9 12
M  V30 12 1 10 13
M  V30 13 1 11 14
M  V30 14 1 11 15
M  V30 15 2 12 16
M  V30 16 2 13 17
M  V30 17 1 13 18
M  V30 18 2 14 19
M  V30 19 2 14 20
M  V30 20 1 14 21
M  V30 21 2 15 22
M  V30 22 1 17 23
M  V30 23 1 17 24
M  V30 24 2 18 25
M  V30 25 1 21 26
M  V30 26 1 21 27
M  V30 27 1 23 28
M  V30 28 2 24 29
M  V30 29 1 29 30
M  V30 30 1 30 31
M  V30 31 1 30 32
M  V30 32 1 31 33
M  V30 33 1 32 34
M  V30 34 1 33 35
M  V30 35 1 35 36
M  V30 36 1 36 37
M  V30 37 1 36 38
M  V30 38 1 37 39
M  V30 39 1 38 40
M  V30 40 1 39 41
M  V30 41 1 41 42
M  V30 42 1 7 8
M  V30 43 1 16 22
M  V30 44 1 25 29
M  V30 45 1 34 35
M  V30 46 1 40 41
M  V30 END BOND
M  V30 END CTAB
M  END
>  <Compound ID>
67

>  <Name>
TAE684

>  <Uniprot>
O60566

>  <Target>
BUB1B

>  <Smiles>
COC1=CC(N2CCC(N3CCN(C)CC3)CC2)=CC=C1NC1=NC=C(Cl)C(NC2=CC=CC=C2S(=O)(=O)C(C)C)=N1

>  <Kd (nM)>


>  <Assay (Kd)>


>  <Ki (nM)>


>  <Assay (Ki)>


>  <IC50 (nM)>


>  <Assay (IC50)>


>  <EC50 (nM)>


>  <Assay (EC50)>


>  <Article DOI>
10.1016/j.cell.2020.10.038

>  <Molecular Weight>
614.216

>  <Exact Mass>
613.26018682

>  <XLogP3>
5.67

>  <Heavy Atom Count>
42

>  <Ring Count>
5

>  <Hydrogen Bond Acceptor Count>
10

>  <Hydrogen Bond Donor Count>
2

>  <Rotatable Bond Count>
9

>  <Topological Polar Surface Area>
102.93

>  <Molecular Formula>
C30H40ClN7O3S

>  <InChI>
InChI=1S/C30H40ClN7O3S/c1-21(2)42(39,40)28-8-6-5-7-26(28)33-29-24(31)20-32-30(35-29)34-25-10-9-23(19-27(25)41-4)37-13-11-22(12-14-37)38-17-15-36(3)16-18-38/h5-10,19-22H,11-18H2,1-4H3,(H2,32,33,34,35)

>  <InChI Key>
QQWUGDVOUVUTOY-UHFFFAOYSA-N

>  <BindingDB>
50242742

>  <PubChem>
16038120

>  <ChEMBL>
CHEMBL509032

$$$$
Compound 146
Actelion Java MolfileCreator 2.0

  0  0  0  0  0  0              0 V3000
M  V30 BEGIN CTAB
M  V30 COUNTS 42 46 0 0 0
M  V30 BEGIN ATOM
M  V30 1 Cl 0.0 0.0 0.0 0
M  V30 2 C -0.9222 1.1907 0.0 0
M  V30 3 C -0.3618 2.5916 0.0 0
M  V30 4 C -2.4165 1.0039 0.0 0
M  V30 5 N -1.2841 3.7823 0.0 0
M  V30 6 N 1.109 2.8017 0.0 0
M  V30 7 N -3.3387 2.1947 0.0 0
M  V30 8 C -2.7783 3.5955 0.0 0
M  V30 9 C 1.6693 4.2026 0.0 0
M  V30 10 N -3.7006 4.7863 0.0 0
M  V30 11 C 3.1402 4.4127 0.0 0
M  V30 12 C 0.7471 5.3933 0.0 0
M  V30 13 C -5.1949 4.5995 0.0 0
M  V30 14 S 4.0391 3.2453 0.0 0
M  V30 15 C 3.7006 5.8136 0.0 0
M  V30 16 C 1.3074 6.7942 0.0 0
M  V30 17 C -5.7786 3.222 0.0 0
M  V30 18 C -6.1171 5.7902 0.0 0
M  V30 19 O 2.8484 2.3464 0.0 0
M  V30 20 O 5.2065 4.1675 0.0 0
M  V30 21 C 4.938 2.0779 0.0 0
M  V30 22 C 2.7783 7.0043 0.0 0
M  V30 23 O -4.8797 2.0546 0.0 0
M  V30 24 C -7.2728 3.0352 0.0 0
M  V30 25 C -7.6114 5.6034 0.0 0
M  V30 26 C 6.4089 2.288 0.0 0
M  V30 27 C 4.3543 0.7004 0.0 0
M  V30 28 C -5.4634 0.677 0.0 0
M  V30 29 C -8.1951 4.2259 0.0 0
M  V30 30 N -9.6893 4.0391 0.0 0
M  V30 31 C -10.6116 5.2299 0.0 0
M  V30 32 C -10.273 2.6616 0.0 0
M  V30 33 C -12.1058 5.0431 0.0 0
M  V30 34 C -11.7673 2.4748 0.0 0
M  V30 35 C -12.6895 3.6656 0.0 0
M  V30 36 N -14.1838 3.4788 0.0 0
M  V30 37 C -15.106 4.6695 0.0 0
M  V30 38 C -14.7675 2.1013 0.0 0
M  V30 39 C -16.6003 4.4827 0.0 0
M  V30 40 C -16.2618 1.9145 0.0 0
M  V30 41 N -17.184 3.1052 0.0 0
M  V30 42 C -18.6783 2.9184 0.0 0
M  V30 END ATOM
M  V30 BEGIN BOND
M  V30 1 1 1 2
M  V30 2 2 2 3
M  V30 3 1 2 4
M  V30 4 1 3 5
M  V30 5 1 3 6
M  V30 6 2 4 7
M  V30 7 2 5 8
M  V30 8 1 6 9
M  V30 9 1 8 10
M  V30 10 2 9 11
M  V30 11 1 9 12
M  V30 12 1 10 13
M  V30 13 1 11 14
M  V30 14 1 11 15
M  V30 15 2 12 16
M  V30 16 2 13 17
M  V30 17 1 13 18
M  V30 18 2 14 19
M  V30 19 2 14 20
M  V30 20 1 14 21
M  V30 21 2 15 22
M  V30 22 1 17 23
M  V30 23 1 17 24
M  V30 24 2 18 25
M  V30 25 1 21 26
M  V30 26 1 21 27
M  V30 27 1 23 28
M  V30 28 2 24 29
M  V30 29 1 29 30
M  V30 30 1 30 31
M  V30 31 1 30 32
M  V30 32 1 31 33
M  V30 33 1 32 34
M  V30 34 1 33 35
M  V30 35 1 35 36
M  V30 36 1 36 37
M  V30 37 1 36 38
M  V30 38 1 37 39
M  V30 39 1 38 40
M  V30 40 1 39 41
M  V30 41 1 41 42
M  V30 42 1 7 8
M  V30 43 1 16 22
M  V30 44 1 25 29
M  V30 45 1 34 35
M  V30 46 1 40 41
M  V30 END BOND
M  V30 END CTAB
M  END
>  <Compound ID>
67

>  <Name>
TAE684

>  <Uniprot>
O43683

>  <Target>
BUB1

>  <Smiles>
COC1=CC(N2CCC(N3CCN(C)CC3)CC2)=CC=C1NC1=NC=C(Cl)C(NC2=CC=CC=C2S(=O)(=O)C(C)C)=N1

>  <Kd (nM)>


>  <Assay (Kd)>


>  <Ki (nM)>


>  <Assay (Ki)>


>  <IC50 (nM)>


>  <Assay (IC50)>


>  <EC50 (nM)>


>  <Assay (EC50)>


>  <Article DOI>
10.1016/j.cell.2020.10.038

>  <Molecular Weight>
614.216

>  <Exact Mass>
613.26018682

>  <XLogP3>
5.67

>  <Heavy Atom Count>
42

>  <Ring Count>
5

>  <Hydrogen Bond Acceptor Count>
10

>  <Hydrogen Bond Donor Count>
2

>  <Rotatable Bond Count>
9

>  <Topological Polar Surface Area>
102.93

>  <Molecular Formula>
C30H40ClN7O3S

>  <InChI>
InChI=1S/C30H40ClN7O3S/c1-21(2)42(39,40)28-8-6-5-7-26(28)33-29-24(31)20-32-30(35-29)34-25-10-9-23(19-27(25)41-4)37-13-11-22(12-14-37)38-17-15-36(3)16-18-38/h5-10,19-22H,11-18H2,1-4H3,(H2,32,33,34,35)

>  <InChI Key>
QQWUGDVOUVUTOY-UHFFFAOYSA-N

>  <BindingDB>
50242742

>  <PubChem>
16038120

>  <ChEMBL>
CHEMBL509032

$$$$
Compound 147
Actelion Java MolfileCreator 2.0

  0  0  0  0  0  0              0 V3000
M  V30 BEGIN CTAB
M  V30 COUNTS 42 46 0 0 0
M  V30 BEGIN ATOM
M  V30 1 Cl 0.0 0.0 0.0 0
M  V30 2 C -0.9222 1.1907 0.0 0
M  V30 3 C -0.3618 2.5916 0.0 0
M  V30 4 C -2.4165 1.0039 0.0 0
M  V30 5 N -1.2841 3.7823 0.0 0
M  V30 6 N 1.109 2.8017 0.0 0
M  V30 7 N -3.3387 2.1947 0.0 0
M  V30 8 C -2.7783 3.5955 0.0 0
M  V30 9 C 1.6693 4.2026 0.0 0
M  V30 10 N -3.7006 4.7863 0.0 0
M  V30 11 C 3.1402 4.4127 0.0 0
M  V30 12 C 0.7471 5.3933 0.0 0
M  V30 13 C -5.1949 4.5995 0.0 0
M  V30 14 S 4.0391 3.2453 0.0 0
M  V30 15 C 3.7006 5.8136 0.0 0
M  V30 16 C 1.3074 6.7942 0.0 0
M  V30 17 C -5.7786 3.222 0.0 0
M  V30 18 C -6.1171 5.7902 0.0 0
M  V30 19 O 2.8484 2.3464 0.0 0
M  V30 20 O 5.2065 4.1675 0.0 0
M  V30 21 C 4.938 2.0779 0.0 0
M  V30 22 C 2.7783 7.0043 0.0 0
M  V30 23 O -4.8797 2.0546 0.0 0
M  V30 24 C -7.2728 3.0352 0.0 0
M  V30 25 C -7.6114 5.6034 0.0 0
M  V30 26 C 6.4089 2.288 0.0 0
M  V30 27 C 4.3543 0.7004 0.0 0
M  V30 28 C -5.4634 0.677 0.0 0
M  V30 29 C -8.1951 4.2259 0.0 0
M  V30 30 N -9.6893 4.0391 0.0 0
M  V30 31 C -10.6116 5.2299 0.0 0
M  V30 32 C -10.273 2.6616 0.0 0
M  V30 33 C -12.1058 5.0431 0.0 0
M  V30 34 C -11.7673 2.4748 0.0 0
M  V30 35 C -12.6895 3.6656 0.0 0
M  V30 36 N -14.1838 3.4788 0.0 0
M  V30 37 C -15.106 4.6695 0.0 0
M  V30 38 C -14.7675 2.1013 0.0 0
M  V30 39 C -16.6003 4.4827 0.0 0
M  V30 40 C -16.2618 1.9145 0.0 0
M  V30 41 N -17.184 3.1052 0.0 0
M  V30 42 C -18.6783 2.9184 0.0 0
M  V30 END ATOM
M  V30 BEGIN BOND
M  V30 1 1 1 2
M  V30 2 2 2 3
M  V30 3 1 2 4
M  V30 4 1 3 5
M  V30 5 1 3 6
M  V30 6 2 4 7
M  V30 7 2 5 8
M  V30 8 1 6 9
M  V30 9 1 8 10
M  V30 10 2 9 11
M  V30 11 1 9 12
M  V30 12 1 10 13
M  V30 13 1 11 14
M  V30 14 1 11 15
M  V30 15 2 12 16
M  V30 16 2 13 17
M  V30 17 1 13 18
M  V30 18 2 14 19
M  V30 19 2 14 20
M  V30 20 1 14 21
M  V30 21 2 15 22
M  V30 22 1 17 23
M  V30 23 1 17 24
M  V30 24 2 18 25
M  V30 25 1 21 26
M  V30 26 1 21 27
M  V30 27 1 23 28
M  V30 28 2 24 29
M  V30 29 1 29 30
M  V30 30 1 30 31
M  V30 31 1 30 32
M  V30 32 1 31 33
M  V30 33 1 32 34
M  V30 34 1 33 35
M  V30 35 1 35 36
M  V30 36 1 36 37
M  V30 37 1 36 38
M  V30 38 1 37 39
M  V30 39 1 38 40
M  V30 40 1 39 41
M  V30 41 1 41 42
M  V30 42 1 7 8
M  V30 43 1 16 22
M  V30 44 1 25 29
M  V30 45 1 34 35
M  V30 46 1 40 41
M  V30 END BOND
M  V30 END CTAB
M  END
>  <Compound ID>
67

>  <Name>
TAE684

>  <Uniprot>
O00311

>  <Target>
CDC7

>  <Smiles>
COC1=CC(N2CCC(N3CCN(C)CC3)CC2)=CC=C1NC1=NC=C(Cl)C(NC2=CC=CC=C2S(=O)(=O)C(C)C)=N1

>  <Kd (nM)>


>  <Assay (Kd)>


>  <Ki (nM)>
>1000

>  <Assay (Ki)>
Ki of CDC7

>  <IC50 (nM)>


>  <Assay (IC50)>


>  <EC50 (nM)>


>  <Assay (EC50)>


>  <Article DOI>


>  <Molecular Weight>
614.216

>  <Exact Mass>
613.26018682

>  <XLogP3>
5.67

>  <Heavy Atom Count>
42

>  <Ring Count>
5

>  <Hydrogen Bond Acceptor Count>
10

>  <Hydrogen Bond Donor Count>
2

>  <Rotatable Bond Count>
9

>  <Topological Polar Surface Area>
102.93

>  <Molecular Formula>
C30H40ClN7O3S

>  <InChI>
InChI=1S/C30H40ClN7O3S/c1-21(2)42(39,40)28-8-6-5-7-26(28)33-29-24(31)20-32-30(35-29)34-25-10-9-23(19-27(25)41-4)37-13-11-22(12-14-37)38-17-15-36(3)16-18-38/h5-10,19-22H,11-18H2,1-4H3,(H2,32,33,34,35)

>  <InChI Key>
QQWUGDVOUVUTOY-UHFFFAOYSA-N

>  <BindingDB>
50242742

>  <PubChem>
16038120

>  <ChEMBL>
CHEMBL509032

$$$$
Compound 148
Actelion Java MolfileCreator 2.0

  0  0  0  0  0  0              0 V3000
M  V30 BEGIN CTAB
M  V30 COUNTS 42 46 0 0 0
M  V30 BEGIN ATOM
M  V30 1 Cl 0.0 0.0 0.0 0
M  V30 2 C -0.9222 1.1907 0.0 0
M  V30 3 C -0.3618 2.5916 0.0 0
M  V30 4 C -2.4165 1.0039 0.0 0
M  V30 5 N -1.2841 3.7823 0.0 0
M  V30 6 N 1.109 2.8017 0.0 0
M  V30 7 N -3.3387 2.1947 0.0 0
M  V30 8 C -2.7783 3.5955 0.0 0
M  V30 9 C 1.6693 4.2026 0.0 0
M  V30 10 N -3.7006 4.7863 0.0 0
M  V30 11 C 3.1402 4.4127 0.0 0
M  V30 12 C 0.7471 5.3933 0.0 0
M  V30 13 C -5.1949 4.5995 0.0 0
M  V30 14 S 4.0391 3.2453 0.0 0
M  V30 15 C 3.7006 5.8136 0.0 0
M  V30 16 C 1.3074 6.7942 0.0 0
M  V30 17 C -5.7786 3.222 0.0 0
M  V30 18 C -6.1171 5.7902 0.0 0
M  V30 19 O 2.8484 2.3464 0.0 0
M  V30 20 O 5.2065 4.1675 0.0 0
M  V30 21 C 4.938 2.0779 0.0 0
M  V30 22 C 2.7783 7.0043 0.0 0
M  V30 23 O -4.8797 2.0546 0.0 0
M  V30 24 C -7.2728 3.0352 0.0 0
M  V30 25 C -7.6114 5.6034 0.0 0
M  V30 26 C 6.4089 2.288 0.0 0
M  V30 27 C 4.3543 0.7004 0.0 0
M  V30 28 C -5.4634 0.677 0.0 0
M  V30 29 C -8.1951 4.2259 0.0 0
M  V30 30 N -9.6893 4.0391 0.0 0
M  V30 31 C -10.6116 5.2299 0.0 0
M  V30 32 C -10.273 2.6616 0.0 0
M  V30 33 C -12.1058 5.0431 0.0 0
M  V30 34 C -11.7673 2.4748 0.0 0
M  V30 35 C -12.6895 3.6656 0.0 0
M  V30 36 N -14.1838 3.4788 0.0 0
M  V30 37 C -15.106 4.6695 0.0 0
M  V30 38 C -14.7675 2.1013 0.0 0
M  V30 39 C -16.6003 4.4827 0.0 0
M  V30 40 C -16.2618 1.9145 0.0 0
M  V30 41 N -17.184 3.1052 0.0 0
M  V30 42 C -18.6783 2.9184 0.0 0
M  V30 END ATOM
M  V30 BEGIN BOND
M  V30 1 1 1 2
M  V30 2 2 2 3
M  V30 3 1 2 4
M  V30 4 1 3 5
M  V30 5 1 3 6
M  V30 6 2 4 7
M  V30 7 2 5 8
M  V30 8 1 6 9
M  V30 9 1 8 10
M  V30 10 2 9 11
M  V30 11 1 9 12
M  V30 12 1 10 13
M  V30 13 1 11 14
M  V30 14 1 11 15
M  V30 15 2 12 16
M  V30 16 2 13 17
M  V30 17 1 13 18
M  V30 18 2 14 19
M  V30 19 2 14 20
M  V30 20 1 14 21
M  V30 21 2 15 22
M  V30 22 1 17 23
M  V30 23 1 17 24
M  V30 24 2 18 25
M  V30 25 1 21 26
M  V30 26 1 21 27
M  V30 27 1 23 28
M  V30 28 2 24 29
M  V30 29 1 29 30
M  V30 30 1 30 31
M  V30 31 1 30 32
M  V30 32 1 31 33
M  V30 33 1 32 34
M  V30 34 1 33 35
M  V30 35 1 35 36
M  V30 36 1 36 37
M  V30 37 1 36 38
M  V30 38 1 37 39
M  V30 39 1 38 40
M  V30 40 1 39 41
M  V30 41 1 41 42
M  V30 42 1 7 8
M  V30 43 1 16 22
M  V30 44 1 25 29
M  V30 45 1 34 35
M  V30 46 1 40 41
M  V30 END BOND
M  V30 END CTAB
M  END
>  <Compound ID>
67

>  <Name>
TAE684

>  <Uniprot>
Q15131

>  <Target>
CDK10

>  <Smiles>
COC1=CC(N2CCC(N3CCN(C)CC3)CC2)=CC=C1NC1=NC=C(Cl)C(NC2=CC=CC=C2S(=O)(=O)C(C)C)=N1

>  <Kd (nM)>


>  <Assay (Kd)>


>  <Ki (nM)>


>  <Assay (Ki)>


>  <IC50 (nM)>


>  <Assay (IC50)>


>  <EC50 (nM)>


>  <Assay (EC50)>


>  <Article DOI>
10.1016/j.cell.2020.10.038

>  <Molecular Weight>
614.216

>  <Exact Mass>
613.26018682

>  <XLogP3>
5.67

>  <Heavy Atom Count>
42

>  <Ring Count>
5

>  <Hydrogen Bond Acceptor Count>
10

>  <Hydrogen Bond Donor Count>
2

>  <Rotatable Bond Count>
9

>  <Topological Polar Surface Area>
102.93

>  <Molecular Formula>
C30H40ClN7O3S

>  <InChI>
InChI=1S/C30H40ClN7O3S/c1-21(2)42(39,40)28-8-6-5-7-26(28)33-29-24(31)20-32-30(35-29)34-25-10-9-23(19-27(25)41-4)37-13-11-22(12-14-37)38-17-15-36(3)16-18-38/h5-10,19-22H,11-18H2,1-4H3,(H2,32,33,34,35)

>  <InChI Key>
QQWUGDVOUVUTOY-UHFFFAOYSA-N

>  <BindingDB>
50242742

>  <PubChem>
16038120

>  <ChEMBL>
CHEMBL509032

$$$$
Compound 149
Actelion Java MolfileCreator 2.0

  0  0  0  0  0  0              0 V3000
M  V30 BEGIN CTAB
M  V30 COUNTS 42 46 0 0 0
M  V30 BEGIN ATOM
M  V30 1 Cl 0.0 0.0 0.0 0
M  V30 2 C -0.9222 1.1907 0.0 0
M  V30 3 C -0.3618 2.5916 0.0 0
M  V30 4 C -2.4165 1.0039 0.0 0
M  V30 5 N -1.2841 3.7823 0.0 0
M  V30 6 N 1.109 2.8017 0.0 0
M  V30 7 N -3.3387 2.1947 0.0 0
M  V30 8 C -2.7783 3.5955 0.0 0
M  V30 9 C 1.6693 4.2026 0.0 0
M  V30 10 N -3.7006 4.7863 0.0 0
M  V30 11 C 3.1402 4.4127 0.0 0
M  V30 12 C 0.7471 5.3933 0.0 0
M  V30 13 C -5.1949 4.5995 0.0 0
M  V30 14 S 4.0391 3.2453 0.0 0
M  V30 15 C 3.7006 5.8136 0.0 0
M  V30 16 C 1.3074 6.7942 0.0 0
M  V30 17 C -5.7786 3.222 0.0 0
M  V30 18 C -6.1171 5.7902 0.0 0
M  V30 19 O 2.8484 2.3464 0.0 0
M  V30 20 O 5.2065 4.1675 0.0 0
M  V30 21 C 4.938 2.0779 0.0 0
M  V30 22 C 2.7783 7.0043 0.0 0
M  V30 23 O -4.8797 2.0546 0.0 0
M  V30 24 C -7.2728 3.0352 0.0 0
M  V30 25 C -7.6114 5.6034 0.0 0
M  V30 26 C 6.4089 2.288 0.0 0
M  V30 27 C 4.3543 0.7004 0.0 0
M  V30 28 C -5.4634 0.677 0.0 0
M  V30 29 C -8.1951 4.2259 0.0 0
M  V30 30 N -9.6893 4.0391 0.0 0
M  V30 31 C -10.6116 5.2299 0.0 0
M  V30 32 C -10.273 2.6616 0.0 0
M  V30 33 C -12.1058 5.0431 0.0 0
M  V30 34 C -11.7673 2.4748 0.0 0
M  V30 35 C -12.6895 3.6656 0.0 0
M  V30 36 N -14.1838 3.4788 0.0 0
M  V30 37 C -15.106 4.6695 0.0 0
M  V30 38 C -14.7675 2.1013 0.0 0
M  V30 39 C -16.6003 4.4827 0.0 0
M  V30 40 C -16.2618 1.9145 0.0 0
M  V30 41 N -17.184 3.1052 0.0 0
M  V30 42 C -18.6783 2.9184 0.0 0
M  V30 END ATOM
M  V30 BEGIN BOND
M  V30 1 1 1 2
M  V30 2 2 2 3
M  V30 3 1 2 4
M  V30 4 1 3 5
M  V30 5 1 3 6
M  V30 6 2 4 7
M  V30 7 2 5 8
M  V30 8 1 6 9
M  V30 9 1 8 10
M  V30 10 2 9 11
M  V30 11 1 9 12
M  V30 12 1 10 13
M  V30 13 1 11 14
M  V30 14 1 11 15
M  V30 15 2 12 16
M  V30 16 2 13 17
M  V30 17 1 13 18
M  V30 18 2 14 19
M  V30 19 2 14 20
M  V30 20 1 14 21
M  V30 21 2 15 22
M  V30 22 1 17 23
M  V30 23 1 17 24
M  V30 24 2 18 25
M  V30 25 1 21 26
M  V30 26 1 21 27
M  V30 27 1 23 28
M  V30 28 2 24 29
M  V30 29 1 29 30
M  V30 30 1 30 31
M  V30 31 1 30 32
M  V30 32 1 31 33
M  V30 33 1 32 34
M  V30 34 1 33 35
M  V30 35 1 35 36
M  V30 36 1 36 37
M  V30 37 1 36 38
M  V30 38 1 37 39
M  V30 39 1 38 40
M  V30 40 1 39 41
M  V30 41 1 41 42
M  V30 42 1 7 8
M  V30 43 1 16 22
M  V30 44 1 25 29
M  V30 45 1 34 35
M  V30 46 1 40 41
M  V30 END BOND
M  V30 END CTAB
M  END
>  <Compound ID>
67

>  <Name>
TAE684

>  <Uniprot>
Q9NYV4

>  <Target>
CDK12

>  <Smiles>
COC1=CC(N2CCC(N3CCN(C)CC3)CC2)=CC=C1NC1=NC=C(Cl)C(NC2=CC=CC=C2S(=O)(=O)C(C)C)=N1

>  <Kd (nM)>


>  <Assay (Kd)>


>  <Ki (nM)>


>  <Assay (Ki)>


>  <IC50 (nM)>


>  <Assay (IC50)>


>  <EC50 (nM)>


>  <Assay (EC50)>


>  <Article DOI>
10.1016/j.cell.2020.10.038

>  <Molecular Weight>
614.216

>  <Exact Mass>
613.26018682

>  <XLogP3>
5.67

>  <Heavy Atom Count>
42

>  <Ring Count>
5

>  <Hydrogen Bond Acceptor Count>
10

>  <Hydrogen Bond Donor Count>
2

>  <Rotatable Bond Count>
9

>  <Topological Polar Surface Area>
102.93

>  <Molecular Formula>
C30H40ClN7O3S

>  <InChI>
InChI=1S/C30H40ClN7O3S/c1-21(2)42(39,40)28-8-6-5-7-26(28)33-29-24(31)20-32-30(35-29)34-25-10-9-23(19-27(25)41-4)37-13-11-22(12-14-37)38-17-15-36(3)16-18-38/h5-10,19-22H,11-18H2,1-4H3,(H2,32,33,34,35)

>  <InChI Key>
QQWUGDVOUVUTOY-UHFFFAOYSA-N

>  <BindingDB>
50242742

>  <PubChem>
16038120

>  <ChEMBL>
CHEMBL509032

$$$$
Compound 150
Actelion Java MolfileCreator 2.0

  0  0  0  0  0  0              0 V3000
M  V30 BEGIN CTAB
M  V30 COUNTS 42 46 0 0 0
M  V30 BEGIN ATOM
M  V30 1 Cl 0.0 0.0 0.0 0
M  V30 2 C -0.9222 1.1907 0.0 0
M  V30 3 C -0.3618 2.5916 0.0 0
M  V30 4 C -2.4165 1.0039 0.0 0
M  V30 5 N -1.2841 3.7823 0.0 0
M  V30 6 N 1.109 2.8017 0.0 0
M  V30 7 N -3.3387 2.1947 0.0 0
M  V30 8 C -2.7783 3.5955 0.0 0
M  V30 9 C 1.6693 4.2026 0.0 0
M  V30 10 N -3.7006 4.7863 0.0 0
M  V30 11 C 3.1402 4.4127 0.0 0
M  V30 12 C 0.7471 5.3933 0.0 0
M  V30 13 C -5.1949 4.5995 0.0 0
M  V30 14 S 4.0391 3.2453 0.0 0
M  V30 15 C 3.7006 5.8136 0.0 0
M  V30 16 C 1.3074 6.7942 0.0 0
M  V30 17 C -5.7786 3.222 0.0 0
M  V30 18 C -6.1171 5.7902 0.0 0
M  V30 19 O 2.8484 2.3464 0.0 0
M  V30 20 O 5.2065 4.1675 0.0 0
M  V30 21 C 4.938 2.0779 0.0 0
M  V30 22 C 2.7783 7.0043 0.0 0
M  V30 23 O -4.8797 2.0546 0.0 0
M  V30 24 C -7.2728 3.0352 0.0 0
M  V30 25 C -7.6114 5.6034 0.0 0
M  V30 26 C 6.4089 2.288 0.0 0
M  V30 27 C 4.3543 0.7004 0.0 0
M  V30 28 C -5.4634 0.677 0.0 0
M  V30 29 C -8.1951 4.2259 0.0 0
M  V30 30 N -9.6893 4.0391 0.0 0
M  V30 31 C -10.6116 5.2299 0.0 0
M  V30 32 C -10.273 2.6616 0.0 0
M  V30 33 C -12.1058 5.0431 0.0 0
M  V30 34 C -11.7673 2.4748 0.0 0
M  V30 35 C -12.6895 3.6656 0.0 0
M  V30 36 N -14.1838 3.4788 0.0 0
M  V30 37 C -15.106 4.6695 0.0 0
M  V30 38 C -14.7675 2.1013 0.0 0
M  V30 39 C -16.6003 4.4827 0.0 0
M  V30 40 C -16.2618 1.9145 0.0 0
M  V30 41 N -17.184 3.1052 0.0 0
M  V30 42 C -18.6783 2.9184 0.0 0
M  V30 END ATOM
M  V30 BEGIN BOND
M  V30 1 1 1 2
M  V30 2 2 2 3
M  V30 3 1 2 4
M  V30 4 1 3 5
M  V30 5 1 3 6
M  V30 6 2 4 7
M  V30 7 2 5 8
M  V30 8 1 6 9
M  V30 9 1 8 10
M  V30 10 2 9 11
M  V30 11 1 9 12
M  V30 12 1 10 13
M  V30 13 1 11 14
M  V30 14 1 11 15
M  V30 15 2 12 16
M  V30 16 2 13 17
M  V30 17 1 13 18
M  V30 18 2 14 19
M  V30 19 2 14 20
M  V30 20 1 14 21
M  V30 21 2 15 22
M  V30 22 1 17 23
M  V30 23 1 17 24
M  V30 24 2 18 25
M  V30 25 1 21 26
M  V30 26 1 21 27
M  V30 27 1 23 28
M  V30 28 2 24 29
M  V30 29 1 29 30
M  V30 30 1 30 31
M  V30 31 1 30 32
M  V30 32 1 31 33
M  V30 33 1 32 34
M  V30 34 1 33 35
M  V30 35 1 35 36
M  V30 36 1 36 37
M  V30 37 1 36 38
M  V30 38 1 37 39
M  V30 39 1 38 40
M  V30 40 1 39 41
M  V30 41 1 41 42
M  V30 42 1 7 8
M  V30 43 1 16 22
M  V30 44 1 25 29
M  V30 45 1 34 35
M  V30 46 1 40 41
M  V30 END BOND
M  V30 END CTAB
M  END
>  <Compound ID>
67

>  <Name>
TAE684

>  <Uniprot>
Q14004

>  <Target>
CDK13

>  <Smiles>
COC1=CC(N2CCC(N3CCN(C)CC3)CC2)=CC=C1NC1=NC=C(Cl)C(NC2=CC=CC=C2S(=O)(=O)C(C)C)=N1

>  <Kd (nM)>
>10000

>  <Assay (Kd)>
Kd was assessed by competition binding assays

>  <Ki (nM)>


>  <Assay (Ki)>


>  <IC50 (nM)>


>  <Assay (IC50)>


>  <EC50 (nM)>


>  <Assay (EC50)>


>  <Article DOI>
10.1038/nbt.1990

>  <Molecular Weight>
614.216

>  <Exact Mass>
613.26018682

>  <XLogP3>
5.67

>  <Heavy Atom Count>
42

>  <Ring Count>
5

>  <Hydrogen Bond Acceptor Count>
10

>  <Hydrogen Bond Donor Count>
2

>  <Rotatable Bond Count>
9

>  <Topological Polar Surface Area>
102.93

>  <Molecular Formula>
C30H40ClN7O3S

>  <InChI>
InChI=1S/C30H40ClN7O3S/c1-21(2)42(39,40)28-8-6-5-7-26(28)33-29-24(31)20-32-30(35-29)34-25-10-9-23(19-27(25)41-4)37-13-11-22(12-14-37)38-17-15-36(3)16-18-38/h5-10,19-22H,11-18H2,1-4H3,(H2,32,33,34,35)

>  <InChI Key>
QQWUGDVOUVUTOY-UHFFFAOYSA-N

>  <BindingDB>
50242742

>  <PubChem>
16038120

>  <ChEMBL>
CHEMBL509032

$$$$
Compound 151
Actelion Java MolfileCreator 2.0

  0  0  0  0  0  0              0 V3000
M  V30 BEGIN CTAB
M  V30 COUNTS 42 46 0 0 0
M  V30 BEGIN ATOM
M  V30 1 Cl 0.0 0.0 0.0 0
M  V30 2 C -0.9222 1.1907 0.0 0
M  V30 3 C -0.3618 2.5916 0.0 0
M  V30 4 C -2.4165 1.0039 0.0 0
M  V30 5 N -1.2841 3.7823 0.0 0
M  V30 6 N 1.109 2.8017 0.0 0
M  V30 7 N -3.3387 2.1947 0.0 0
M  V30 8 C -2.7783 3.5955 0.0 0
M  V30 9 C 1.6693 4.2026 0.0 0
M  V30 10 N -3.7006 4.7863 0.0 0
M  V30 11 C 3.1402 4.4127 0.0 0
M  V30 12 C 0.7471 5.3933 0.0 0
M  V30 13 C -5.1949 4.5995 0.0 0
M  V30 14 S 4.0391 3.2453 0.0 0
M  V30 15 C 3.7006 5.8136 0.0 0
M  V30 16 C 1.3074 6.7942 0.0 0
M  V30 17 C -5.7786 3.222 0.0 0
M  V30 18 C -6.1171 5.7902 0.0 0
M  V30 19 O 2.8484 2.3464 0.0 0
M  V30 20 O 5.2065 4.1675 0.0 0
M  V30 21 C 4.938 2.0779 0.0 0
M  V30 22 C 2.7783 7.0043 0.0 0
M  V30 23 O -4.8797 2.0546 0.0 0
M  V30 24 C -7.2728 3.0352 0.0 0
M  V30 25 C -7.6114 5.6034 0.0 0
M  V30 26 C 6.4089 2.288 0.0 0
M  V30 27 C 4.3543 0.7004 0.0 0
M  V30 28 C -5.4634 0.677 0.0 0
M  V30 29 C -8.1951 4.2259 0.0 0
M  V30 30 N -9.6893 4.0391 0.0 0
M  V30 31 C -10.6116 5.2299 0.0 0
M  V30 32 C -10.273 2.6616 0.0 0
M  V30 33 C -12.1058 5.0431 0.0 0
M  V30 34 C -11.7673 2.4748 0.0 0
M  V30 35 C -12.6895 3.6656 0.0 0
M  V30 36 N -14.1838 3.4788 0.0 0
M  V30 37 C -15.106 4.6695 0.0 0
M  V30 38 C -14.7675 2.1013 0.0 0
M  V30 39 C -16.6003 4.4827 0.0 0
M  V30 40 C -16.2618 1.9145 0.0 0
M  V30 41 N -17.184 3.1052 0.0 0
M  V30 42 C -18.6783 2.9184 0.0 0
M  V30 END ATOM
M  V30 BEGIN BOND
M  V30 1 1 1 2
M  V30 2 2 2 3
M  V30 3 1 2 4
M  V30 4 1 3 5
M  V30 5 1 3 6
M  V30 6 2 4 7
M  V30 7 2 5 8
M  V30 8 1 6 9
M  V30 9 1 8 10
M  V30 10 2 9 11
M  V30 11 1 9 12
M  V30 12 1 10 13
M  V30 13 1 11 14
M  V30 14 1 11 15
M  V30 15 2 12 16
M  V30 16 2 13 17
M  V30 17 1 13 18
M  V30 18 2 14 19
M  V30 19 2 14 20
M  V30 20 1 14 21
M  V30 21 2 15 22
M  V30 22 1 17 23
M  V30 23 1 17 24
M  V30 24 2 18 25
M  V30 25 1 21 26
M  V30 26 1 21 27
M  V30 27 1 23 28
M  V30 28 2 24 29
M  V30 29 1 29 30
M  V30 30 1 30 31
M  V30 31 1 30 32
M  V30 32 1 31 33
M  V30 33 1 32 34
M  V30 34 1 33 35
M  V30 35 1 35 36
M  V30 36 1 36 37
M  V30 37 1 36 38
M  V30 38 1 37 39
M  V30 39 1 38 40
M  V30 40 1 39 41
M  V30 41 1 41 42
M  V30 42 1 7 8
M  V30 43 1 16 22
M  V30 44 1 25 29
M  V30 45 1 34 35
M  V30 46 1 40 41
M  V30 END BOND
M  V30 END CTAB
M  END
>  <Compound ID>
67

>  <Name>
TAE684

>  <Uniprot>
O94921

>  <Target>
CDK14

>  <Smiles>
COC1=CC(N2CCC(N3CCN(C)CC3)CC2)=CC=C1NC1=NC=C(Cl)C(NC2=CC=CC=C2S(=O)(=O)C(C)C)=N1

>  <Kd (nM)>
>10000

>  <Assay (Kd)>
Kd was assessed by competition binding assays

>  <Ki (nM)>


>  <Assay (Ki)>


>  <IC50 (nM)>


>  <Assay (IC50)>


>  <EC50 (nM)>


>  <Assay (EC50)>


>  <Article DOI>
10.1038/nbt.1990

>  <Molecular Weight>
614.216

>  <Exact Mass>
613.26018682

>  <XLogP3>
5.67

>  <Heavy Atom Count>
42

>  <Ring Count>
5

>  <Hydrogen Bond Acceptor Count>
10

>  <Hydrogen Bond Donor Count>
2

>  <Rotatable Bond Count>
9

>  <Topological Polar Surface Area>
102.93

>  <Molecular Formula>
C30H40ClN7O3S

>  <InChI>
InChI=1S/C30H40ClN7O3S/c1-21(2)42(39,40)28-8-6-5-7-26(28)33-29-24(31)20-32-30(35-29)34-25-10-9-23(19-27(25)41-4)37-13-11-22(12-14-37)38-17-15-36(3)16-18-38/h5-10,19-22H,11-18H2,1-4H3,(H2,32,33,34,35)

>  <InChI Key>
QQWUGDVOUVUTOY-UHFFFAOYSA-N

>  <BindingDB>
50242742

>  <PubChem>
16038120

>  <ChEMBL>
CHEMBL509032

$$$$
Compound 152
Actelion Java MolfileCreator 2.0

  0  0  0  0  0  0              0 V3000
M  V30 BEGIN CTAB
M  V30 COUNTS 42 46 0 0 0
M  V30 BEGIN ATOM
M  V30 1 Cl 0.0 0.0 0.0 0
M  V30 2 C -0.9222 1.1907 0.0 0
M  V30 3 C -0.3618 2.5916 0.0 0
M  V30 4 C -2.4165 1.0039 0.0 0
M  V30 5 N -1.2841 3.7823 0.0 0
M  V30 6 N 1.109 2.8017 0.0 0
M  V30 7 N -3.3387 2.1947 0.0 0
M  V30 8 C -2.7783 3.5955 0.0 0
M  V30 9 C 1.6693 4.2026 0.0 0
M  V30 10 N -3.7006 4.7863 0.0 0
M  V30 11 C 3.1402 4.4127 0.0 0
M  V30 12 C 0.7471 5.3933 0.0 0
M  V30 13 C -5.1949 4.5995 0.0 0
M  V30 14 S 4.0391 3.2453 0.0 0
M  V30 15 C 3.7006 5.8136 0.0 0
M  V30 16 C 1.3074 6.7942 0.0 0
M  V30 17 C -5.7786 3.222 0.0 0
M  V30 18 C -6.1171 5.7902 0.0 0
M  V30 19 O 2.8484 2.3464 0.0 0
M  V30 20 O 5.2065 4.1675 0.0 0
M  V30 21 C 4.938 2.0779 0.0 0
M  V30 22 C 2.7783 7.0043 0.0 0
M  V30 23 O -4.8797 2.0546 0.0 0
M  V30 24 C -7.2728 3.0352 0.0 0
M  V30 25 C -7.6114 5.6034 0.0 0
M  V30 26 C 6.4089 2.288 0.0 0
M  V30 27 C 4.3543 0.7004 0.0 0
M  V30 28 C -5.4634 0.677 0.0 0
M  V30 29 C -8.1951 4.2259 0.0 0
M  V30 30 N -9.6893 4.0391 0.0 0
M  V30 31 C -10.6116 5.2299 0.0 0
M  V30 32 C -10.273 2.6616 0.0 0
M  V30 33 C -12.1058 5.0431 0.0 0
M  V30 34 C -11.7673 2.4748 0.0 0
M  V30 35 C -12.6895 3.6656 0.0 0
M  V30 36 N -14.1838 3.4788 0.0 0
M  V30 37 C -15.106 4.6695 0.0 0
M  V30 38 C -14.7675 2.1013 0.0 0
M  V30 39 C -16.6003 4.4827 0.0 0
M  V30 40 C -16.2618 1.9145 0.0 0
M  V30 41 N -17.184 3.1052 0.0 0
M  V30 42 C -18.6783 2.9184 0.0 0
M  V30 END ATOM
M  V30 BEGIN BOND
M  V30 1 1 1 2
M  V30 2 2 2 3
M  V30 3 1 2 4
M  V30 4 1 3 5
M  V30 5 1 3 6
M  V30 6 2 4 7
M  V30 7 2 5 8
M  V30 8 1 6 9
M  V30 9 1 8 10
M  V30 10 2 9 11
M  V30 11 1 9 12
M  V30 12 1 10 13
M  V30 13 1 11 14
M  V30 14 1 11 15
M  V30 15 2 12 16
M  V30 16 2 13 17
M  V30 17 1 13 18
M  V30 18 2 14 19
M  V30 19 2 14 20
M  V30 20 1 14 21
M  V30 21 2 15 22
M  V30 22 1 17 23
M  V30 23 1 17 24
M  V30 24 2 18 25
M  V30 25 1 21 26
M  V30 26 1 21 27
M  V30 27 1 23 28
M  V30 28 2 24 29
M  V30 29 1 29 30
M  V30 30 1 30 31
M  V30 31 1 30 32
M  V30 32 1 31 33
M  V30 33 1 32 34
M  V30 34 1 33 35
M  V30 35 1 35 36
M  V30 36 1 36 37
M  V30 37 1 36 38
M  V30 38 1 37 39
M  V30 39 1 38 40
M  V30 40 1 39 41
M  V30 41 1 41 42
M  V30 42 1 7 8
M  V30 43 1 16 22
M  V30 44 1 25 29
M  V30 45 1 34 35
M  V30 46 1 40 41
M  V30 END BOND
M  V30 END CTAB
M  END
>  <Compound ID>
67

>  <Name>
TAE684

>  <Uniprot>
Q00536

>  <Target>
CDK16

>  <Smiles>
COC1=CC(N2CCC(N3CCN(C)CC3)CC2)=CC=C1NC1=NC=C(Cl)C(NC2=CC=CC=C2S(=O)(=O)C(C)C)=N1

>  <Kd (nM)>
560

>  <Assay (Kd)>
Kd was assessed by competition binding assays

>  <Ki (nM)>


>  <Assay (Ki)>


>  <IC50 (nM)>


>  <Assay (IC50)>


>  <EC50 (nM)>


>  <Assay (EC50)>


>  <Article DOI>
10.1038/nbt.1990

>  <Molecular Weight>
614.216

>  <Exact Mass>
613.26018682

>  <XLogP3>
5.67

>  <Heavy Atom Count>
42

>  <Ring Count>
5

>  <Hydrogen Bond Acceptor Count>
10

>  <Hydrogen Bond Donor Count>
2

>  <Rotatable Bond Count>
9

>  <Topological Polar Surface Area>
102.93

>  <Molecular Formula>
C30H40ClN7O3S

>  <InChI>
InChI=1S/C30H40ClN7O3S/c1-21(2)42(39,40)28-8-6-5-7-26(28)33-29-24(31)20-32-30(35-29)34-25-10-9-23(19-27(25)41-4)37-13-11-22(12-14-37)38-17-15-36(3)16-18-38/h5-10,19-22H,11-18H2,1-4H3,(H2,32,33,34,35)

>  <InChI Key>
QQWUGDVOUVUTOY-UHFFFAOYSA-N

>  <BindingDB>
50242742

>  <PubChem>
16038120

>  <ChEMBL>
CHEMBL509032

$$$$
Compound 153
Actelion Java MolfileCreator 2.0

  0  0  0  0  0  0              0 V3000
M  V30 BEGIN CTAB
M  V30 COUNTS 42 46 0 0 0
M  V30 BEGIN ATOM
M  V30 1 Cl 0.0 0.0 0.0 0
M  V30 2 C -0.9222 1.1907 0.0 0
M  V30 3 C -0.3618 2.5916 0.0 0
M  V30 4 C -2.4165 1.0039 0.0 0
M  V30 5 N -1.2841 3.7823 0.0 0
M  V30 6 N 1.109 2.8017 0.0 0
M  V30 7 N -3.3387 2.1947 0.0 0
M  V30 8 C -2.7783 3.5955 0.0 0
M  V30 9 C 1.6693 4.2026 0.0 0
M  V30 10 N -3.7006 4.7863 0.0 0
M  V30 11 C 3.1402 4.4127 0.0 0
M  V30 12 C 0.7471 5.3933 0.0 0
M  V30 13 C -5.1949 4.5995 0.0 0
M  V30 14 S 4.0391 3.2453 0.0 0
M  V30 15 C 3.7006 5.8136 0.0 0
M  V30 16 C 1.3074 6.7942 0.0 0
M  V30 17 C -5.7786 3.222 0.0 0
M  V30 18 C -6.1171 5.7902 0.0 0
M  V30 19 O 2.8484 2.3464 0.0 0
M  V30 20 O 5.2065 4.1675 0.0 0
M  V30 21 C 4.938 2.0779 0.0 0
M  V30 22 C 2.7783 7.0043 0.0 0
M  V30 23 O -4.8797 2.0546 0.0 0
M  V30 24 C -7.2728 3.0352 0.0 0
M  V30 25 C -7.6114 5.6034 0.0 0
M  V30 26 C 6.4089 2.288 0.0 0
M  V30 27 C 4.3543 0.7004 0.0 0
M  V30 28 C -5.4634 0.677 0.0 0
M  V30 29 C -8.1951 4.2259 0.0 0
M  V30 30 N -9.6893 4.0391 0.0 0
M  V30 31 C -10.6116 5.2299 0.0 0
M  V30 32 C -10.273 2.6616 0.0 0
M  V30 33 C -12.1058 5.0431 0.0 0
M  V30 34 C -11.7673 2.4748 0.0 0
M  V30 35 C -12.6895 3.6656 0.0 0
M  V30 36 N -14.1838 3.4788 0.0 0
M  V30 37 C -15.106 4.6695 0.0 0
M  V30 38 C -14.7675 2.1013 0.0 0
M  V30 39 C -16.6003 4.4827 0.0 0
M  V30 40 C -16.2618 1.9145 0.0 0
M  V30 41 N -17.184 3.1052 0.0 0
M  V30 42 C -18.6783 2.9184 0.0 0
M  V30 END ATOM
M  V30 BEGIN BOND
M  V30 1 1 1 2
M  V30 2 2 2 3
M  V30 3 1 2 4
M  V30 4 1 3 5
M  V30 5 1 3 6
M  V30 6 2 4 7
M  V30 7 2 5 8
M  V30 8 1 6 9
M  V30 9 1 8 10
M  V30 10 2 9 11
M  V30 11 1 9 12
M  V30 12 1 10 13
M  V30 13 1 11 14
M  V30 14 1 11 15
M  V30 15 2 12 16
M  V30 16 2 13 17
M  V30 17 1 13 18
M  V30 18 2 14 19
M  V30 19 2 14 20
M  V30 20 1 14 21
M  V30 21 2 15 22
M  V30 22 1 17 23
M  V30 23 1 17 24
M  V30 24 2 18 25
M  V30 25 1 21 26
M  V30 26 1 21 27
M  V30 27 1 23 28
M  V30 28 2 24 29
M  V30 29 1 29 30
M  V30 30 1 30 31
M  V30 31 1 30 32
M  V30 32 1 31 33
M  V30 33 1 32 34
M  V30 34 1 33 35
M  V30 35 1 35 36
M  V30 36 1 36 37
M  V30 37 1 36 38
M  V30 38 1 37 39
M  V30 39 1 38 40
M  V30 40 1 39 41
M  V30 41 1 41 42
M  V30 42 1 7 8
M  V30 43 1 16 22
M  V30 44 1 25 29
M  V30 45 1 34 35
M  V30 46 1 40 41
M  V30 END BOND
M  V30 END CTAB
M  END
>  <Compound ID>
67

>  <Name>
TAE684

>  <Uniprot>
Q00537

>  <Target>
CDK17

>  <Smiles>
COC1=CC(N2CCC(N3CCN(C)CC3)CC2)=CC=C1NC1=NC=C(Cl)C(NC2=CC=CC=C2S(=O)(=O)C(C)C)=N1

>  <Kd (nM)>
810

>  <Assay (Kd)>
Kd was assessed by competition binding assays

>  <Ki (nM)>


>  <Assay (Ki)>


>  <IC50 (nM)>


>  <Assay (IC50)>


>  <EC50 (nM)>


>  <Assay (EC50)>


>  <Article DOI>
10.1038/nbt.1990

>  <Molecular Weight>
614.216

>  <Exact Mass>
613.26018682

>  <XLogP3>
5.67

>  <Heavy Atom Count>
42

>  <Ring Count>
5

>  <Hydrogen Bond Acceptor Count>
10

>  <Hydrogen Bond Donor Count>
2

>  <Rotatable Bond Count>
9

>  <Topological Polar Surface Area>
102.93

>  <Molecular Formula>
C30H40ClN7O3S

>  <InChI>
InChI=1S/C30H40ClN7O3S/c1-21(2)42(39,40)28-8-6-5-7-26(28)33-29-24(31)20-32-30(35-29)34-25-10-9-23(19-27(25)41-4)37-13-11-22(12-14-37)38-17-15-36(3)16-18-38/h5-10,19-22H,11-18H2,1-4H3,(H2,32,33,34,35)

>  <InChI Key>
QQWUGDVOUVUTOY-UHFFFAOYSA-N

>  <BindingDB>
50242742

>  <PubChem>
16038120

>  <ChEMBL>
CHEMBL509032

$$$$
Compound 154
Actelion Java MolfileCreator 2.0

  0  0  0  0  0  0              0 V3000
M  V30 BEGIN CTAB
M  V30 COUNTS 42 46 0 0 0
M  V30 BEGIN ATOM
M  V30 1 Cl 0.0 0.0 0.0 0
M  V30 2 C -0.9222 1.1907 0.0 0
M  V30 3 C -0.3618 2.5916 0.0 0
M  V30 4 C -2.4165 1.0039 0.0 0
M  V30 5 N -1.2841 3.7823 0.0 0
M  V30 6 N 1.109 2.8017 0.0 0
M  V30 7 N -3.3387 2.1947 0.0 0
M  V30 8 C -2.7783 3.5955 0.0 0
M  V30 9 C 1.6693 4.2026 0.0 0
M  V30 10 N -3.7006 4.7863 0.0 0
M  V30 11 C 3.1402 4.4127 0.0 0
M  V30 12 C 0.7471 5.3933 0.0 0
M  V30 13 C -5.1949 4.5995 0.0 0
M  V30 14 S 4.0391 3.2453 0.0 0
M  V30 15 C 3.7006 5.8136 0.0 0
M  V30 16 C 1.3074 6.7942 0.0 0
M  V30 17 C -5.7786 3.222 0.0 0
M  V30 18 C -6.1171 5.7902 0.0 0
M  V30 19 O 2.8484 2.3464 0.0 0
M  V30 20 O 5.2065 4.1675 0.0 0
M  V30 21 C 4.938 2.0779 0.0 0
M  V30 22 C 2.7783 7.0043 0.0 0
M  V30 23 O -4.8797 2.0546 0.0 0
M  V30 24 C -7.2728 3.0352 0.0 0
M  V30 25 C -7.6114 5.6034 0.0 0
M  V30 26 C 6.4089 2.288 0.0 0
M  V30 27 C 4.3543 0.7004 0.0 0
M  V30 28 C -5.4634 0.677 0.0 0
M  V30 29 C -8.1951 4.2259 0.0 0
M  V30 30 N -9.6893 4.0391 0.0 0
M  V30 31 C -10.6116 5.2299 0.0 0
M  V30 32 C -10.273 2.6616 0.0 0
M  V30 33 C -12.1058 5.0431 0.0 0
M  V30 34 C -11.7673 2.4748 0.0 0
M  V30 35 C -12.6895 3.6656 0.0 0
M  V30 36 N -14.1838 3.4788 0.0 0
M  V30 37 C -15.106 4.6695 0.0 0
M  V30 38 C -14.7675 2.1013 0.0 0
M  V30 39 C -16.6003 4.4827 0.0 0
M  V30 40 C -16.2618 1.9145 0.0 0
M  V30 41 N -17.184 3.1052 0.0 0
M  V30 42 C -18.6783 2.9184 0.0 0
M  V30 END ATOM
M  V30 BEGIN BOND
M  V30 1 1 1 2
M  V30 2 2 2 3
M  V30 3 1 2 4
M  V30 4 1 3 5
M  V30 5 1 3 6
M  V30 6 2 4 7
M  V30 7 2 5 8
M  V30 8 1 6 9
M  V30 9 1 8 10
M  V30 10 2 9 11
M  V30 11 1 9 12
M  V30 12 1 10 13
M  V30 13 1 11 14
M  V30 14 1 11 15
M  V30 15 2 12 16
M  V30 16 2 13 17
M  V30 17 1 13 18
M  V30 18 2 14 19
M  V30 19 2 14 20
M  V30 20 1 14 21
M  V30 21 2 15 22
M  V30 22 1 17 23
M  V30 23 1 17 24
M  V30 24 2 18 25
M  V30 25 1 21 26
M  V30 26 1 21 27
M  V30 27 1 23 28
M  V30 28 2 24 29
M  V30 29 1 29 30
M  V30 30 1 30 31
M  V30 31 1 30 32
M  V30 32 1 31 33
M  V30 33 1 32 34
M  V30 34 1 33 35
M  V30 35 1 35 36
M  V30 36 1 36 37
M  V30 37 1 36 38
M  V30 38 1 37 39
M  V30 39 1 38 40
M  V30 40 1 39 41
M  V30 41 1 41 42
M  V30 42 1 7 8
M  V30 43 1 16 22
M  V30 44 1 25 29
M  V30 45 1 34 35
M  V30 46 1 40 41
M  V30 END BOND
M  V30 END CTAB
M  END
>  <Compound ID>
67

>  <Name>
TAE684

>  <Uniprot>
Q07002

>  <Target>
CDK18

>  <Smiles>
COC1=CC(N2CCC(N3CCN(C)CC3)CC2)=CC=C1NC1=NC=C(Cl)C(NC2=CC=CC=C2S(=O)(=O)C(C)C)=N1

>  <Kd (nM)>
>10000

>  <Assay (Kd)>
Kd was assessed by competition binding assays

>  <Ki (nM)>


>  <Assay (Ki)>


>  <IC50 (nM)>


>  <Assay (IC50)>


>  <EC50 (nM)>


>  <Assay (EC50)>


>  <Article DOI>
10.1038/nbt.1990

>  <Molecular Weight>
614.216

>  <Exact Mass>
613.26018682

>  <XLogP3>
5.67

>  <Heavy Atom Count>
42

>  <Ring Count>
5

>  <Hydrogen Bond Acceptor Count>
10

>  <Hydrogen Bond Donor Count>
2

>  <Rotatable Bond Count>
9

>  <Topological Polar Surface Area>
102.93

>  <Molecular Formula>
C30H40ClN7O3S

>  <InChI>
InChI=1S/C30H40ClN7O3S/c1-21(2)42(39,40)28-8-6-5-7-26(28)33-29-24(31)20-32-30(35-29)34-25-10-9-23(19-27(25)41-4)37-13-11-22(12-14-37)38-17-15-36(3)16-18-38/h5-10,19-22H,11-18H2,1-4H3,(H2,32,33,34,35)

>  <InChI Key>
QQWUGDVOUVUTOY-UHFFFAOYSA-N

>  <BindingDB>
50242742

>  <PubChem>
16038120

>  <ChEMBL>
CHEMBL509032

$$$$
Compound 155
Actelion Java MolfileCreator 2.0

  0  0  0  0  0  0              0 V3000
M  V30 BEGIN CTAB
M  V30 COUNTS 42 46 0 0 0
M  V30 BEGIN ATOM
M  V30 1 Cl 0.0 0.0 0.0 0
M  V30 2 C -0.9222 1.1907 0.0 0
M  V30 3 C -0.3618 2.5916 0.0 0
M  V30 4 C -2.4165 1.0039 0.0 0
M  V30 5 N -1.2841 3.7823 0.0 0
M  V30 6 N 1.109 2.8017 0.0 0
M  V30 7 N -3.3387 2.1947 0.0 0
M  V30 8 C -2.7783 3.5955 0.0 0
M  V30 9 C 1.6693 4.2026 0.0 0
M  V30 10 N -3.7006 4.7863 0.0 0
M  V30 11 C 3.1402 4.4127 0.0 0
M  V30 12 C 0.7471 5.3933 0.0 0
M  V30 13 C -5.1949 4.5995 0.0 0
M  V30 14 S 4.0391 3.2453 0.0 0
M  V30 15 C 3.7006 5.8136 0.0 0
M  V30 16 C 1.3074 6.7942 0.0 0
M  V30 17 C -5.7786 3.222 0.0 0
M  V30 18 C -6.1171 5.7902 0.0 0
M  V30 19 O 2.8484 2.3464 0.0 0
M  V30 20 O 5.2065 4.1675 0.0 0
M  V30 21 C 4.938 2.0779 0.0 0
M  V30 22 C 2.7783 7.0043 0.0 0
M  V30 23 O -4.8797 2.0546 0.0 0
M  V30 24 C -7.2728 3.0352 0.0 0
M  V30 25 C -7.6114 5.6034 0.0 0
M  V30 26 C 6.4089 2.288 0.0 0
M  V30 27 C 4.3543 0.7004 0.0 0
M  V30 28 C -5.4634 0.677 0.0 0
M  V30 29 C -8.1951 4.2259 0.0 0
M  V30 30 N -9.6893 4.0391 0.0 0
M  V30 31 C -10.6116 5.2299 0.0 0
M  V30 32 C -10.273 2.6616 0.0 0
M  V30 33 C -12.1058 5.0431 0.0 0
M  V30 34 C -11.7673 2.4748 0.0 0
M  V30 35 C -12.6895 3.6656 0.0 0
M  V30 36 N -14.1838 3.4788 0.0 0
M  V30 37 C -15.106 4.6695 0.0 0
M  V30 38 C -14.7675 2.1013 0.0 0
M  V30 39 C -16.6003 4.4827 0.0 0
M  V30 40 C -16.2618 1.9145 0.0 0
M  V30 41 N -17.184 3.1052 0.0 0
M  V30 42 C -18.6783 2.9184 0.0 0
M  V30 END ATOM
M  V30 BEGIN BOND
M  V30 1 1 1 2
M  V30 2 2 2 3
M  V30 3 1 2 4
M  V30 4 1 3 5
M  V30 5 1 3 6
M  V30 6 2 4 7
M  V30 7 2 5 8
M  V30 8 1 6 9
M  V30 9 1 8 10
M  V30 10 2 9 11
M  V30 11 1 9 12
M  V30 12 1 10 13
M  V30 13 1 11 14
M  V30 14 1 11 15
M  V30 15 2 12 16
M  V30 16 2 13 17
M  V30 17 1 13 18
M  V30 18 2 14 19
M  V30 19 2 14 20
M  V30 20 1 14 21
M  V30 21 2 15 22
M  V30 22 1 17 23
M  V30 23 1 17 24
M  V30 24 2 18 25
M  V30 25 1 21 26
M  V30 26 1 21 27
M  V30 27 1 23 28
M  V30 28 2 24 29
M  V30 29 1 29 30
M  V30 30 1 30 31
M  V30 31 1 30 32
M  V30 32 1 31 33
M  V30 33 1 32 34
M  V30 34 1 33 35
M  V30 35 1 35 36
M  V30 36 1 36 37
M  V30 37 1 36 38
M  V30 38 1 37 39
M  V30 39 1 38 40
M  V30 40 1 39 41
M  V30 41 1 41 42
M  V30 42 1 7 8
M  V30 43 1 16 22
M  V30 44 1 25 29
M  V30 45 1 34 35
M  V30 46 1 40 41
M  V30 END BOND
M  V30 END CTAB
M  END
>  <Compound ID>
67

>  <Name>
TAE684

>  <Uniprot>
P06493

>  <Target>
CDK1

>  <Smiles>
COC1=CC(N2CCC(N3CCN(C)CC3)CC2)=CC=C1NC1=NC=C(Cl)C(NC2=CC=CC=C2S(=O)(=O)C(C)C)=N1

>  <Kd (nM)>


>  <Assay (Kd)>


>  <Ki (nM)>
316.23

>  <Assay (Ki)>
Ki of CDK1

>  <IC50 (nM)>


>  <Assay (IC50)>


>  <EC50 (nM)>


>  <Assay (EC50)>


>  <Article DOI>


>  <Molecular Weight>
614.216

>  <Exact Mass>
613.26018682

>  <XLogP3>
5.67

>  <Heavy Atom Count>
42

>  <Ring Count>
5

>  <Hydrogen Bond Acceptor Count>
10

>  <Hydrogen Bond Donor Count>
2

>  <Rotatable Bond Count>
9

>  <Topological Polar Surface Area>
102.93

>  <Molecular Formula>
C30H40ClN7O3S

>  <InChI>
InChI=1S/C30H40ClN7O3S/c1-21(2)42(39,40)28-8-6-5-7-26(28)33-29-24(31)20-32-30(35-29)34-25-10-9-23(19-27(25)41-4)37-13-11-22(12-14-37)38-17-15-36(3)16-18-38/h5-10,19-22H,11-18H2,1-4H3,(H2,32,33,34,35)

>  <InChI Key>
QQWUGDVOUVUTOY-UHFFFAOYSA-N

>  <BindingDB>
50242742

>  <PubChem>
16038120

>  <ChEMBL>
CHEMBL509032

$$$$
Compound 156
Actelion Java MolfileCreator 2.0

  0  0  0  0  0  0              0 V3000
M  V30 BEGIN CTAB
M  V30 COUNTS 42 46 0 0 0
M  V30 BEGIN ATOM
M  V30 1 Cl 0.0 0.0 0.0 0
M  V30 2 C -0.9222 1.1907 0.0 0
M  V30 3 C -0.3618 2.5916 0.0 0
M  V30 4 C -2.4165 1.0039 0.0 0
M  V30 5 N -1.2841 3.7823 0.0 0
M  V30 6 N 1.109 2.8017 0.0 0
M  V30 7 N -3.3387 2.1947 0.0 0
M  V30 8 C -2.7783 3.5955 0.0 0
M  V30 9 C 1.6693 4.2026 0.0 0
M  V30 10 N -3.7006 4.7863 0.0 0
M  V30 11 C 3.1402 4.4127 0.0 0
M  V30 12 C 0.7471 5.3933 0.0 0
M  V30 13 C -5.1949 4.5995 0.0 0
M  V30 14 S 4.0391 3.2453 0.0 0
M  V30 15 C 3.7006 5.8136 0.0 0
M  V30 16 C 1.3074 6.7942 0.0 0
M  V30 17 C -5.7786 3.222 0.0 0
M  V30 18 C -6.1171 5.7902 0.0 0
M  V30 19 O 2.8484 2.3464 0.0 0
M  V30 20 O 5.2065 4.1675 0.0 0
M  V30 21 C 4.938 2.0779 0.0 0
M  V30 22 C 2.7783 7.0043 0.0 0
M  V30 23 O -4.8797 2.0546 0.0 0
M  V30 24 C -7.2728 3.0352 0.0 0
M  V30 25 C -7.6114 5.6034 0.0 0
M  V30 26 C 6.4089 2.288 0.0 0
M  V30 27 C 4.3543 0.7004 0.0 0
M  V30 28 C -5.4634 0.677 0.0 0
M  V30 29 C -8.1951 4.2259 0.0 0
M  V30 30 N -9.6893 4.0391 0.0 0
M  V30 31 C -10.6116 5.2299 0.0 0
M  V30 32 C -10.273 2.6616 0.0 0
M  V30 33 C -12.1058 5.0431 0.0 0
M  V30 34 C -11.7673 2.4748 0.0 0
M  V30 35 C -12.6895 3.6656 0.0 0
M  V30 36 N -14.1838 3.4788 0.0 0
M  V30 37 C -15.106 4.6695 0.0 0
M  V30 38 C -14.7675 2.1013 0.0 0
M  V30 39 C -16.6003 4.4827 0.0 0
M  V30 40 C -16.2618 1.9145 0.0 0
M  V30 41 N -17.184 3.1052 0.0 0
M  V30 42 C -18.6783 2.9184 0.0 0
M  V30 END ATOM
M  V30 BEGIN BOND
M  V30 1 1 1 2
M  V30 2 2 2 3
M  V30 3 1 2 4
M  V30 4 1 3 5
M  V30 5 1 3 6
M  V30 6 2 4 7
M  V30 7 2 5 8
M  V30 8 1 6 9
M  V30 9 1 8 10
M  V30 10 2 9 11
M  V30 11 1 9 12
M  V30 12 1 10 13
M  V30 13 1 11 14
M  V30 14 1 11 15
M  V30 15 2 12 16
M  V30 16 2 13 17
M  V30 17 1 13 18
M  V30 18 2 14 19
M  V30 19 2 14 20
M  V30 20 1 14 21
M  V30 21 2 15 22
M  V30 22 1 17 23
M  V30 23 1 17 24
M  V30 24 2 18 25
M  V30 25 1 21 26
M  V30 26 1 21 27
M  V30 27 1 23 28
M  V30 28 2 24 29
M  V30 29 1 29 30
M  V30 30 1 30 31
M  V30 31 1 30 32
M  V30 32 1 31 33
M  V30 33 1 32 34
M  V30 34 1 33 35
M  V30 35 1 35 36
M  V30 36 1 36 37
M  V30 37 1 36 38
M  V30 38 1 37 39
M  V30 39 1 38 40
M  V30 40 1 39 41
M  V30 41 1 41 42
M  V30 42 1 7 8
M  V30 43 1 16 22
M  V30 44 1 25 29
M  V30 45 1 34 35
M  V30 46 1 40 41
M  V30 END BOND
M  V30 END CTAB
M  END
>  <Compound ID>
67

>  <Name>
TAE684

>  <Uniprot>
P24941

>  <Target>
CDK2

>  <Smiles>
COC1=CC(N2CCC(N3CCN(C)CC3)CC2)=CC=C1NC1=NC=C(Cl)C(NC2=CC=CC=C2S(=O)(=O)C(C)C)=N1

>  <Kd (nM)>
5200

>  <Assay (Kd)>
Kd was assessed by competition binding assays

>  <Ki (nM)>


>  <Assay (Ki)>


>  <IC50 (nM)>


>  <Assay (IC50)>


>  <EC50 (nM)>


>  <Assay (EC50)>


>  <Article DOI>
10.1038/nbt.1990

>  <Molecular Weight>
614.216

>  <Exact Mass>
613.26018682

>  <XLogP3>
5.67

>  <Heavy Atom Count>
42

>  <Ring Count>
5

>  <Hydrogen Bond Acceptor Count>
10

>  <Hydrogen Bond Donor Count>
2

>  <Rotatable Bond Count>
9

>  <Topological Polar Surface Area>
102.93

>  <Molecular Formula>
C30H40ClN7O3S

>  <InChI>
InChI=1S/C30H40ClN7O3S/c1-21(2)42(39,40)28-8-6-5-7-26(28)33-29-24(31)20-32-30(35-29)34-25-10-9-23(19-27(25)41-4)37-13-11-22(12-14-37)38-17-15-36(3)16-18-38/h5-10,19-22H,11-18H2,1-4H3,(H2,32,33,34,35)

>  <InChI Key>
QQWUGDVOUVUTOY-UHFFFAOYSA-N

>  <BindingDB>
50242742

>  <PubChem>
16038120

>  <ChEMBL>
CHEMBL509032

$$$$
Compound 157
Actelion Java MolfileCreator 2.0

  0  0  0  0  0  0              0 V3000
M  V30 BEGIN CTAB
M  V30 COUNTS 42 46 0 0 0
M  V30 BEGIN ATOM
M  V30 1 Cl 0.0 0.0 0.0 0
M  V30 2 C -0.9222 1.1907 0.0 0
M  V30 3 C -0.3618 2.5916 0.0 0
M  V30 4 C -2.4165 1.0039 0.0 0
M  V30 5 N -1.2841 3.7823 0.0 0
M  V30 6 N 1.109 2.8017 0.0 0
M  V30 7 N -3.3387 2.1947 0.0 0
M  V30 8 C -2.7783 3.5955 0.0 0
M  V30 9 C 1.6693 4.2026 0.0 0
M  V30 10 N -3.7006 4.7863 0.0 0
M  V30 11 C 3.1402 4.4127 0.0 0
M  V30 12 C 0.7471 5.3933 0.0 0
M  V30 13 C -5.1949 4.5995 0.0 0
M  V30 14 S 4.0391 3.2453 0.0 0
M  V30 15 C 3.7006 5.8136 0.0 0
M  V30 16 C 1.3074 6.7942 0.0 0
M  V30 17 C -5.7786 3.222 0.0 0
M  V30 18 C -6.1171 5.7902 0.0 0
M  V30 19 O 2.8484 2.3464 0.0 0
M  V30 20 O 5.2065 4.1675 0.0 0
M  V30 21 C 4.938 2.0779 0.0 0
M  V30 22 C 2.7783 7.0043 0.0 0
M  V30 23 O -4.8797 2.0546 0.0 0
M  V30 24 C -7.2728 3.0352 0.0 0
M  V30 25 C -7.6114 5.6034 0.0 0
M  V30 26 C 6.4089 2.288 0.0 0
M  V30 27 C 4.3543 0.7004 0.0 0
M  V30 28 C -5.4634 0.677 0.0 0
M  V30 29 C -8.1951 4.2259 0.0 0
M  V30 30 N -9.6893 4.0391 0.0 0
M  V30 31 C -10.6116 5.2299 0.0 0
M  V30 32 C -10.273 2.6616 0.0 0
M  V30 33 C -12.1058 5.0431 0.0 0
M  V30 34 C -11.7673 2.4748 0.0 0
M  V30 35 C -12.6895 3.6656 0.0 0
M  V30 36 N -14.1838 3.4788 0.0 0
M  V30 37 C -15.106 4.6695 0.0 0
M  V30 38 C -14.7675 2.1013 0.0 0
M  V30 39 C -16.6003 4.4827 0.0 0
M  V30 40 C -16.2618 1.9145 0.0 0
M  V30 41 N -17.184 3.1052 0.0 0
M  V30 42 C -18.6783 2.9184 0.0 0
M  V30 END ATOM
M  V30 BEGIN BOND
M  V30 1 1 1 2
M  V30 2 2 2 3
M  V30 3 1 2 4
M  V30 4 1 3 5
M  V30 5 1 3 6
M  V30 6 2 4 7
M  V30 7 2 5 8
M  V30 8 1 6 9
M  V30 9 1 8 10
M  V30 10 2 9 11
M  V30 11 1 9 12
M  V30 12 1 10 13
M  V30 13 1 11 14
M  V30 14 1 11 15
M  V30 15 2 12 16
M  V30 16 2 13 17
M  V30 17 1 13 18
M  V30 18 2 14 19
M  V30 19 2 14 20
M  V30 20 1 14 21
M  V30 21 2 15 22
M  V30 22 1 17 23
M  V30 23 1 17 24
M  V30 24 2 18 25
M  V30 25 1 21 26
M  V30 26 1 21 27
M  V30 27 1 23 28
M  V30 28 2 24 29
M  V30 29 1 29 30
M  V30 30 1 30 31
M  V30 31 1 30 32
M  V30 32 1 31 33
M  V30 33 1 32 34
M  V30 34 1 33 35
M  V30 35 1 35 36
M  V30 36 1 36 37
M  V30 37 1 36 38
M  V30 38 1 37 39
M  V30 39 1 38 40
M  V30 40 1 39 41
M  V30 41 1 41 42
M  V30 42 1 7 8
M  V30 43 1 16 22
M  V30 44 1 25 29
M  V30 45 1 34 35
M  V30 46 1 40 41
M  V30 END BOND
M  V30 END CTAB
M  END
>  <Compound ID>
67

>  <Name>
TAE684

>  <Uniprot>
P11802

>  <Target>
CDK4

>  <Smiles>
COC1=CC(N2CCC(N3CCN(C)CC3)CC2)=CC=C1NC1=NC=C(Cl)C(NC2=CC=CC=C2S(=O)(=O)C(C)C)=N1

>  <Kd (nM)>
1400/400

>  <Assay (Kd)>
Kd of CDK4-cyclinD1/3 was assessed by competition binding assays

>  <Ki (nM)>


>  <Assay (Ki)>


>  <IC50 (nM)>


>  <Assay (IC50)>


>  <EC50 (nM)>


>  <Assay (EC50)>


>  <Article DOI>
10.1038/nbt.1990

>  <Molecular Weight>
614.216

>  <Exact Mass>
613.26018682

>  <XLogP3>
5.67

>  <Heavy Atom Count>
42

>  <Ring Count>
5

>  <Hydrogen Bond Acceptor Count>
10

>  <Hydrogen Bond Donor Count>
2

>  <Rotatable Bond Count>
9

>  <Topological Polar Surface Area>
102.93

>  <Molecular Formula>
C30H40ClN7O3S

>  <InChI>
InChI=1S/C30H40ClN7O3S/c1-21(2)42(39,40)28-8-6-5-7-26(28)33-29-24(31)20-32-30(35-29)34-25-10-9-23(19-27(25)41-4)37-13-11-22(12-14-37)38-17-15-36(3)16-18-38/h5-10,19-22H,11-18H2,1-4H3,(H2,32,33,34,35)

>  <InChI Key>
QQWUGDVOUVUTOY-UHFFFAOYSA-N

>  <BindingDB>
50242742

>  <PubChem>
16038120

>  <ChEMBL>
CHEMBL509032

$$$$
Compound 158
Actelion Java MolfileCreator 2.0

  0  0  0  0  0  0              0 V3000
M  V30 BEGIN CTAB
M  V30 COUNTS 42 46 0 0 0
M  V30 BEGIN ATOM
M  V30 1 Cl 0.0 0.0 0.0 0
M  V30 2 C -0.9222 1.1907 0.0 0
M  V30 3 C -0.3618 2.5916 0.0 0
M  V30 4 C -2.4165 1.0039 0.0 0
M  V30 5 N -1.2841 3.7823 0.0 0
M  V30 6 N 1.109 2.8017 0.0 0
M  V30 7 N -3.3387 2.1947 0.0 0
M  V30 8 C -2.7783 3.5955 0.0 0
M  V30 9 C 1.6693 4.2026 0.0 0
M  V30 10 N -3.7006 4.7863 0.0 0
M  V30 11 C 3.1402 4.4127 0.0 0
M  V30 12 C 0.7471 5.3933 0.0 0
M  V30 13 C -5.1949 4.5995 0.0 0
M  V30 14 S 4.0391 3.2453 0.0 0
M  V30 15 C 3.7006 5.8136 0.0 0
M  V30 16 C 1.3074 6.7942 0.0 0
M  V30 17 C -5.7786 3.222 0.0 0
M  V30 18 C -6.1171 5.7902 0.0 0
M  V30 19 O 2.8484 2.3464 0.0 0
M  V30 20 O 5.2065 4.1675 0.0 0
M  V30 21 C 4.938 2.0779 0.0 0
M  V30 22 C 2.7783 7.0043 0.0 0
M  V30 23 O -4.8797 2.0546 0.0 0
M  V30 24 C -7.2728 3.0352 0.0 0
M  V30 25 C -7.6114 5.6034 0.0 0
M  V30 26 C 6.4089 2.288 0.0 0
M  V30 27 C 4.3543 0.7004 0.0 0
M  V30 28 C -5.4634 0.677 0.0 0
M  V30 29 C -8.1951 4.2259 0.0 0
M  V30 30 N -9.6893 4.0391 0.0 0
M  V30 31 C -10.6116 5.2299 0.0 0
M  V30 32 C -10.273 2.6616 0.0 0
M  V30 33 C -12.1058 5.0431 0.0 0
M  V30 34 C -11.7673 2.4748 0.0 0
M  V30 35 C -12.6895 3.6656 0.0 0
M  V30 36 N -14.1838 3.4788 0.0 0
M  V30 37 C -15.106 4.6695 0.0 0
M  V30 38 C -14.7675 2.1013 0.0 0
M  V30 39 C -16.6003 4.4827 0.0 0
M  V30 40 C -16.2618 1.9145 0.0 0
M  V30 41 N -17.184 3.1052 0.0 0
M  V30 42 C -18.6783 2.9184 0.0 0
M  V30 END ATOM
M  V30 BEGIN BOND
M  V30 1 1 1 2
M  V30 2 2 2 3
M  V30 3 1 2 4
M  V30 4 1 3 5
M  V30 5 1 3 6
M  V30 6 2 4 7
M  V30 7 2 5 8
M  V30 8 1 6 9
M  V30 9 1 8 10
M  V30 10 2 9 11
M  V30 11 1 9 12
M  V30 12 1 10 13
M  V30 13 1 11 14
M  V30 14 1 11 15
M  V30 15 2 12 16
M  V30 16 2 13 17
M  V30 17 1 13 18
M  V30 18 2 14 19
M  V30 19 2 14 20
M  V30 20 1 14 21
M  V30 21 2 15 22
M  V30 22 1 17 23
M  V30 23 1 17 24
M  V30 24 2 18 25
M  V30 25 1 21 26
M  V30 26 1 21 27
M  V30 27 1 23 28
M  V30 28 2 24 29
M  V30 29 1 29 30
M  V30 30 1 30 31
M  V30 31 1 30 32
M  V30 32 1 31 33
M  V30 33 1 32 34
M  V30 34 1 33 35
M  V30 35 1 35 36
M  V30 36 1 36 37
M  V30 37 1 36 38
M  V30 38 1 37 39
M  V30 39 1 38 40
M  V30 40 1 39 41
M  V30 41 1 41 42
M  V30 42 1 7 8
M  V30 43 1 16 22
M  V30 44 1 25 29
M  V30 45 1 34 35
M  V30 46 1 40 41
M  V30 END BOND
M  V30 END CTAB
M  END
>  <Compound ID>
67

>  <Name>
TAE684

>  <Uniprot>
Q00535

>  <Target>
CDK5

>  <Smiles>
COC1=CC(N2CCC(N3CCN(C)CC3)CC2)=CC=C1NC1=NC=C(Cl)C(NC2=CC=CC=C2S(=O)(=O)C(C)C)=N1

>  <Kd (nM)>
1600

>  <Assay (Kd)>
Kd was assessed by competition binding assays

>  <Ki (nM)>


>  <Assay (Ki)>


>  <IC50 (nM)>


>  <Assay (IC50)>


>  <EC50 (nM)>


>  <Assay (EC50)>


>  <Article DOI>
10.1038/nbt.1990

>  <Molecular Weight>
614.216

>  <Exact Mass>
613.26018682

>  <XLogP3>
5.67

>  <Heavy Atom Count>
42

>  <Ring Count>
5

>  <Hydrogen Bond Acceptor Count>
10

>  <Hydrogen Bond Donor Count>
2

>  <Rotatable Bond Count>
9

>  <Topological Polar Surface Area>
102.93

>  <Molecular Formula>
C30H40ClN7O3S

>  <InChI>
InChI=1S/C30H40ClN7O3S/c1-21(2)42(39,40)28-8-6-5-7-26(28)33-29-24(31)20-32-30(35-29)34-25-10-9-23(19-27(25)41-4)37-13-11-22(12-14-37)38-17-15-36(3)16-18-38/h5-10,19-22H,11-18H2,1-4H3,(H2,32,33,34,35)

>  <InChI Key>
QQWUGDVOUVUTOY-UHFFFAOYSA-N

>  <BindingDB>
50242742

>  <PubChem>
16038120

>  <ChEMBL>
CHEMBL509032

$$$$
Compound 159
Actelion Java MolfileCreator 2.0

  0  0  0  0  0  0              0 V3000
M  V30 BEGIN CTAB
M  V30 COUNTS 42 46 0 0 0
M  V30 BEGIN ATOM
M  V30 1 Cl 0.0 0.0 0.0 0
M  V30 2 C -0.9222 1.1907 0.0 0
M  V30 3 C -0.3618 2.5916 0.0 0
M  V30 4 C -2.4165 1.0039 0.0 0
M  V30 5 N -1.2841 3.7823 0.0 0
M  V30 6 N 1.109 2.8017 0.0 0
M  V30 7 N -3.3387 2.1947 0.0 0
M  V30 8 C -2.7783 3.5955 0.0 0
M  V30 9 C 1.6693 4.2026 0.0 0
M  V30 10 N -3.7006 4.7863 0.0 0
M  V30 11 C 3.1402 4.4127 0.0 0
M  V30 12 C 0.7471 5.3933 0.0 0
M  V30 13 C -5.1949 4.5995 0.0 0
M  V30 14 S 4.0391 3.2453 0.0 0
M  V30 15 C 3.7006 5.8136 0.0 0
M  V30 16 C 1.3074 6.7942 0.0 0
M  V30 17 C -5.7786 3.222 0.0 0
M  V30 18 C -6.1171 5.7902 0.0 0
M  V30 19 O 2.8484 2.3464 0.0 0
M  V30 20 O 5.2065 4.1675 0.0 0
M  V30 21 C 4.938 2.0779 0.0 0
M  V30 22 C 2.7783 7.0043 0.0 0
M  V30 23 O -4.8797 2.0546 0.0 0
M  V30 24 C -7.2728 3.0352 0.0 0
M  V30 25 C -7.6114 5.6034 0.0 0
M  V30 26 C 6.4089 2.288 0.0 0
M  V30 27 C 4.3543 0.7004 0.0 0
M  V30 28 C -5.4634 0.677 0.0 0
M  V30 29 C -8.1951 4.2259 0.0 0
M  V30 30 N -9.6893 4.0391 0.0 0
M  V30 31 C -10.6116 5.2299 0.0 0
M  V30 32 C -10.273 2.6616 0.0 0
M  V30 33 C -12.1058 5.0431 0.0 0
M  V30 34 C -11.7673 2.4748 0.0 0
M  V30 35 C -12.6895 3.6656 0.0 0
M  V30 36 N -14.1838 3.4788 0.0 0
M  V30 37 C -15.106 4.6695 0.0 0
M  V30 38 C -14.7675 2.1013 0.0 0
M  V30 39 C -16.6003 4.4827 0.0 0
M  V30 40 C -16.2618 1.9145 0.0 0
M  V30 41 N -17.184 3.1052 0.0 0
M  V30 42 C -18.6783 2.9184 0.0 0
M  V30 END ATOM
M  V30 BEGIN BOND
M  V30 1 1 1 2
M  V30 2 2 2 3
M  V30 3 1 2 4
M  V30 4 1 3 5
M  V30 5 1 3 6
M  V30 6 2 4 7
M  V30 7 2 5 8
M  V30 8 1 6 9
M  V30 9 1 8 10
M  V30 10 2 9 11
M  V30 11 1 9 12
M  V30 12 1 10 13
M  V30 13 1 11 14
M  V30 14 1 11 15
M  V30 15 2 12 16
M  V30 16 2 13 17
M  V30 17 1 13 18
M  V30 18 2 14 19
M  V30 19 2 14 20
M  V30 20 1 14 21
M  V30 21 2 15 22
M  V30 22 1 17 23
M  V30 23 1 17 24
M  V30 24 2 18 25
M  V30 25 1 21 26
M  V30 26 1 21 27
M  V30 27 1 23 28
M  V30 28 2 24 29
M  V30 29 1 29 30
M  V30 30 1 30 31
M  V30 31 1 30 32
M  V30 32 1 31 33
M  V30 33 1 32 34
M  V30 34 1 33 35
M  V30 35 1 35 36
M  V30 36 1 36 37
M  V30 37 1 36 38
M  V30 38 1 37 39
M  V30 39 1 38 40
M  V30 40 1 39 41
M  V30 41 1 41 42
M  V30 42 1 7 8
M  V30 43 1 16 22
M  V30 44 1 25 29
M  V30 45 1 34 35
M  V30 46 1 40 41
M  V30 END BOND
M  V30 END CTAB
M  END
>  <Compound ID>
67

>  <Name>
TAE684

>  <Uniprot>
Q00534

>  <Target>
CDK6

>  <Smiles>
COC1=CC(N2CCC(N3CCN(C)CC3)CC2)=CC=C1NC1=NC=C(Cl)C(NC2=CC=CC=C2S(=O)(=O)C(C)C)=N1

>  <Kd (nM)>


>  <Assay (Kd)>


>  <Ki (nM)>


>  <Assay (Ki)>


>  <IC50 (nM)>


>  <Assay (IC50)>


>  <EC50 (nM)>


>  <Assay (EC50)>


>  <Article DOI>
10.1016/j.cell.2020.10.038

>  <Molecular Weight>
614.216

>  <Exact Mass>
613.26018682

>  <XLogP3>
5.67

>  <Heavy Atom Count>
42

>  <Ring Count>
5

>  <Hydrogen Bond Acceptor Count>
10

>  <Hydrogen Bond Donor Count>
2

>  <Rotatable Bond Count>
9

>  <Topological Polar Surface Area>
102.93

>  <Molecular Formula>
C30H40ClN7O3S

>  <InChI>
InChI=1S/C30H40ClN7O3S/c1-21(2)42(39,40)28-8-6-5-7-26(28)33-29-24(31)20-32-30(35-29)34-25-10-9-23(19-27(25)41-4)37-13-11-22(12-14-37)38-17-15-36(3)16-18-38/h5-10,19-22H,11-18H2,1-4H3,(H2,32,33,34,35)

>  <InChI Key>
QQWUGDVOUVUTOY-UHFFFAOYSA-N

>  <BindingDB>
50242742

>  <PubChem>
16038120

>  <ChEMBL>
CHEMBL509032

$$$$
Compound 160
Actelion Java MolfileCreator 2.0

  0  0  0  0  0  0              0 V3000
M  V30 BEGIN CTAB
M  V30 COUNTS 42 46 0 0 0
M  V30 BEGIN ATOM
M  V30 1 Cl 0.0 0.0 0.0 0
M  V30 2 C -0.9222 1.1907 0.0 0
M  V30 3 C -0.3618 2.5916 0.0 0
M  V30 4 C -2.4165 1.0039 0.0 0
M  V30 5 N -1.2841 3.7823 0.0 0
M  V30 6 N 1.109 2.8017 0.0 0
M  V30 7 N -3.3387 2.1947 0.0 0
M  V30 8 C -2.7783 3.5955 0.0 0
M  V30 9 C 1.6693 4.2026 0.0 0
M  V30 10 N -3.7006 4.7863 0.0 0
M  V30 11 C 3.1402 4.4127 0.0 0
M  V30 12 C 0.7471 5.3933 0.0 0
M  V30 13 C -5.1949 4.5995 0.0 0
M  V30 14 S 4.0391 3.2453 0.0 0
M  V30 15 C 3.7006 5.8136 0.0 0
M  V30 16 C 1.3074 6.7942 0.0 0
M  V30 17 C -5.7786 3.222 0.0 0
M  V30 18 C -6.1171 5.7902 0.0 0
M  V30 19 O 2.8484 2.3464 0.0 0
M  V30 20 O 5.2065 4.1675 0.0 0
M  V30 21 C 4.938 2.0779 0.0 0
M  V30 22 C 2.7783 7.0043 0.0 0
M  V30 23 O -4.8797 2.0546 0.0 0
M  V30 24 C -7.2728 3.0352 0.0 0
M  V30 25 C -7.6114 5.6034 0.0 0
M  V30 26 C 6.4089 2.288 0.0 0
M  V30 27 C 4.3543 0.7004 0.0 0
M  V30 28 C -5.4634 0.677 0.0 0
M  V30 29 C -8.1951 4.2259 0.0 0
M  V30 30 N -9.6893 4.0391 0.0 0
M  V30 31 C -10.6116 5.2299 0.0 0
M  V30 32 C -10.273 2.6616 0.0 0
M  V30 33 C -12.1058 5.0431 0.0 0
M  V30 34 C -11.7673 2.4748 0.0 0
M  V30 35 C -12.6895 3.6656 0.0 0
M  V30 36 N -14.1838 3.4788 0.0 0
M  V30 37 C -15.106 4.6695 0.0 0
M  V30 38 C -14.7675 2.1013 0.0 0
M  V30 39 C -16.6003 4.4827 0.0 0
M  V30 40 C -16.2618 1.9145 0.0 0
M  V30 41 N -17.184 3.1052 0.0 0
M  V30 42 C -18.6783 2.9184 0.0 0
M  V30 END ATOM
M  V30 BEGIN BOND
M  V30 1 1 1 2
M  V30 2 2 2 3
M  V30 3 1 2 4
M  V30 4 1 3 5
M  V30 5 1 3 6
M  V30 6 2 4 7
M  V30 7 2 5 8
M  V30 8 1 6 9
M  V30 9 1 8 10
M  V30 10 2 9 11
M  V30 11 1 9 12
M  V30 12 1 10 13
M  V30 13 1 11 14
M  V30 14 1 11 15
M  V30 15 2 12 16
M  V30 16 2 13 17
M  V30 17 1 13 18
M  V30 18 2 14 19
M  V30 19 2 14 20
M  V30 20 1 14 21
M  V30 21 2 15 22
M  V30 22 1 17 23
M  V30 23 1 17 24
M  V30 24 2 18 25
M  V30 25 1 21 26
M  V30 26 1 21 27
M  V30 27 1 23 28
M  V30 28 2 24 29
M  V30 29 1 29 30
M  V30 30 1 30 31
M  V30 31 1 30 32
M  V30 32 1 31 33
M  V30 33 1 32 34
M  V30 34 1 33 35
M  V30 35 1 35 36
M  V30 36 1 36 37
M  V30 37 1 36 38
M  V30 38 1 37 39
M  V30 39 1 38 40
M  V30 40 1 39 41
M  V30 41 1 41 42
M  V30 42 1 7 8
M  V30 43 1 16 22
M  V30 44 1 25 29
M  V30 45 1 34 35
M  V30 46 1 40 41
M  V30 END BOND
M  V30 END CTAB
M  END
>  <Compound ID>
67

>  <Name>
TAE684

>  <Uniprot>
P50613

>  <Target>
CDK7

>  <Smiles>
COC1=CC(N2CCC(N3CCN(C)CC3)CC2)=CC=C1NC1=NC=C(Cl)C(NC2=CC=CC=C2S(=O)(=O)C(C)C)=N1

>  <Kd (nM)>
190

>  <Assay (Kd)>
Kd was assessed by competition binding assays

>  <Ki (nM)>


>  <Assay (Ki)>


>  <IC50 (nM)>


>  <Assay (IC50)>


>  <EC50 (nM)>


>  <Assay (EC50)>


>  <Article DOI>
10.1038/nbt.1990

>  <Molecular Weight>
614.216

>  <Exact Mass>
613.26018682

>  <XLogP3>
5.67

>  <Heavy Atom Count>
42

>  <Ring Count>
5

>  <Hydrogen Bond Acceptor Count>
10

>  <Hydrogen Bond Donor Count>
2

>  <Rotatable Bond Count>
9

>  <Topological Polar Surface Area>
102.93

>  <Molecular Formula>
C30H40ClN7O3S

>  <InChI>
InChI=1S/C30H40ClN7O3S/c1-21(2)42(39,40)28-8-6-5-7-26(28)33-29-24(31)20-32-30(35-29)34-25-10-9-23(19-27(25)41-4)37-13-11-22(12-14-37)38-17-15-36(3)16-18-38/h5-10,19-22H,11-18H2,1-4H3,(H2,32,33,34,35)

>  <InChI Key>
QQWUGDVOUVUTOY-UHFFFAOYSA-N

>  <BindingDB>
50242742

>  <PubChem>
16038120

>  <ChEMBL>
CHEMBL509032

$$$$
Compound 161
Actelion Java MolfileCreator 2.0

  0  0  0  0  0  0              0 V3000
M  V30 BEGIN CTAB
M  V30 COUNTS 42 46 0 0 0
M  V30 BEGIN ATOM
M  V30 1 Cl 0.0 0.0 0.0 0
M  V30 2 C -0.9222 1.1907 0.0 0
M  V30 3 C -0.3618 2.5916 0.0 0
M  V30 4 C -2.4165 1.0039 0.0 0
M  V30 5 N -1.2841 3.7823 0.0 0
M  V30 6 N 1.109 2.8017 0.0 0
M  V30 7 N -3.3387 2.1947 0.0 0
M  V30 8 C -2.7783 3.5955 0.0 0
M  V30 9 C 1.6693 4.2026 0.0 0
M  V30 10 N -3.7006 4.7863 0.0 0
M  V30 11 C 3.1402 4.4127 0.0 0
M  V30 12 C 0.7471 5.3933 0.0 0
M  V30 13 C -5.1949 4.5995 0.0 0
M  V30 14 S 4.0391 3.2453 0.0 0
M  V30 15 C 3.7006 5.8136 0.0 0
M  V30 16 C 1.3074 6.7942 0.0 0
M  V30 17 C -5.7786 3.222 0.0 0
M  V30 18 C -6.1171 5.7902 0.0 0
M  V30 19 O 2.8484 2.3464 0.0 0
M  V30 20 O 5.2065 4.1675 0.0 0
M  V30 21 C 4.938 2.0779 0.0 0
M  V30 22 C 2.7783 7.0043 0.0 0
M  V30 23 O -4.8797 2.0546 0.0 0
M  V30 24 C -7.2728 3.0352 0.0 0
M  V30 25 C -7.6114 5.6034 0.0 0
M  V30 26 C 6.4089 2.288 0.0 0
M  V30 27 C 4.3543 0.7004 0.0 0
M  V30 28 C -5.4634 0.677 0.0 0
M  V30 29 C -8.1951 4.2259 0.0 0
M  V30 30 N -9.6893 4.0391 0.0 0
M  V30 31 C -10.6116 5.2299 0.0 0
M  V30 32 C -10.273 2.6616 0.0 0
M  V30 33 C -12.1058 5.0431 0.0 0
M  V30 34 C -11.7673 2.4748 0.0 0
M  V30 35 C -12.6895 3.6656 0.0 0
M  V30 36 N -14.1838 3.4788 0.0 0
M  V30 37 C -15.106 4.6695 0.0 0
M  V30 38 C -14.7675 2.1013 0.0 0
M  V30 39 C -16.6003 4.4827 0.0 0
M  V30 40 C -16.2618 1.9145 0.0 0
M  V30 41 N -17.184 3.1052 0.0 0
M  V30 42 C -18.6783 2.9184 0.0 0
M  V30 END ATOM
M  V30 BEGIN BOND
M  V30 1 1 1 2
M  V30 2 2 2 3
M  V30 3 1 2 4
M  V30 4 1 3 5
M  V30 5 1 3 6
M  V30 6 2 4 7
M  V30 7 2 5 8
M  V30 8 1 6 9
M  V30 9 1 8 10
M  V30 10 2 9 11
M  V30 11 1 9 12
M  V30 12 1 10 13
M  V30 13 1 11 14
M  V30 14 1 11 15
M  V30 15 2 12 16
M  V30 16 2 13 17
M  V30 17 1 13 18
M  V30 18 2 14 19
M  V30 19 2 14 20
M  V30 20 1 14 21
M  V30 21 2 15 22
M  V30 22 1 17 23
M  V30 23 1 17 24
M  V30 24 2 18 25
M  V30 25 1 21 26
M  V30 26 1 21 27
M  V30 27 1 23 28
M  V30 28 2 24 29
M  V30 29 1 29 30
M  V30 30 1 30 31
M  V30 31 1 30 32
M  V30 32 1 31 33
M  V30 33 1 32 34
M  V30 34 1 33 35
M  V30 35 1 35 36
M  V30 36 1 36 37
M  V30 37 1 36 38
M  V30 38 1 37 39
M  V30 39 1 38 40
M  V30 40 1 39 41
M  V30 41 1 41 42
M  V30 42 1 7 8
M  V30 43 1 16 22
M  V30 44 1 25 29
M  V30 45 1 34 35
M  V30 46 1 40 41
M  V30 END BOND
M  V30 END CTAB
M  END
>  <Compound ID>
67

>  <Name>
TAE684

>  <Uniprot>
P50750

>  <Target>
CDK9

>  <Smiles>
COC1=CC(N2CCC(N3CCN(C)CC3)CC2)=CC=C1NC1=NC=C(Cl)C(NC2=CC=CC=C2S(=O)(=O)C(C)C)=N1

>  <Kd (nM)>
>10000

>  <Assay (Kd)>
Kd was assessed by competition binding assays

>  <Ki (nM)>


>  <Assay (Ki)>


>  <IC50 (nM)>


>  <Assay (IC50)>


>  <EC50 (nM)>


>  <Assay (EC50)>


>  <Article DOI>
10.1038/nbt.1990

>  <Molecular Weight>
614.216

>  <Exact Mass>
613.26018682

>  <XLogP3>
5.67

>  <Heavy Atom Count>
42

>  <Ring Count>
5

>  <Hydrogen Bond Acceptor Count>
10

>  <Hydrogen Bond Donor Count>
2

>  <Rotatable Bond Count>
9

>  <Topological Polar Surface Area>
102.93

>  <Molecular Formula>
C30H40ClN7O3S

>  <InChI>
InChI=1S/C30H40ClN7O3S/c1-21(2)42(39,40)28-8-6-5-7-26(28)33-29-24(31)20-32-30(35-29)34-25-10-9-23(19-27(25)41-4)37-13-11-22(12-14-37)38-17-15-36(3)16-18-38/h5-10,19-22H,11-18H2,1-4H3,(H2,32,33,34,35)

>  <InChI Key>
QQWUGDVOUVUTOY-UHFFFAOYSA-N

>  <BindingDB>
50242742

>  <PubChem>
16038120

>  <ChEMBL>
CHEMBL509032

$$$$
Compound 162
Actelion Java MolfileCreator 2.0

  0  0  0  0  0  0              0 V3000
M  V30 BEGIN CTAB
M  V30 COUNTS 42 46 0 0 0
M  V30 BEGIN ATOM
M  V30 1 Cl 0.0 0.0 0.0 0
M  V30 2 C -0.9222 1.1907 0.0 0
M  V30 3 C -0.3618 2.5916 0.0 0
M  V30 4 C -2.4165 1.0039 0.0 0
M  V30 5 N -1.2841 3.7823 0.0 0
M  V30 6 N 1.109 2.8017 0.0 0
M  V30 7 N -3.3387 2.1947 0.0 0
M  V30 8 C -2.7783 3.5955 0.0 0
M  V30 9 C 1.6693 4.2026 0.0 0
M  V30 10 N -3.7006 4.7863 0.0 0
M  V30 11 C 3.1402 4.4127 0.0 0
M  V30 12 C 0.7471 5.3933 0.0 0
M  V30 13 C -5.1949 4.5995 0.0 0
M  V30 14 S 4.0391 3.2453 0.0 0
M  V30 15 C 3.7006 5.8136 0.0 0
M  V30 16 C 1.3074 6.7942 0.0 0
M  V30 17 C -5.7786 3.222 0.0 0
M  V30 18 C -6.1171 5.7902 0.0 0
M  V30 19 O 2.8484 2.3464 0.0 0
M  V30 20 O 5.2065 4.1675 0.0 0
M  V30 21 C 4.938 2.0779 0.0 0
M  V30 22 C 2.7783 7.0043 0.0 0
M  V30 23 O -4.8797 2.0546 0.0 0
M  V30 24 C -7.2728 3.0352 0.0 0
M  V30 25 C -7.6114 5.6034 0.0 0
M  V30 26 C 6.4089 2.288 0.0 0
M  V30 27 C 4.3543 0.7004 0.0 0
M  V30 28 C -5.4634 0.677 0.0 0
M  V30 29 C -8.1951 4.2259 0.0 0
M  V30 30 N -9.6893 4.0391 0.0 0
M  V30 31 C -10.6116 5.2299 0.0 0
M  V30 32 C -10.273 2.6616 0.0 0
M  V30 33 C -12.1058 5.0431 0.0 0
M  V30 34 C -11.7673 2.4748 0.0 0
M  V30 35 C -12.6895 3.6656 0.0 0
M  V30 36 N -14.1838 3.4788 0.0 0
M  V30 37 C -15.106 4.6695 0.0 0
M  V30 38 C -14.7675 2.1013 0.0 0
M  V30 39 C -16.6003 4.4827 0.0 0
M  V30 40 C -16.2618 1.9145 0.0 0
M  V30 41 N -17.184 3.1052 0.0 0
M  V30 42 C -18.6783 2.9184 0.0 0
M  V30 END ATOM
M  V30 BEGIN BOND
M  V30 1 1 1 2
M  V30 2 2 2 3
M  V30 3 1 2 4
M  V30 4 1 3 5
M  V30 5 1 3 6
M  V30 6 2 4 7
M  V30 7 2 5 8
M  V30 8 1 6 9
M  V30 9 1 8 10
M  V30 10 2 9 11
M  V30 11 1 9 12
M  V30 12 1 10 13
M  V30 13 1 11 14
M  V30 14 1 11 15
M  V30 15 2 12 16
M  V30 16 2 13 17
M  V30 17 1 13 18
M  V30 18 2 14 19
M  V30 19 2 14 20
M  V30 20 1 14 21
M  V30 21 2 15 22
M  V30 22 1 17 23
M  V30 23 1 17 24
M  V30 24 2 18 25
M  V30 25 1 21 26
M  V30 26 1 21 27
M  V30 27 1 23 28
M  V30 28 2 24 29
M  V30 29 1 29 30
M  V30 30 1 30 31
M  V30 31 1 30 32
M  V30 32 1 31 33
M  V30 33 1 32 34
M  V30 34 1 33 35
M  V30 35 1 35 36
M  V30 36 1 36 37
M  V30 37 1 36 38
M  V30 38 1 37 39
M  V30 39 1 38 40
M  V30 40 1 39 41
M  V30 41 1 41 42
M  V30 42 1 7 8
M  V30 43 1 16 22
M  V30 44 1 25 29
M  V30 45 1 34 35
M  V30 46 1 40 41
M  V30 END BOND
M  V30 END CTAB
M  END
>  <Compound ID>
67

>  <Name>
TAE684

>  <Uniprot>
O14757

>  <Target>
CHEK1

>  <Smiles>
COC1=CC(N2CCC(N3CCN(C)CC3)CC2)=CC=C1NC1=NC=C(Cl)C(NC2=CC=CC=C2S(=O)(=O)C(C)C)=N1

>  <Kd (nM)>
44

>  <Assay (Kd)>
Kd was assessed by competition binding assays

>  <Ki (nM)>


>  <Assay (Ki)>


>  <IC50 (nM)>


>  <Assay (IC50)>


>  <EC50 (nM)>


>  <Assay (EC50)>


>  <Article DOI>
10.1038/nbt.1990

>  <Molecular Weight>
614.216

>  <Exact Mass>
613.26018682

>  <XLogP3>
5.67

>  <Heavy Atom Count>
42

>  <Ring Count>
5

>  <Hydrogen Bond Acceptor Count>
10

>  <Hydrogen Bond Donor Count>
2

>  <Rotatable Bond Count>
9

>  <Topological Polar Surface Area>
102.93

>  <Molecular Formula>
C30H40ClN7O3S

>  <InChI>
InChI=1S/C30H40ClN7O3S/c1-21(2)42(39,40)28-8-6-5-7-26(28)33-29-24(31)20-32-30(35-29)34-25-10-9-23(19-27(25)41-4)37-13-11-22(12-14-37)38-17-15-36(3)16-18-38/h5-10,19-22H,11-18H2,1-4H3,(H2,32,33,34,35)

>  <InChI Key>
QQWUGDVOUVUTOY-UHFFFAOYSA-N

>  <BindingDB>
50242742

>  <PubChem>
16038120

>  <ChEMBL>
CHEMBL509032

$$$$
Compound 163
Actelion Java MolfileCreator 2.0

  0  0  0  0  0  0              0 V3000
M  V30 BEGIN CTAB
M  V30 COUNTS 42 46 0 0 0
M  V30 BEGIN ATOM
M  V30 1 Cl 0.0 0.0 0.0 0
M  V30 2 C -0.9222 1.1907 0.0 0
M  V30 3 C -0.3618 2.5916 0.0 0
M  V30 4 C -2.4165 1.0039 0.0 0
M  V30 5 N -1.2841 3.7823 0.0 0
M  V30 6 N 1.109 2.8017 0.0 0
M  V30 7 N -3.3387 2.1947 0.0 0
M  V30 8 C -2.7783 3.5955 0.0 0
M  V30 9 C 1.6693 4.2026 0.0 0
M  V30 10 N -3.7006 4.7863 0.0 0
M  V30 11 C 3.1402 4.4127 0.0 0
M  V30 12 C 0.7471 5.3933 0.0 0
M  V30 13 C -5.1949 4.5995 0.0 0
M  V30 14 S 4.0391 3.2453 0.0 0
M  V30 15 C 3.7006 5.8136 0.0 0
M  V30 16 C 1.3074 6.7942 0.0 0
M  V30 17 C -5.7786 3.222 0.0 0
M  V30 18 C -6.1171 5.7902 0.0 0
M  V30 19 O 2.8484 2.3464 0.0 0
M  V30 20 O 5.2065 4.1675 0.0 0
M  V30 21 C 4.938 2.0779 0.0 0
M  V30 22 C 2.7783 7.0043 0.0 0
M  V30 23 O -4.8797 2.0546 0.0 0
M  V30 24 C -7.2728 3.0352 0.0 0
M  V30 25 C -7.6114 5.6034 0.0 0
M  V30 26 C 6.4089 2.288 0.0 0
M  V30 27 C 4.3543 0.7004 0.0 0
M  V30 28 C -5.4634 0.677 0.0 0
M  V30 29 C -8.1951 4.2259 0.0 0
M  V30 30 N -9.6893 4.0391 0.0 0
M  V30 31 C -10.6116 5.2299 0.0 0
M  V30 32 C -10.273 2.6616 0.0 0
M  V30 33 C -12.1058 5.0431 0.0 0
M  V30 34 C -11.7673 2.4748 0.0 0
M  V30 35 C -12.6895 3.6656 0.0 0
M  V30 36 N -14.1838 3.4788 0.0 0
M  V30 37 C -15.106 4.6695 0.0 0
M  V30 38 C -14.7675 2.1013 0.0 0
M  V30 39 C -16.6003 4.4827 0.0 0
M  V30 40 C -16.2618 1.9145 0.0 0
M  V30 41 N -17.184 3.1052 0.0 0
M  V30 42 C -18.6783 2.9184 0.0 0
M  V30 END ATOM
M  V30 BEGIN BOND
M  V30 1 1 1 2
M  V30 2 2 2 3
M  V30 3 1 2 4
M  V30 4 1 3 5
M  V30 5 1 3 6
M  V30 6 2 4 7
M  V30 7 2 5 8
M  V30 8 1 6 9
M  V30 9 1 8 10
M  V30 10 2 9 11
M  V30 11 1 9 12
M  V30 12 1 10 13
M  V30 13 1 11 14
M  V30 14 1 11 15
M  V30 15 2 12 16
M  V30 16 2 13 17
M  V30 17 1 13 18
M  V30 18 2 14 19
M  V30 19 2 14 20
M  V30 20 1 14 21
M  V30 21 2 15 22
M  V30 22 1 17 23
M  V30 23 1 17 24
M  V30 24 2 18 25
M  V30 25 1 21 26
M  V30 26 1 21 27
M  V30 27 1 23 28
M  V30 28 2 24 29
M  V30 29 1 29 30
M  V30 30 1 30 31
M  V30 31 1 30 32
M  V30 32 1 31 33
M  V30 33 1 32 34
M  V30 34 1 33 35
M  V30 35 1 35 36
M  V30 36 1 36 37
M  V30 37 1 36 38
M  V30 38 1 37 39
M  V30 39 1 38 40
M  V30 40 1 39 41
M  V30 41 1 41 42
M  V30 42 1 7 8
M  V30 43 1 16 22
M  V30 44 1 25 29
M  V30 45 1 34 35
M  V30 46 1 40 41
M  V30 END BOND
M  V30 END CTAB
M  END
>  <Compound ID>
67

>  <Name>
TAE684

>  <Uniprot>
Q8NI60

>  <Target>
COQ8A

>  <Smiles>
COC1=CC(N2CCC(N3CCN(C)CC3)CC2)=CC=C1NC1=NC=C(Cl)C(NC2=CC=CC=C2S(=O)(=O)C(C)C)=N1

>  <Kd (nM)>
1700

>  <Assay (Kd)>
Kd was assessed by competition binding assays

>  <Ki (nM)>


>  <Assay (Ki)>


>  <IC50 (nM)>


>  <Assay (IC50)>


>  <EC50 (nM)>


>  <Assay (EC50)>


>  <Article DOI>
10.1038/nbt.1990

>  <Molecular Weight>
614.216

>  <Exact Mass>
613.26018682

>  <XLogP3>
5.67

>  <Heavy Atom Count>
42

>  <Ring Count>
5

>  <Hydrogen Bond Acceptor Count>
10

>  <Hydrogen Bond Donor Count>
2

>  <Rotatable Bond Count>
9

>  <Topological Polar Surface Area>
102.93

>  <Molecular Formula>
C30H40ClN7O3S

>  <InChI>
InChI=1S/C30H40ClN7O3S/c1-21(2)42(39,40)28-8-6-5-7-26(28)33-29-24(31)20-32-30(35-29)34-25-10-9-23(19-27(25)41-4)37-13-11-22(12-14-37)38-17-15-36(3)16-18-38/h5-10,19-22H,11-18H2,1-4H3,(H2,32,33,34,35)

>  <InChI Key>
QQWUGDVOUVUTOY-UHFFFAOYSA-N

>  <BindingDB>
50242742

>  <PubChem>
16038120

>  <ChEMBL>
CHEMBL509032

$$$$
Compound 164
Actelion Java MolfileCreator 2.0

  0  0  0  0  0  0              0 V3000
M  V30 BEGIN CTAB
M  V30 COUNTS 42 46 0 0 0
M  V30 BEGIN ATOM
M  V30 1 Cl 0.0 0.0 0.0 0
M  V30 2 C -0.9222 1.1907 0.0 0
M  V30 3 C -0.3618 2.5916 0.0 0
M  V30 4 C -2.4165 1.0039 0.0 0
M  V30 5 N -1.2841 3.7823 0.0 0
M  V30 6 N 1.109 2.8017 0.0 0
M  V30 7 N -3.3387 2.1947 0.0 0
M  V30 8 C -2.7783 3.5955 0.0 0
M  V30 9 C 1.6693 4.2026 0.0 0
M  V30 10 N -3.7006 4.7863 0.0 0
M  V30 11 C 3.1402 4.4127 0.0 0
M  V30 12 C 0.7471 5.3933 0.0 0
M  V30 13 C -5.1949 4.5995 0.0 0
M  V30 14 S 4.0391 3.2453 0.0 0
M  V30 15 C 3.7006 5.8136 0.0 0
M  V30 16 C 1.3074 6.7942 0.0 0
M  V30 17 C -5.7786 3.222 0.0 0
M  V30 18 C -6.1171 5.7902 0.0 0
M  V30 19 O 2.8484 2.3464 0.0 0
M  V30 20 O 5.2065 4.1675 0.0 0
M  V30 21 C 4.938 2.0779 0.0 0
M  V30 22 C 2.7783 7.0043 0.0 0
M  V30 23 O -4.8797 2.0546 0.0 0
M  V30 24 C -7.2728 3.0352 0.0 0
M  V30 25 C -7.6114 5.6034 0.0 0
M  V30 26 C 6.4089 2.288 0.0 0
M  V30 27 C 4.3543 0.7004 0.0 0
M  V30 28 C -5.4634 0.677 0.0 0
M  V30 29 C -8.1951 4.2259 0.0 0
M  V30 30 N -9.6893 4.0391 0.0 0
M  V30 31 C -10.6116 5.2299 0.0 0
M  V30 32 C -10.273 2.6616 0.0 0
M  V30 33 C -12.1058 5.0431 0.0 0
M  V30 34 C -11.7673 2.4748 0.0 0
M  V30 35 C -12.6895 3.6656 0.0 0
M  V30 36 N -14.1838 3.4788 0.0 0
M  V30 37 C -15.106 4.6695 0.0 0
M  V30 38 C -14.7675 2.1013 0.0 0
M  V30 39 C -16.6003 4.4827 0.0 0
M  V30 40 C -16.2618 1.9145 0.0 0
M  V30 41 N -17.184 3.1052 0.0 0
M  V30 42 C -18.6783 2.9184 0.0 0
M  V30 END ATOM
M  V30 BEGIN BOND
M  V30 1 1 1 2
M  V30 2 2 2 3
M  V30 3 1 2 4
M  V30 4 1 3 5
M  V30 5 1 3 6
M  V30 6 2 4 7
M  V30 7 2 5 8
M  V30 8 1 6 9
M  V30 9 1 8 10
M  V30 10 2 9 11
M  V30 11 1 9 12
M  V30 12 1 10 13
M  V30 13 1 11 14
M  V30 14 1 11 15
M  V30 15 2 12 16
M  V30 16 2 13 17
M  V30 17 1 13 18
M  V30 18 2 14 19
M  V30 19 2 14 20
M  V30 20 1 14 21
M  V30 21 2 15 22
M  V30 22 1 17 23
M  V30 23 1 17 24
M  V30 24 2 18 25
M  V30 25 1 21 26
M  V30 26 1 21 27
M  V30 27 1 23 28
M  V30 28 2 24 29
M  V30 29 1 29 30
M  V30 30 1 30 31
M  V30 31 1 30 32
M  V30 32 1 31 33
M  V30 33 1 32 34
M  V30 34 1 33 35
M  V30 35 1 35 36
M  V30 36 1 36 37
M  V30 37 1 36 38
M  V30 38 1 37 39
M  V30 39 1 38 40
M  V30 40 1 39 41
M  V30 41 1 41 42
M  V30 42 1 7 8
M  V30 43 1 16 22
M  V30 44 1 25 29
M  V30 45 1 34 35
M  V30 46 1 40 41
M  V30 END BOND
M  V30 END CTAB
M  END
>  <Compound ID>
67

>  <Name>
TAE684

>  <Uniprot>
Q96D53

>  <Target>
COQ8B

>  <Smiles>
COC1=CC(N2CCC(N3CCN(C)CC3)CC2)=CC=C1NC1=NC=C(Cl)C(NC2=CC=CC=C2S(=O)(=O)C(C)C)=N1

>  <Kd (nM)>
92

>  <Assay (Kd)>
Kd was assessed by competition binding assays

>  <Ki (nM)>


>  <Assay (Ki)>


>  <IC50 (nM)>


>  <Assay (IC50)>


>  <EC50 (nM)>


>  <Assay (EC50)>


>  <Article DOI>
10.1038/nbt.1990

>  <Molecular Weight>
614.216

>  <Exact Mass>
613.26018682

>  <XLogP3>
5.67

>  <Heavy Atom Count>
42

>  <Ring Count>
5

>  <Hydrogen Bond Acceptor Count>
10

>  <Hydrogen Bond Donor Count>
2

>  <Rotatable Bond Count>
9

>  <Topological Polar Surface Area>
102.93

>  <Molecular Formula>
C30H40ClN7O3S

>  <InChI>
InChI=1S/C30H40ClN7O3S/c1-21(2)42(39,40)28-8-6-5-7-26(28)33-29-24(31)20-32-30(35-29)34-25-10-9-23(19-27(25)41-4)37-13-11-22(12-14-37)38-17-15-36(3)16-18-38/h5-10,19-22H,11-18H2,1-4H3,(H2,32,33,34,35)

>  <InChI Key>
QQWUGDVOUVUTOY-UHFFFAOYSA-N

>  <BindingDB>
50242742

>  <PubChem>
16038120

>  <ChEMBL>
CHEMBL509032

$$$$
Compound 165
Actelion Java MolfileCreator 2.0

  0  0  0  0  0  0              0 V3000
M  V30 BEGIN CTAB
M  V30 COUNTS 42 46 0 0 0
M  V30 BEGIN ATOM
M  V30 1 Cl 0.0 0.0 0.0 0
M  V30 2 C -0.9222 1.1907 0.0 0
M  V30 3 C -0.3618 2.5916 0.0 0
M  V30 4 C -2.4165 1.0039 0.0 0
M  V30 5 N -1.2841 3.7823 0.0 0
M  V30 6 N 1.109 2.8017 0.0 0
M  V30 7 N -3.3387 2.1947 0.0 0
M  V30 8 C -2.7783 3.5955 0.0 0
M  V30 9 C 1.6693 4.2026 0.0 0
M  V30 10 N -3.7006 4.7863 0.0 0
M  V30 11 C 3.1402 4.4127 0.0 0
M  V30 12 C 0.7471 5.3933 0.0 0
M  V30 13 C -5.1949 4.5995 0.0 0
M  V30 14 S 4.0391 3.2453 0.0 0
M  V30 15 C 3.7006 5.8136 0.0 0
M  V30 16 C 1.3074 6.7942 0.0 0
M  V30 17 C -5.7786 3.222 0.0 0
M  V30 18 C -6.1171 5.7902 0.0 0
M  V30 19 O 2.8484 2.3464 0.0 0
M  V30 20 O 5.2065 4.1675 0.0 0
M  V30 21 C 4.938 2.0779 0.0 0
M  V30 22 C 2.7783 7.0043 0.0 0
M  V30 23 O -4.8797 2.0546 0.0 0
M  V30 24 C -7.2728 3.0352 0.0 0
M  V30 25 C -7.6114 5.6034 0.0 0
M  V30 26 C 6.4089 2.288 0.0 0
M  V30 27 C 4.3543 0.7004 0.0 0
M  V30 28 C -5.4634 0.677 0.0 0
M  V30 29 C -8.1951 4.2259 0.0 0
M  V30 30 N -9.6893 4.0391 0.0 0
M  V30 31 C -10.6116 5.2299 0.0 0
M  V30 32 C -10.273 2.6616 0.0 0
M  V30 33 C -12.1058 5.0431 0.0 0
M  V30 34 C -11.7673 2.4748 0.0 0
M  V30 35 C -12.6895 3.6656 0.0 0
M  V30 36 N -14.1838 3.4788 0.0 0
M  V30 37 C -15.106 4.6695 0.0 0
M  V30 38 C -14.7675 2.1013 0.0 0
M  V30 39 C -16.6003 4.4827 0.0 0
M  V30 40 C -16.2618 1.9145 0.0 0
M  V30 41 N -17.184 3.1052 0.0 0
M  V30 42 C -18.6783 2.9184 0.0 0
M  V30 END ATOM
M  V30 BEGIN BOND
M  V30 1 1 1 2
M  V30 2 2 2 3
M  V30 3 1 2 4
M  V30 4 1 3 5
M  V30 5 1 3 6
M  V30 6 2 4 7
M  V30 7 2 5 8
M  V30 8 1 6 9
M  V30 9 1 8 10
M  V30 10 2 9 11
M  V30 11 1 9 12
M  V30 12 1 10 13
M  V30 13 1 11 14
M  V30 14 1 11 15
M  V30 15 2 12 16
M  V30 16 2 13 17
M  V30 17 1 13 18
M  V30 18 2 14 19
M  V30 19 2 14 20
M  V30 20 1 14 21
M  V30 21 2 15 22
M  V30 22 1 17 23
M  V30 23 1 17 24
M  V30 24 2 18 25
M  V30 25 1 21 26
M  V30 26 1 21 27
M  V30 27 1 23 28
M  V30 28 2 24 29
M  V30 29 1 29 30
M  V30 30 1 30 31
M  V30 31 1 30 32
M  V30 32 1 31 33
M  V30 33 1 32 34
M  V30 34 1 33 35
M  V30 35 1 35 36
M  V30 36 1 36 37
M  V30 37 1 36 38
M  V30 38 1 37 39
M  V30 39 1 38 40
M  V30 40 1 39 41
M  V30 41 1 41 42
M  V30 42 1 7 8
M  V30 43 1 16 22
M  V30 44 1 25 29
M  V30 45 1 34 35
M  V30 46 1 40 41
M  V30 END BOND
M  V30 END CTAB
M  END
>  <Compound ID>
67

>  <Name>
TAE684

>  <Uniprot>
P41240

>  <Target>
CSK

>  <Smiles>
COC1=CC(N2CCC(N3CCN(C)CC3)CC2)=CC=C1NC1=NC=C(Cl)C(NC2=CC=CC=C2S(=O)(=O)C(C)C)=N1

>  <Kd (nM)>
1800

>  <Assay (Kd)>
Kd was assessed by competition binding assays

>  <Ki (nM)>


>  <Assay (Ki)>


>  <IC50 (nM)>


>  <Assay (IC50)>


>  <EC50 (nM)>


>  <Assay (EC50)>


>  <Article DOI>
10.1038/nbt.1990

>  <Molecular Weight>
614.216

>  <Exact Mass>
613.26018682

>  <XLogP3>
5.67

>  <Heavy Atom Count>
42

>  <Ring Count>
5

>  <Hydrogen Bond Acceptor Count>
10

>  <Hydrogen Bond Donor Count>
2

>  <Rotatable Bond Count>
9

>  <Topological Polar Surface Area>
102.93

>  <Molecular Formula>
C30H40ClN7O3S

>  <InChI>
InChI=1S/C30H40ClN7O3S/c1-21(2)42(39,40)28-8-6-5-7-26(28)33-29-24(31)20-32-30(35-29)34-25-10-9-23(19-27(25)41-4)37-13-11-22(12-14-37)38-17-15-36(3)16-18-38/h5-10,19-22H,11-18H2,1-4H3,(H2,32,33,34,35)

>  <InChI Key>
QQWUGDVOUVUTOY-UHFFFAOYSA-N

>  <BindingDB>
50242742

>  <PubChem>
16038120

>  <ChEMBL>
CHEMBL509032

$$$$
Compound 166
Actelion Java MolfileCreator 2.0

  0  0  0  0  0  0              0 V3000
M  V30 BEGIN CTAB
M  V30 COUNTS 42 46 0 0 0
M  V30 BEGIN ATOM
M  V30 1 Cl 0.0 0.0 0.0 0
M  V30 2 C -0.9222 1.1907 0.0 0
M  V30 3 C -0.3618 2.5916 0.0 0
M  V30 4 C -2.4165 1.0039 0.0 0
M  V30 5 N -1.2841 3.7823 0.0 0
M  V30 6 N 1.109 2.8017 0.0 0
M  V30 7 N -3.3387 2.1947 0.0 0
M  V30 8 C -2.7783 3.5955 0.0 0
M  V30 9 C 1.6693 4.2026 0.0 0
M  V30 10 N -3.7006 4.7863 0.0 0
M  V30 11 C 3.1402 4.4127 0.0 0
M  V30 12 C 0.7471 5.3933 0.0 0
M  V30 13 C -5.1949 4.5995 0.0 0
M  V30 14 S 4.0391 3.2453 0.0 0
M  V30 15 C 3.7006 5.8136 0.0 0
M  V30 16 C 1.3074 6.7942 0.0 0
M  V30 17 C -5.7786 3.222 0.0 0
M  V30 18 C -6.1171 5.7902 0.0 0
M  V30 19 O 2.8484 2.3464 0.0 0
M  V30 20 O 5.2065 4.1675 0.0 0
M  V30 21 C 4.938 2.0779 0.0 0
M  V30 22 C 2.7783 7.0043 0.0 0
M  V30 23 O -4.8797 2.0546 0.0 0
M  V30 24 C -7.2728 3.0352 0.0 0
M  V30 25 C -7.6114 5.6034 0.0 0
M  V30 26 C 6.4089 2.288 0.0 0
M  V30 27 C 4.3543 0.7004 0.0 0
M  V30 28 C -5.4634 0.677 0.0 0
M  V30 29 C -8.1951 4.2259 0.0 0
M  V30 30 N -9.6893 4.0391 0.0 0
M  V30 31 C -10.6116 5.2299 0.0 0
M  V30 32 C -10.273 2.6616 0.0 0
M  V30 33 C -12.1058 5.0431 0.0 0
M  V30 34 C -11.7673 2.4748 0.0 0
M  V30 35 C -12.6895 3.6656 0.0 0
M  V30 36 N -14.1838 3.4788 0.0 0
M  V30 37 C -15.106 4.6695 0.0 0
M  V30 38 C -14.7675 2.1013 0.0 0
M  V30 39 C -16.6003 4.4827 0.0 0
M  V30 40 C -16.2618 1.9145 0.0 0
M  V30 41 N -17.184 3.1052 0.0 0
M  V30 42 C -18.6783 2.9184 0.0 0
M  V30 END ATOM
M  V30 BEGIN BOND
M  V30 1 1 1 2
M  V30 2 2 2 3
M  V30 3 1 2 4
M  V30 4 1 3 5
M  V30 5 1 3 6
M  V30 6 2 4 7
M  V30 7 2 5 8
M  V30 8 1 6 9
M  V30 9 1 8 10
M  V30 10 2 9 11
M  V30 11 1 9 12
M  V30 12 1 10 13
M  V30 13 1 11 14
M  V30 14 1 11 15
M  V30 15 2 12 16
M  V30 16 2 13 17
M  V30 17 1 13 18
M  V30 18 2 14 19
M  V30 19 2 14 20
M  V30 20 1 14 21
M  V30 21 2 15 22
M  V30 22 1 17 23
M  V30 23 1 17 24
M  V30 24 2 18 25
M  V30 25 1 21 26
M  V30 26 1 21 27
M  V30 27 1 23 28
M  V30 28 2 24 29
M  V30 29 1 29 30
M  V30 30 1 30 31
M  V30 31 1 30 32
M  V30 32 1 31 33
M  V30 33 1 32 34
M  V30 34 1 33 35
M  V30 35 1 35 36
M  V30 36 1 36 37
M  V30 37 1 36 38
M  V30 38 1 37 39
M  V30 39 1 38 40
M  V30 40 1 39 41
M  V30 41 1 41 42
M  V30 42 1 7 8
M  V30 43 1 16 22
M  V30 44 1 25 29
M  V30 45 1 34 35
M  V30 46 1 40 41
M  V30 END BOND
M  V30 END CTAB
M  END
>  <Compound ID>
67

>  <Name>
TAE684

>  <Uniprot>
P48730

>  <Target>
CSNK1D

>  <Smiles>
COC1=CC(N2CCC(N3CCN(C)CC3)CC2)=CC=C1NC1=NC=C(Cl)C(NC2=CC=CC=C2S(=O)(=O)C(C)C)=N1

>  <Kd (nM)>
>10000

>  <Assay (Kd)>
Kd was assessed by competition binding assays

>  <Ki (nM)>


>  <Assay (Ki)>


>  <IC50 (nM)>


>  <Assay (IC50)>


>  <EC50 (nM)>


>  <Assay (EC50)>


>  <Article DOI>
10.1038/nbt.1990

>  <Molecular Weight>
614.216

>  <Exact Mass>
613.26018682

>  <XLogP3>
5.67

>  <Heavy Atom Count>
42

>  <Ring Count>
5

>  <Hydrogen Bond Acceptor Count>
10

>  <Hydrogen Bond Donor Count>
2

>  <Rotatable Bond Count>
9

>  <Topological Polar Surface Area>
102.93

>  <Molecular Formula>
C30H40ClN7O3S

>  <InChI>
InChI=1S/C30H40ClN7O3S/c1-21(2)42(39,40)28-8-6-5-7-26(28)33-29-24(31)20-32-30(35-29)34-25-10-9-23(19-27(25)41-4)37-13-11-22(12-14-37)38-17-15-36(3)16-18-38/h5-10,19-22H,11-18H2,1-4H3,(H2,32,33,34,35)

>  <InChI Key>
QQWUGDVOUVUTOY-UHFFFAOYSA-N

>  <BindingDB>
50242742

>  <PubChem>
16038120

>  <ChEMBL>
CHEMBL509032

$$$$
Compound 167
Actelion Java MolfileCreator 2.0

  0  0  0  0  0  0              0 V3000
M  V30 BEGIN CTAB
M  V30 COUNTS 42 46 0 0 0
M  V30 BEGIN ATOM
M  V30 1 Cl 0.0 0.0 0.0 0
M  V30 2 C -0.9222 1.1907 0.0 0
M  V30 3 C -0.3618 2.5916 0.0 0
M  V30 4 C -2.4165 1.0039 0.0 0
M  V30 5 N -1.2841 3.7823 0.0 0
M  V30 6 N 1.109 2.8017 0.0 0
M  V30 7 N -3.3387 2.1947 0.0 0
M  V30 8 C -2.7783 3.5955 0.0 0
M  V30 9 C 1.6693 4.2026 0.0 0
M  V30 10 N -3.7006 4.7863 0.0 0
M  V30 11 C 3.1402 4.4127 0.0 0
M  V30 12 C 0.7471 5.3933 0.0 0
M  V30 13 C -5.1949 4.5995 0.0 0
M  V30 14 S 4.0391 3.2453 0.0 0
M  V30 15 C 3.7006 5.8136 0.0 0
M  V30 16 C 1.3074 6.7942 0.0 0
M  V30 17 C -5.7786 3.222 0.0 0
M  V30 18 C -6.1171 5.7902 0.0 0
M  V30 19 O 2.8484 2.3464 0.0 0
M  V30 20 O 5.2065 4.1675 0.0 0
M  V30 21 C 4.938 2.0779 0.0 0
M  V30 22 C 2.7783 7.0043 0.0 0
M  V30 23 O -4.8797 2.0546 0.0 0
M  V30 24 C -7.2728 3.0352 0.0 0
M  V30 25 C -7.6114 5.6034 0.0 0
M  V30 26 C 6.4089 2.288 0.0 0
M  V30 27 C 4.3543 0.7004 0.0 0
M  V30 28 C -5.4634 0.677 0.0 0
M  V30 29 C -8.1951 4.2259 0.0 0
M  V30 30 N -9.6893 4.0391 0.0 0
M  V30 31 C -10.6116 5.2299 0.0 0
M  V30 32 C -10.273 2.6616 0.0 0
M  V30 33 C -12.1058 5.0431 0.0 0
M  V30 34 C -11.7673 2.4748 0.0 0
M  V30 35 C -12.6895 3.6656 0.0 0
M  V30 36 N -14.1838 3.4788 0.0 0
M  V30 37 C -15.106 4.6695 0.0 0
M  V30 38 C -14.7675 2.1013 0.0 0
M  V30 39 C -16.6003 4.4827 0.0 0
M  V30 40 C -16.2618 1.9145 0.0 0
M  V30 41 N -17.184 3.1052 0.0 0
M  V30 42 C -18.6783 2.9184 0.0 0
M  V30 END ATOM
M  V30 BEGIN BOND
M  V30 1 1 1 2
M  V30 2 2 2 3
M  V30 3 1 2 4
M  V30 4 1 3 5
M  V30 5 1 3 6
M  V30 6 2 4 7
M  V30 7 2 5 8
M  V30 8 1 6 9
M  V30 9 1 8 10
M  V30 10 2 9 11
M  V30 11 1 9 12
M  V30 12 1 10 13
M  V30 13 1 11 14
M  V30 14 1 11 15
M  V30 15 2 12 16
M  V30 16 2 13 17
M  V30 17 1 13 18
M  V30 18 2 14 19
M  V30 19 2 14 20
M  V30 20 1 14 21
M  V30 21 2 15 22
M  V30 22 1 17 23
M  V30 23 1 17 24
M  V30 24 2 18 25
M  V30 25 1 21 26
M  V30 26 1 21 27
M  V30 27 1 23 28
M  V30 28 2 24 29
M  V30 29 1 29 30
M  V30 30 1 30 31
M  V30 31 1 30 32
M  V30 32 1 31 33
M  V30 33 1 32 34
M  V30 34 1 33 35
M  V30 35 1 35 36
M  V30 36 1 36 37
M  V30 37 1 36 38
M  V30 38 1 37 39
M  V30 39 1 38 40
M  V30 40 1 39 41
M  V30 41 1 41 42
M  V30 42 1 7 8
M  V30 43 1 16 22
M  V30 44 1 25 29
M  V30 45 1 34 35
M  V30 46 1 40 41
M  V30 END BOND
M  V30 END CTAB
M  END
>  <Compound ID>
67

>  <Name>
TAE684

>  <Uniprot>
P49674

>  <Target>
CSNK1E

>  <Smiles>
COC1=CC(N2CCC(N3CCN(C)CC3)CC2)=CC=C1NC1=NC=C(Cl)C(NC2=CC=CC=C2S(=O)(=O)C(C)C)=N1

>  <Kd (nM)>
>10000

>  <Assay (Kd)>
Kd was assessed by competition binding assays

>  <Ki (nM)>


>  <Assay (Ki)>


>  <IC50 (nM)>


>  <Assay (IC50)>


>  <EC50 (nM)>


>  <Assay (EC50)>


>  <Article DOI>
10.1038/nbt.1990

>  <Molecular Weight>
614.216

>  <Exact Mass>
613.26018682

>  <XLogP3>
5.67

>  <Heavy Atom Count>
42

>  <Ring Count>
5

>  <Hydrogen Bond Acceptor Count>
10

>  <Hydrogen Bond Donor Count>
2

>  <Rotatable Bond Count>
9

>  <Topological Polar Surface Area>
102.93

>  <Molecular Formula>
C30H40ClN7O3S

>  <InChI>
InChI=1S/C30H40ClN7O3S/c1-21(2)42(39,40)28-8-6-5-7-26(28)33-29-24(31)20-32-30(35-29)34-25-10-9-23(19-27(25)41-4)37-13-11-22(12-14-37)38-17-15-36(3)16-18-38/h5-10,19-22H,11-18H2,1-4H3,(H2,32,33,34,35)

>  <InChI Key>
QQWUGDVOUVUTOY-UHFFFAOYSA-N

>  <BindingDB>
50242742

>  <PubChem>
16038120

>  <ChEMBL>
CHEMBL509032

$$$$
Compound 168
Actelion Java MolfileCreator 2.0

  0  0  0  0  0  0              0 V3000
M  V30 BEGIN CTAB
M  V30 COUNTS 42 46 0 0 0
M  V30 BEGIN ATOM
M  V30 1 Cl 0.0 0.0 0.0 0
M  V30 2 C -0.9222 1.1907 0.0 0
M  V30 3 C -0.3618 2.5916 0.0 0
M  V30 4 C -2.4165 1.0039 0.0 0
M  V30 5 N -1.2841 3.7823 0.0 0
M  V30 6 N 1.109 2.8017 0.0 0
M  V30 7 N -3.3387 2.1947 0.0 0
M  V30 8 C -2.7783 3.5955 0.0 0
M  V30 9 C 1.6693 4.2026 0.0 0
M  V30 10 N -3.7006 4.7863 0.0 0
M  V30 11 C 3.1402 4.4127 0.0 0
M  V30 12 C 0.7471 5.3933 0.0 0
M  V30 13 C -5.1949 4.5995 0.0 0
M  V30 14 S 4.0391 3.2453 0.0 0
M  V30 15 C 3.7006 5.8136 0.0 0
M  V30 16 C 1.3074 6.7942 0.0 0
M  V30 17 C -5.7786 3.222 0.0 0
M  V30 18 C -6.1171 5.7902 0.0 0
M  V30 19 O 2.8484 2.3464 0.0 0
M  V30 20 O 5.2065 4.1675 0.0 0
M  V30 21 C 4.938 2.0779 0.0 0
M  V30 22 C 2.7783 7.0043 0.0 0
M  V30 23 O -4.8797 2.0546 0.0 0
M  V30 24 C -7.2728 3.0352 0.0 0
M  V30 25 C -7.6114 5.6034 0.0 0
M  V30 26 C 6.4089 2.288 0.0 0
M  V30 27 C 4.3543 0.7004 0.0 0
M  V30 28 C -5.4634 0.677 0.0 0
M  V30 29 C -8.1951 4.2259 0.0 0
M  V30 30 N -9.6893 4.0391 0.0 0
M  V30 31 C -10.6116 5.2299 0.0 0
M  V30 32 C -10.273 2.6616 0.0 0
M  V30 33 C -12.1058 5.0431 0.0 0
M  V30 34 C -11.7673 2.4748 0.0 0
M  V30 35 C -12.6895 3.6656 0.0 0
M  V30 36 N -14.1838 3.4788 0.0 0
M  V30 37 C -15.106 4.6695 0.0 0
M  V30 38 C -14.7675 2.1013 0.0 0
M  V30 39 C -16.6003 4.4827 0.0 0
M  V30 40 C -16.2618 1.9145 0.0 0
M  V30 41 N -17.184 3.1052 0.0 0
M  V30 42 C -18.6783 2.9184 0.0 0
M  V30 END ATOM
M  V30 BEGIN BOND
M  V30 1 1 1 2
M  V30 2 2 2 3
M  V30 3 1 2 4
M  V30 4 1 3 5
M  V30 5 1 3 6
M  V30 6 2 4 7
M  V30 7 2 5 8
M  V30 8 1 6 9
M  V30 9 1 8 10
M  V30 10 2 9 11
M  V30 11 1 9 12
M  V30 12 1 10 13
M  V30 13 1 11 14
M  V30 14 1 11 15
M  V30 15 2 12 16
M  V30 16 2 13 17
M  V30 17 1 13 18
M  V30 18 2 14 19
M  V30 19 2 14 20
M  V30 20 1 14 21
M  V30 21 2 15 22
M  V30 22 1 17 23
M  V30 23 1 17 24
M  V30 24 2 18 25
M  V30 25 1 21 26
M  V30 26 1 21 27
M  V30 27 1 23 28
M  V30 28 2 24 29
M  V30 29 1 29 30
M  V30 30 1 30 31
M  V30 31 1 30 32
M  V30 32 1 31 33
M  V30 33 1 32 34
M  V30 34 1 33 35
M  V30 35 1 35 36
M  V30 36 1 36 37
M  V30 37 1 36 38
M  V30 38 1 37 39
M  V30 39 1 38 40
M  V30 40 1 39 41
M  V30 41 1 41 42
M  V30 42 1 7 8
M  V30 43 1 16 22
M  V30 44 1 25 29
M  V30 45 1 34 35
M  V30 46 1 40 41
M  V30 END BOND
M  V30 END CTAB
M  END
>  <Compound ID>
67

>  <Name>
TAE684

>  <Uniprot>
O00418

>  <Target>
EEF2K

>  <Smiles>
COC1=CC(N2CCC(N3CCN(C)CC3)CC2)=CC=C1NC1=NC=C(Cl)C(NC2=CC=CC=C2S(=O)(=O)C(C)C)=N1

>  <Kd (nM)>


>  <Assay (Kd)>


>  <Ki (nM)>


>  <Assay (Ki)>


>  <IC50 (nM)>


>  <Assay (IC50)>


>  <EC50 (nM)>


>  <Assay (EC50)>


>  <Article DOI>
10.1016/j.cell.2020.10.038

>  <Molecular Weight>
614.216

>  <Exact Mass>
613.26018682

>  <XLogP3>
5.67

>  <Heavy Atom Count>
42

>  <Ring Count>
5

>  <Hydrogen Bond Acceptor Count>
10

>  <Hydrogen Bond Donor Count>
2

>  <Rotatable Bond Count>
9

>  <Topological Polar Surface Area>
102.93

>  <Molecular Formula>
C30H40ClN7O3S

>  <InChI>
InChI=1S/C30H40ClN7O3S/c1-21(2)42(39,40)28-8-6-5-7-26(28)33-29-24(31)20-32-30(35-29)34-25-10-9-23(19-27(25)41-4)37-13-11-22(12-14-37)38-17-15-36(3)16-18-38/h5-10,19-22H,11-18H2,1-4H3,(H2,32,33,34,35)

>  <InChI Key>
QQWUGDVOUVUTOY-UHFFFAOYSA-N

>  <BindingDB>
50242742

>  <PubChem>
16038120

>  <ChEMBL>
CHEMBL509032

$$$$
Compound 169
Actelion Java MolfileCreator 2.0

  0  0  0  0  0  0              0 V3000
M  V30 BEGIN CTAB
M  V30 COUNTS 42 46 0 0 0
M  V30 BEGIN ATOM
M  V30 1 Cl 0.0 0.0 0.0 0
M  V30 2 C -0.9222 1.1907 0.0 0
M  V30 3 C -0.3618 2.5916 0.0 0
M  V30 4 C -2.4165 1.0039 0.0 0
M  V30 5 N -1.2841 3.7823 0.0 0
M  V30 6 N 1.109 2.8017 0.0 0
M  V30 7 N -3.3387 2.1947 0.0 0
M  V30 8 C -2.7783 3.5955 0.0 0
M  V30 9 C 1.6693 4.2026 0.0 0
M  V30 10 N -3.7006 4.7863 0.0 0
M  V30 11 C 3.1402 4.4127 0.0 0
M  V30 12 C 0.7471 5.3933 0.0 0
M  V30 13 C -5.1949 4.5995 0.0 0
M  V30 14 S 4.0391 3.2453 0.0 0
M  V30 15 C 3.7006 5.8136 0.0 0
M  V30 16 C 1.3074 6.7942 0.0 0
M  V30 17 C -5.7786 3.222 0.0 0
M  V30 18 C -6.1171 5.7902 0.0 0
M  V30 19 O 2.8484 2.3464 0.0 0
M  V30 20 O 5.2065 4.1675 0.0 0
M  V30 21 C 4.938 2.0779 0.0 0
M  V30 22 C 2.7783 7.0043 0.0 0
M  V30 23 O -4.8797 2.0546 0.0 0
M  V30 24 C -7.2728 3.0352 0.0 0
M  V30 25 C -7.6114 5.6034 0.0 0
M  V30 26 C 6.4089 2.288 0.0 0
M  V30 27 C 4.3543 0.7004 0.0 0
M  V30 28 C -5.4634 0.677 0.0 0
M  V30 29 C -8.1951 4.2259 0.0 0
M  V30 30 N -9.6893 4.0391 0.0 0
M  V30 31 C -10.6116 5.2299 0.0 0
M  V30 32 C -10.273 2.6616 0.0 0
M  V30 33 C -12.1058 5.0431 0.0 0
M  V30 34 C -11.7673 2.4748 0.0 0
M  V30 35 C -12.6895 3.6656 0.0 0
M  V30 36 N -14.1838 3.4788 0.0 0
M  V30 37 C -15.106 4.6695 0.0 0
M  V30 38 C -14.7675 2.1013 0.0 0
M  V30 39 C -16.6003 4.4827 0.0 0
M  V30 40 C -16.2618 1.9145 0.0 0
M  V30 41 N -17.184 3.1052 0.0 0
M  V30 42 C -18.6783 2.9184 0.0 0
M  V30 END ATOM
M  V30 BEGIN BOND
M  V30 1 1 1 2
M  V30 2 2 2 3
M  V30 3 1 2 4
M  V30 4 1 3 5
M  V30 5 1 3 6
M  V30 6 2 4 7
M  V30 7 2 5 8
M  V30 8 1 6 9
M  V30 9 1 8 10
M  V30 10 2 9 11
M  V30 11 1 9 12
M  V30 12 1 10 13
M  V30 13 1 11 14
M  V30 14 1 11 15
M  V30 15 2 12 16
M  V30 16 2 13 17
M  V30 17 1 13 18
M  V30 18 2 14 19
M  V30 19 2 14 20
M  V30 20 1 14 21
M  V30 21 2 15 22
M  V30 22 1 17 23
M  V30 23 1 17 24
M  V30 24 2 18 25
M  V30 25 1 21 26
M  V30 26 1 21 27
M  V30 27 1 23 28
M  V30 28 2 24 29
M  V30 29 1 29 30
M  V30 30 1 30 31
M  V30 31 1 30 32
M  V30 32 1 31 33
M  V30 33 1 32 34
M  V30 34 1 33 35
M  V30 35 1 35 36
M  V30 36 1 36 37
M  V30 37 1 36 38
M  V30 38 1 37 39
M  V30 39 1 38 40
M  V30 40 1 39 41
M  V30 41 1 41 42
M  V30 42 1 7 8
M  V30 43 1 16 22
M  V30 44 1 25 29
M  V30 45 1 34 35
M  V30 46 1 40 41
M  V30 END BOND
M  V30 END CTAB
M  END
>  <Compound ID>
67

>  <Name>
TAE684

>  <Uniprot>
P21709

>  <Target>
EPHA1

>  <Smiles>
COC1=CC(N2CCC(N3CCN(C)CC3)CC2)=CC=C1NC1=NC=C(Cl)C(NC2=CC=CC=C2S(=O)(=O)C(C)C)=N1

>  <Kd (nM)>
39

>  <Assay (Kd)>
Kd was assessed by competition binding assays

>  <Ki (nM)>


>  <Assay (Ki)>


>  <IC50 (nM)>


>  <Assay (IC50)>


>  <EC50 (nM)>


>  <Assay (EC50)>


>  <Article DOI>
10.1038/nbt.1990

>  <Molecular Weight>
614.216

>  <Exact Mass>
613.26018682

>  <XLogP3>
5.67

>  <Heavy Atom Count>
42

>  <Ring Count>
5

>  <Hydrogen Bond Acceptor Count>
10

>  <Hydrogen Bond Donor Count>
2

>  <Rotatable Bond Count>
9

>  <Topological Polar Surface Area>
102.93

>  <Molecular Formula>
C30H40ClN7O3S

>  <InChI>
InChI=1S/C30H40ClN7O3S/c1-21(2)42(39,40)28-8-6-5-7-26(28)33-29-24(31)20-32-30(35-29)34-25-10-9-23(19-27(25)41-4)37-13-11-22(12-14-37)38-17-15-36(3)16-18-38/h5-10,19-22H,11-18H2,1-4H3,(H2,32,33,34,35)

>  <InChI Key>
QQWUGDVOUVUTOY-UHFFFAOYSA-N

>  <BindingDB>
50242742

>  <PubChem>
16038120

>  <ChEMBL>
CHEMBL509032

$$$$
Compound 170
Actelion Java MolfileCreator 2.0

  0  0  0  0  0  0              0 V3000
M  V30 BEGIN CTAB
M  V30 COUNTS 42 46 0 0 0
M  V30 BEGIN ATOM
M  V30 1 Cl 0.0 0.0 0.0 0
M  V30 2 C -0.9222 1.1907 0.0 0
M  V30 3 C -0.3618 2.5916 0.0 0
M  V30 4 C -2.4165 1.0039 0.0 0
M  V30 5 N -1.2841 3.7823 0.0 0
M  V30 6 N 1.109 2.8017 0.0 0
M  V30 7 N -3.3387 2.1947 0.0 0
M  V30 8 C -2.7783 3.5955 0.0 0
M  V30 9 C 1.6693 4.2026 0.0 0
M  V30 10 N -3.7006 4.7863 0.0 0
M  V30 11 C 3.1402 4.4127 0.0 0
M  V30 12 C 0.7471 5.3933 0.0 0
M  V30 13 C -5.1949 4.5995 0.0 0
M  V30 14 S 4.0391 3.2453 0.0 0
M  V30 15 C 3.7006 5.8136 0.0 0
M  V30 16 C 1.3074 6.7942 0.0 0
M  V30 17 C -5.7786 3.222 0.0 0
M  V30 18 C -6.1171 5.7902 0.0 0
M  V30 19 O 2.8484 2.3464 0.0 0
M  V30 20 O 5.2065 4.1675 0.0 0
M  V30 21 C 4.938 2.0779 0.0 0
M  V30 22 C 2.7783 7.0043 0.0 0
M  V30 23 O -4.8797 2.0546 0.0 0
M  V30 24 C -7.2728 3.0352 0.0 0
M  V30 25 C -7.6114 5.6034 0.0 0
M  V30 26 C 6.4089 2.288 0.0 0
M  V30 27 C 4.3543 0.7004 0.0 0
M  V30 28 C -5.4634 0.677 0.0 0
M  V30 29 C -8.1951 4.2259 0.0 0
M  V30 30 N -9.6893 4.0391 0.0 0
M  V30 31 C -10.6116 5.2299 0.0 0
M  V30 32 C -10.273 2.6616 0.0 0
M  V30 33 C -12.1058 5.0431 0.0 0
M  V30 34 C -11.7673 2.4748 0.0 0
M  V30 35 C -12.6895 3.6656 0.0 0
M  V30 36 N -14.1838 3.4788 0.0 0
M  V30 37 C -15.106 4.6695 0.0 0
M  V30 38 C -14.7675 2.1013 0.0 0
M  V30 39 C -16.6003 4.4827 0.0 0
M  V30 40 C -16.2618 1.9145 0.0 0
M  V30 41 N -17.184 3.1052 0.0 0
M  V30 42 C -18.6783 2.9184 0.0 0
M  V30 END ATOM
M  V30 BEGIN BOND
M  V30 1 1 1 2
M  V30 2 2 2 3
M  V30 3 1 2 4
M  V30 4 1 3 5
M  V30 5 1 3 6
M  V30 6 2 4 7
M  V30 7 2 5 8
M  V30 8 1 6 9
M  V30 9 1 8 10
M  V30 10 2 9 11
M  V30 11 1 9 12
M  V30 12 1 10 13
M  V30 13 1 11 14
M  V30 14 1 11 15
M  V30 15 2 12 16
M  V30 16 2 13 17
M  V30 17 1 13 18
M  V30 18 2 14 19
M  V30 19 2 14 20
M  V30 20 1 14 21
M  V30 21 2 15 22
M  V30 22 1 17 23
M  V30 23 1 17 24
M  V30 24 2 18 25
M  V30 25 1 21 26
M  V30 26 1 21 27
M  V30 27 1 23 28
M  V30 28 2 24 29
M  V30 29 1 29 30
M  V30 30 1 30 31
M  V30 31 1 30 32
M  V30 32 1 31 33
M  V30 33 1 32 34
M  V30 34 1 33 35
M  V30 35 1 35 36
M  V30 36 1 36 37
M  V30 37 1 36 38
M  V30 38 1 37 39
M  V30 39 1 38 40
M  V30 40 1 39 41
M  V30 41 1 41 42
M  V30 42 1 7 8
M  V30 43 1 16 22
M  V30 44 1 25 29
M  V30 45 1 34 35
M  V30 46 1 40 41
M  V30 END BOND
M  V30 END CTAB
M  END
>  <Compound ID>
67

>  <Name>
TAE684

>  <Uniprot>
P29323

>  <Target>
EPHB2

>  <Smiles>
COC1=CC(N2CCC(N3CCN(C)CC3)CC2)=CC=C1NC1=NC=C(Cl)C(NC2=CC=CC=C2S(=O)(=O)C(C)C)=N1

>  <Kd (nM)>
1500

>  <Assay (Kd)>
Kd was assessed by competition binding assays

>  <Ki (nM)>


>  <Assay (Ki)>


>  <IC50 (nM)>


>  <Assay (IC50)>


>  <EC50 (nM)>


>  <Assay (EC50)>


>  <Article DOI>
10.1038/nbt.1990

>  <Molecular Weight>
614.216

>  <Exact Mass>
613.26018682

>  <XLogP3>
5.67

>  <Heavy Atom Count>
42

>  <Ring Count>
5

>  <Hydrogen Bond Acceptor Count>
10

>  <Hydrogen Bond Donor Count>
2

>  <Rotatable Bond Count>
9

>  <Topological Polar Surface Area>
102.93

>  <Molecular Formula>
C30H40ClN7O3S

>  <InChI>
InChI=1S/C30H40ClN7O3S/c1-21(2)42(39,40)28-8-6-5-7-26(28)33-29-24(31)20-32-30(35-29)34-25-10-9-23(19-27(25)41-4)37-13-11-22(12-14-37)38-17-15-36(3)16-18-38/h5-10,19-22H,11-18H2,1-4H3,(H2,32,33,34,35)

>  <InChI Key>
QQWUGDVOUVUTOY-UHFFFAOYSA-N

>  <BindingDB>
50242742

>  <PubChem>
16038120

>  <ChEMBL>
CHEMBL509032

$$$$
Compound 171
Actelion Java MolfileCreator 2.0

  0  0  0  0  0  0              0 V3000
M  V30 BEGIN CTAB
M  V30 COUNTS 42 46 0 0 0
M  V30 BEGIN ATOM
M  V30 1 Cl 0.0 0.0 0.0 0
M  V30 2 C -0.9222 1.1907 0.0 0
M  V30 3 C -0.3618 2.5916 0.0 0
M  V30 4 C -2.4165 1.0039 0.0 0
M  V30 5 N -1.2841 3.7823 0.0 0
M  V30 6 N 1.109 2.8017 0.0 0
M  V30 7 N -3.3387 2.1947 0.0 0
M  V30 8 C -2.7783 3.5955 0.0 0
M  V30 9 C 1.6693 4.2026 0.0 0
M  V30 10 N -3.7006 4.7863 0.0 0
M  V30 11 C 3.1402 4.4127 0.0 0
M  V30 12 C 0.7471 5.3933 0.0 0
M  V30 13 C -5.1949 4.5995 0.0 0
M  V30 14 S 4.0391 3.2453 0.0 0
M  V30 15 C 3.7006 5.8136 0.0 0
M  V30 16 C 1.3074 6.7942 0.0 0
M  V30 17 C -5.7786 3.222 0.0 0
M  V30 18 C -6.1171 5.7902 0.0 0
M  V30 19 O 2.8484 2.3464 0.0 0
M  V30 20 O 5.2065 4.1675 0.0 0
M  V30 21 C 4.938 2.0779 0.0 0
M  V30 22 C 2.7783 7.0043 0.0 0
M  V30 23 O -4.8797 2.0546 0.0 0
M  V30 24 C -7.2728 3.0352 0.0 0
M  V30 25 C -7.6114 5.6034 0.0 0
M  V30 26 C 6.4089 2.288 0.0 0
M  V30 27 C 4.3543 0.7004 0.0 0
M  V30 28 C -5.4634 0.677 0.0 0
M  V30 29 C -8.1951 4.2259 0.0 0
M  V30 30 N -9.6893 4.0391 0.0 0
M  V30 31 C -10.6116 5.2299 0.0 0
M  V30 32 C -10.273 2.6616 0.0 0
M  V30 33 C -12.1058 5.0431 0.0 0
M  V30 34 C -11.7673 2.4748 0.0 0
M  V30 35 C -12.6895 3.6656 0.0 0
M  V30 36 N -14.1838 3.4788 0.0 0
M  V30 37 C -15.106 4.6695 0.0 0
M  V30 38 C -14.7675 2.1013 0.0 0
M  V30 39 C -16.6003 4.4827 0.0 0
M  V30 40 C -16.2618 1.9145 0.0 0
M  V30 41 N -17.184 3.1052 0.0 0
M  V30 42 C -18.6783 2.9184 0.0 0
M  V30 END ATOM
M  V30 BEGIN BOND
M  V30 1 1 1 2
M  V30 2 2 2 3
M  V30 3 1 2 4
M  V30 4 1 3 5
M  V30 5 1 3 6
M  V30 6 2 4 7
M  V30 7 2 5 8
M  V30 8 1 6 9
M  V30 9 1 8 10
M  V30 10 2 9 11
M  V30 11 1 9 12
M  V30 12 1 10 13
M  V30 13 1 11 14
M  V30 14 1 11 15
M  V30 15 2 12 16
M  V30 16 2 13 17
M  V30 17 1 13 18
M  V30 18 2 14 19
M  V30 19 2 14 20
M  V30 20 1 14 21
M  V30 21 2 15 22
M  V30 22 1 17 23
M  V30 23 1 17 24
M  V30 24 2 18 25
M  V30 25 1 21 26
M  V30 26 1 21 27
M  V30 27 1 23 28
M  V30 28 2 24 29
M  V30 29 1 29 30
M  V30 30 1 30 31
M  V30 31 1 30 32
M  V30 32 1 31 33
M  V30 33 1 32 34
M  V30 34 1 33 35
M  V30 35 1 35 36
M  V30 36 1 36 37
M  V30 37 1 36 38
M  V30 38 1 37 39
M  V30 39 1 38 40
M  V30 40 1 39 41
M  V30 41 1 41 42
M  V30 42 1 7 8
M  V30 43 1 16 22
M  V30 44 1 25 29
M  V30 45 1 34 35
M  V30 46 1 40 41
M  V30 END BOND
M  V30 END CTAB
M  END
>  <Compound ID>
67

>  <Name>
TAE684

>  <Uniprot>
P54760

>  <Target>
EPHB4

>  <Smiles>
COC1=CC(N2CCC(N3CCN(C)CC3)CC2)=CC=C1NC1=NC=C(Cl)C(NC2=CC=CC=C2S(=O)(=O)C(C)C)=N1

>  <Kd (nM)>
750

>  <Assay (Kd)>
Kd was assessed by competition binding assays

>  <Ki (nM)>


>  <Assay (Ki)>


>  <IC50 (nM)>


>  <Assay (IC50)>


>  <EC50 (nM)>


>  <Assay (EC50)>


>  <Article DOI>
10.1038/nbt.1990

>  <Molecular Weight>
614.216

>  <Exact Mass>
613.26018682

>  <XLogP3>
5.67

>  <Heavy Atom Count>
42

>  <Ring Count>
5

>  <Hydrogen Bond Acceptor Count>
10

>  <Hydrogen Bond Donor Count>
2

>  <Rotatable Bond Count>
9

>  <Topological Polar Surface Area>
102.93

>  <Molecular Formula>
C30H40ClN7O3S

>  <InChI>
InChI=1S/C30H40ClN7O3S/c1-21(2)42(39,40)28-8-6-5-7-26(28)33-29-24(31)20-32-30(35-29)34-25-10-9-23(19-27(25)41-4)37-13-11-22(12-14-37)38-17-15-36(3)16-18-38/h5-10,19-22H,11-18H2,1-4H3,(H2,32,33,34,35)

>  <InChI Key>
QQWUGDVOUVUTOY-UHFFFAOYSA-N

>  <BindingDB>
50242742

>  <PubChem>
16038120

>  <ChEMBL>
CHEMBL509032

$$$$
Compound 172
Actelion Java MolfileCreator 2.0

  0  0  0  0  0  0              0 V3000
M  V30 BEGIN CTAB
M  V30 COUNTS 42 46 0 0 0
M  V30 BEGIN ATOM
M  V30 1 Cl 0.0 0.0 0.0 0
M  V30 2 C -0.9222 1.1907 0.0 0
M  V30 3 C -0.3618 2.5916 0.0 0
M  V30 4 C -2.4165 1.0039 0.0 0
M  V30 5 N -1.2841 3.7823 0.0 0
M  V30 6 N 1.109 2.8017 0.0 0
M  V30 7 N -3.3387 2.1947 0.0 0
M  V30 8 C -2.7783 3.5955 0.0 0
M  V30 9 C 1.6693 4.2026 0.0 0
M  V30 10 N -3.7006 4.7863 0.0 0
M  V30 11 C 3.1402 4.4127 0.0 0
M  V30 12 C 0.7471 5.3933 0.0 0
M  V30 13 C -5.1949 4.5995 0.0 0
M  V30 14 S 4.0391 3.2453 0.0 0
M  V30 15 C 3.7006 5.8136 0.0 0
M  V30 16 C 1.3074 6.7942 0.0 0
M  V30 17 C -5.7786 3.222 0.0 0
M  V30 18 C -6.1171 5.7902 0.0 0
M  V30 19 O 2.8484 2.3464 0.0 0
M  V30 20 O 5.2065 4.1675 0.0 0
M  V30 21 C 4.938 2.0779 0.0 0
M  V30 22 C 2.7783 7.0043 0.0 0
M  V30 23 O -4.8797 2.0546 0.0 0
M  V30 24 C -7.2728 3.0352 0.0 0
M  V30 25 C -7.6114 5.6034 0.0 0
M  V30 26 C 6.4089 2.288 0.0 0
M  V30 27 C 4.3543 0.7004 0.0 0
M  V30 28 C -5.4634 0.677 0.0 0
M  V30 29 C -8.1951 4.2259 0.0 0
M  V30 30 N -9.6893 4.0391 0.0 0
M  V30 31 C -10.6116 5.2299 0.0 0
M  V30 32 C -10.273 2.6616 0.0 0
M  V30 33 C -12.1058 5.0431 0.0 0
M  V30 34 C -11.7673 2.4748 0.0 0
M  V30 35 C -12.6895 3.6656 0.0 0
M  V30 36 N -14.1838 3.4788 0.0 0
M  V30 37 C -15.106 4.6695 0.0 0
M  V30 38 C -14.7675 2.1013 0.0 0
M  V30 39 C -16.6003 4.4827 0.0 0
M  V30 40 C -16.2618 1.9145 0.0 0
M  V30 41 N -17.184 3.1052 0.0 0
M  V30 42 C -18.6783 2.9184 0.0 0
M  V30 END ATOM
M  V30 BEGIN BOND
M  V30 1 1 1 2
M  V30 2 2 2 3
M  V30 3 1 2 4
M  V30 4 1 3 5
M  V30 5 1 3 6
M  V30 6 2 4 7
M  V30 7 2 5 8
M  V30 8 1 6 9
M  V30 9 1 8 10
M  V30 10 2 9 11
M  V30 11 1 9 12
M  V30 12 1 10 13
M  V30 13 1 11 14
M  V30 14 1 11 15
M  V30 15 2 12 16
M  V30 16 2 13 17
M  V30 17 1 13 18
M  V30 18 2 14 19
M  V30 19 2 14 20
M  V30 20 1 14 21
M  V30 21 2 15 22
M  V30 22 1 17 23
M  V30 23 1 17 24
M  V30 24 2 18 25
M  V30 25 1 21 26
M  V30 26 1 21 27
M  V30 27 1 23 28
M  V30 28 2 24 29
M  V30 29 1 29 30
M  V30 30 1 30 31
M  V30 31 1 30 32
M  V30 32 1 31 33
M  V30 33 1 32 34
M  V30 34 1 33 35
M  V30 35 1 35 36
M  V30 36 1 36 37
M  V30 37 1 36 38
M  V30 38 1 37 39
M  V30 39 1 38 40
M  V30 40 1 39 41
M  V30 41 1 41 42
M  V30 42 1 7 8
M  V30 43 1 16 22
M  V30 44 1 25 29
M  V30 45 1 34 35
M  V30 46 1 40 41
M  V30 END BOND
M  V30 END CTAB
M  END
>  <Compound ID>
67

>  <Name>
TAE684

>  <Uniprot>
Q05397

>  <Target>
FAK

>  <Smiles>
COC1=CC(N2CCC(N3CCN(C)CC3)CC2)=CC=C1NC1=NC=C(Cl)C(NC2=CC=CC=C2S(=O)(=O)C(C)C)=N1

>  <Kd (nM)>
1.1

>  <Assay (Kd)>
Kd was assessed by competition binding assays

>  <Ki (nM)>


>  <Assay (Ki)>


>  <IC50 (nM)>


>  <Assay (IC50)>


>  <EC50 (nM)>


>  <Assay (EC50)>


>  <Article DOI>
10.1038/nbt.1990

>  <Molecular Weight>
614.216

>  <Exact Mass>
613.26018682

>  <XLogP3>
5.67

>  <Heavy Atom Count>
42

>  <Ring Count>
5

>  <Hydrogen Bond Acceptor Count>
10

>  <Hydrogen Bond Donor Count>
2

>  <Rotatable Bond Count>
9

>  <Topological Polar Surface Area>
102.93

>  <Molecular Formula>
C30H40ClN7O3S

>  <InChI>
InChI=1S/C30H40ClN7O3S/c1-21(2)42(39,40)28-8-6-5-7-26(28)33-29-24(31)20-32-30(35-29)34-25-10-9-23(19-27(25)41-4)37-13-11-22(12-14-37)38-17-15-36(3)16-18-38/h5-10,19-22H,11-18H2,1-4H3,(H2,32,33,34,35)

>  <InChI Key>
QQWUGDVOUVUTOY-UHFFFAOYSA-N

>  <BindingDB>
50242742

>  <PubChem>
16038120

>  <ChEMBL>
CHEMBL509032

$$$$
Compound 173
Actelion Java MolfileCreator 2.0

  0  0  0  0  0  0              0 V3000
M  V30 BEGIN CTAB
M  V30 COUNTS 42 46 0 0 0
M  V30 BEGIN ATOM
M  V30 1 Cl 0.0 0.0 0.0 0
M  V30 2 C -0.9222 1.1907 0.0 0
M  V30 3 C -0.3618 2.5916 0.0 0
M  V30 4 C -2.4165 1.0039 0.0 0
M  V30 5 N -1.2841 3.7823 0.0 0
M  V30 6 N 1.109 2.8017 0.0 0
M  V30 7 N -3.3387 2.1947 0.0 0
M  V30 8 C -2.7783 3.5955 0.0 0
M  V30 9 C 1.6693 4.2026 0.0 0
M  V30 10 N -3.7006 4.7863 0.0 0
M  V30 11 C 3.1402 4.4127 0.0 0
M  V30 12 C 0.7471 5.3933 0.0 0
M  V30 13 C -5.1949 4.5995 0.0 0
M  V30 14 S 4.0391 3.2453 0.0 0
M  V30 15 C 3.7006 5.8136 0.0 0
M  V30 16 C 1.3074 6.7942 0.0 0
M  V30 17 C -5.7786 3.222 0.0 0
M  V30 18 C -6.1171 5.7902 0.0 0
M  V30 19 O 2.8484 2.3464 0.0 0
M  V30 20 O 5.2065 4.1675 0.0 0
M  V30 21 C 4.938 2.0779 0.0 0
M  V30 22 C 2.7783 7.0043 0.0 0
M  V30 23 O -4.8797 2.0546 0.0 0
M  V30 24 C -7.2728 3.0352 0.0 0
M  V30 25 C -7.6114 5.6034 0.0 0
M  V30 26 C 6.4089 2.288 0.0 0
M  V30 27 C 4.3543 0.7004 0.0 0
M  V30 28 C -5.4634 0.677 0.0 0
M  V30 29 C -8.1951 4.2259 0.0 0
M  V30 30 N -9.6893 4.0391 0.0 0
M  V30 31 C -10.6116 5.2299 0.0 0
M  V30 32 C -10.273 2.6616 0.0 0
M  V30 33 C -12.1058 5.0431 0.0 0
M  V30 34 C -11.7673 2.4748 0.0 0
M  V30 35 C -12.6895 3.6656 0.0 0
M  V30 36 N -14.1838 3.4788 0.0 0
M  V30 37 C -15.106 4.6695 0.0 0
M  V30 38 C -14.7675 2.1013 0.0 0
M  V30 39 C -16.6003 4.4827 0.0 0
M  V30 40 C -16.2618 1.9145 0.0 0
M  V30 41 N -17.184 3.1052 0.0 0
M  V30 42 C -18.6783 2.9184 0.0 0
M  V30 END ATOM
M  V30 BEGIN BOND
M  V30 1 1 1 2
M  V30 2 2 2 3
M  V30 3 1 2 4
M  V30 4 1 3 5
M  V30 5 1 3 6
M  V30 6 2 4 7
M  V30 7 2 5 8
M  V30 8 1 6 9
M  V30 9 1 8 10
M  V30 10 2 9 11
M  V30 11 1 9 12
M  V30 12 1 10 13
M  V30 13 1 11 14
M  V30 14 1 11 15
M  V30 15 2 12 16
M  V30 16 2 13 17
M  V30 17 1 13 18
M  V30 18 2 14 19
M  V30 19 2 14 20
M  V30 20 1 14 21
M  V30 21 2 15 22
M  V30 22 1 17 23
M  V30 23 1 17 24
M  V30 24 2 18 25
M  V30 25 1 21 26
M  V30 26 1 21 27
M  V30 27 1 23 28
M  V30 28 2 24 29
M  V30 29 1 29 30
M  V30 30 1 30 31
M  V30 31 1 30 32
M  V30 32 1 31 33
M  V30 33 1 32 34
M  V30 34 1 33 35
M  V30 35 1 35 36
M  V30 36 1 36 37
M  V30 37 1 36 38
M  V30 38 1 37 39
M  V30 39 1 38 40
M  V30 40 1 39 41
M  V30 41 1 41 42
M  V30 42 1 7 8
M  V30 43 1 16 22
M  V30 44 1 25 29
M  V30 45 1 34 35
M  V30 46 1 40 41
M  V30 END BOND
M  V30 END CTAB
M  END
>  <Compound ID>
67

>  <Name>
TAE684

>  <Uniprot>
P16591

>  <Target>
FER

>  <Smiles>
COC1=CC(N2CCC(N3CCN(C)CC3)CC2)=CC=C1NC1=NC=C(Cl)C(NC2=CC=CC=C2S(=O)(=O)C(C)C)=N1

>  <Kd (nM)>
1.4

>  <Assay (Kd)>
Kd was assessed by competition binding assays

>  <Ki (nM)>


>  <Assay (Ki)>


>  <IC50 (nM)>


>  <Assay (IC50)>


>  <EC50 (nM)>


>  <Assay (EC50)>


>  <Article DOI>
10.1038/nbt.1990

>  <Molecular Weight>
614.216

>  <Exact Mass>
613.26018682

>  <XLogP3>
5.67

>  <Heavy Atom Count>
42

>  <Ring Count>
5

>  <Hydrogen Bond Acceptor Count>
10

>  <Hydrogen Bond Donor Count>
2

>  <Rotatable Bond Count>
9

>  <Topological Polar Surface Area>
102.93

>  <Molecular Formula>
C30H40ClN7O3S

>  <InChI>
InChI=1S/C30H40ClN7O3S/c1-21(2)42(39,40)28-8-6-5-7-26(28)33-29-24(31)20-32-30(35-29)34-25-10-9-23(19-27(25)41-4)37-13-11-22(12-14-37)38-17-15-36(3)16-18-38/h5-10,19-22H,11-18H2,1-4H3,(H2,32,33,34,35)

>  <InChI Key>
QQWUGDVOUVUTOY-UHFFFAOYSA-N

>  <BindingDB>
50242742

>  <PubChem>
16038120

>  <ChEMBL>
CHEMBL509032

$$$$
Compound 174
Actelion Java MolfileCreator 2.0

  0  0  0  0  0  0              0 V3000
M  V30 BEGIN CTAB
M  V30 COUNTS 42 46 0 0 0
M  V30 BEGIN ATOM
M  V30 1 Cl 0.0 0.0 0.0 0
M  V30 2 C -0.9222 1.1907 0.0 0
M  V30 3 C -0.3618 2.5916 0.0 0
M  V30 4 C -2.4165 1.0039 0.0 0
M  V30 5 N -1.2841 3.7823 0.0 0
M  V30 6 N 1.109 2.8017 0.0 0
M  V30 7 N -3.3387 2.1947 0.0 0
M  V30 8 C -2.7783 3.5955 0.0 0
M  V30 9 C 1.6693 4.2026 0.0 0
M  V30 10 N -3.7006 4.7863 0.0 0
M  V30 11 C 3.1402 4.4127 0.0 0
M  V30 12 C 0.7471 5.3933 0.0 0
M  V30 13 C -5.1949 4.5995 0.0 0
M  V30 14 S 4.0391 3.2453 0.0 0
M  V30 15 C 3.7006 5.8136 0.0 0
M  V30 16 C 1.3074 6.7942 0.0 0
M  V30 17 C -5.7786 3.222 0.0 0
M  V30 18 C -6.1171 5.7902 0.0 0
M  V30 19 O 2.8484 2.3464 0.0 0
M  V30 20 O 5.2065 4.1675 0.0 0
M  V30 21 C 4.938 2.0779 0.0 0
M  V30 22 C 2.7783 7.0043 0.0 0
M  V30 23 O -4.8797 2.0546 0.0 0
M  V30 24 C -7.2728 3.0352 0.0 0
M  V30 25 C -7.6114 5.6034 0.0 0
M  V30 26 C 6.4089 2.288 0.0 0
M  V30 27 C 4.3543 0.7004 0.0 0
M  V30 28 C -5.4634 0.677 0.0 0
M  V30 29 C -8.1951 4.2259 0.0 0
M  V30 30 N -9.6893 4.0391 0.0 0
M  V30 31 C -10.6116 5.2299 0.0 0
M  V30 32 C -10.273 2.6616 0.0 0
M  V30 33 C -12.1058 5.0431 0.0 0
M  V30 34 C -11.7673 2.4748 0.0 0
M  V30 35 C -12.6895 3.6656 0.0 0
M  V30 36 N -14.1838 3.4788 0.0 0
M  V30 37 C -15.106 4.6695 0.0 0
M  V30 38 C -14.7675 2.1013 0.0 0
M  V30 39 C -16.6003 4.4827 0.0 0
M  V30 40 C -16.2618 1.9145 0.0 0
M  V30 41 N -17.184 3.1052 0.0 0
M  V30 42 C -18.6783 2.9184 0.0 0
M  V30 END ATOM
M  V30 BEGIN BOND
M  V30 1 1 1 2
M  V30 2 2 2 3
M  V30 3 1 2 4
M  V30 4 1 3 5
M  V30 5 1 3 6
M  V30 6 2 4 7
M  V30 7 2 5 8
M  V30 8 1 6 9
M  V30 9 1 8 10
M  V30 10 2 9 11
M  V30 11 1 9 12
M  V30 12 1 10 13
M  V30 13 1 11 14
M  V30 14 1 11 15
M  V30 15 2 12 16
M  V30 16 2 13 17
M  V30 17 1 13 18
M  V30 18 2 14 19
M  V30 19 2 14 20
M  V30 20 1 14 21
M  V30 21 2 15 22
M  V30 22 1 17 23
M  V30 23 1 17 24
M  V30 24 2 18 25
M  V30 25 1 21 26
M  V30 26 1 21 27
M  V30 27 1 23 28
M  V30 28 2 24 29
M  V30 29 1 29 30
M  V30 30 1 30 31
M  V30 31 1 30 32
M  V30 32 1 31 33
M  V30 33 1 32 34
M  V30 34 1 33 35
M  V30 35 1 35 36
M  V30 36 1 36 37
M  V30 37 1 36 38
M  V30 38 1 37 39
M  V30 39 1 38 40
M  V30 40 1 39 41
M  V30 41 1 41 42
M  V30 42 1 7 8
M  V30 43 1 16 22
M  V30 44 1 25 29
M  V30 45 1 34 35
M  V30 46 1 40 41
M  V30 END BOND
M  V30 END CTAB
M  END
>  <Compound ID>
67

>  <Name>
TAE684

>  <Uniprot>
P11362

>  <Target>
FGFR1

>  <Smiles>
COC1=CC(N2CCC(N3CCN(C)CC3)CC2)=CC=C1NC1=NC=C(Cl)C(NC2=CC=CC=C2S(=O)(=O)C(C)C)=N1

>  <Kd (nM)>
47

>  <Assay (Kd)>
Kd was assessed by competition binding assays

>  <Ki (nM)>


>  <Assay (Ki)>


>  <IC50 (nM)>


>  <Assay (IC50)>


>  <EC50 (nM)>


>  <Assay (EC50)>


>  <Article DOI>
10.1038/nbt.1990

>  <Molecular Weight>
614.216

>  <Exact Mass>
613.26018682

>  <XLogP3>
5.67

>  <Heavy Atom Count>
42

>  <Ring Count>
5

>  <Hydrogen Bond Acceptor Count>
10

>  <Hydrogen Bond Donor Count>
2

>  <Rotatable Bond Count>
9

>  <Topological Polar Surface Area>
102.93

>  <Molecular Formula>
C30H40ClN7O3S

>  <InChI>
InChI=1S/C30H40ClN7O3S/c1-21(2)42(39,40)28-8-6-5-7-26(28)33-29-24(31)20-32-30(35-29)34-25-10-9-23(19-27(25)41-4)37-13-11-22(12-14-37)38-17-15-36(3)16-18-38/h5-10,19-22H,11-18H2,1-4H3,(H2,32,33,34,35)

>  <InChI Key>
QQWUGDVOUVUTOY-UHFFFAOYSA-N

>  <BindingDB>
50242742

>  <PubChem>
16038120

>  <ChEMBL>
CHEMBL509032

$$$$
Compound 175
Actelion Java MolfileCreator 2.0

  0  0  0  0  0  0              0 V3000
M  V30 BEGIN CTAB
M  V30 COUNTS 42 46 0 0 0
M  V30 BEGIN ATOM
M  V30 1 Cl 0.0 0.0 0.0 0
M  V30 2 C -0.9222 1.1907 0.0 0
M  V30 3 C -0.3618 2.5916 0.0 0
M  V30 4 C -2.4165 1.0039 0.0 0
M  V30 5 N -1.2841 3.7823 0.0 0
M  V30 6 N 1.109 2.8017 0.0 0
M  V30 7 N -3.3387 2.1947 0.0 0
M  V30 8 C -2.7783 3.5955 0.0 0
M  V30 9 C 1.6693 4.2026 0.0 0
M  V30 10 N -3.7006 4.7863 0.0 0
M  V30 11 C 3.1402 4.4127 0.0 0
M  V30 12 C 0.7471 5.3933 0.0 0
M  V30 13 C -5.1949 4.5995 0.0 0
M  V30 14 S 4.0391 3.2453 0.0 0
M  V30 15 C 3.7006 5.8136 0.0 0
M  V30 16 C 1.3074 6.7942 0.0 0
M  V30 17 C -5.7786 3.222 0.0 0
M  V30 18 C -6.1171 5.7902 0.0 0
M  V30 19 O 2.8484 2.3464 0.0 0
M  V30 20 O 5.2065 4.1675 0.0 0
M  V30 21 C 4.938 2.0779 0.0 0
M  V30 22 C 2.7783 7.0043 0.0 0
M  V30 23 O -4.8797 2.0546 0.0 0
M  V30 24 C -7.2728 3.0352 0.0 0
M  V30 25 C -7.6114 5.6034 0.0 0
M  V30 26 C 6.4089 2.288 0.0 0
M  V30 27 C 4.3543 0.7004 0.0 0
M  V30 28 C -5.4634 0.677 0.0 0
M  V30 29 C -8.1951 4.2259 0.0 0
M  V30 30 N -9.6893 4.0391 0.0 0
M  V30 31 C -10.6116 5.2299 0.0 0
M  V30 32 C -10.273 2.6616 0.0 0
M  V30 33 C -12.1058 5.0431 0.0 0
M  V30 34 C -11.7673 2.4748 0.0 0
M  V30 35 C -12.6895 3.6656 0.0 0
M  V30 36 N -14.1838 3.4788 0.0 0
M  V30 37 C -15.106 4.6695 0.0 0
M  V30 38 C -14.7675 2.1013 0.0 0
M  V30 39 C -16.6003 4.4827 0.0 0
M  V30 40 C -16.2618 1.9145 0.0 0
M  V30 41 N -17.184 3.1052 0.0 0
M  V30 42 C -18.6783 2.9184 0.0 0
M  V30 END ATOM
M  V30 BEGIN BOND
M  V30 1 1 1 2
M  V30 2 2 2 3
M  V30 3 1 2 4
M  V30 4 1 3 5
M  V30 5 1 3 6
M  V30 6 2 4 7
M  V30 7 2 5 8
M  V30 8 1 6 9
M  V30 9 1 8 10
M  V30 10 2 9 11
M  V30 11 1 9 12
M  V30 12 1 10 13
M  V30 13 1 11 14
M  V30 14 1 11 15
M  V30 15 2 12 16
M  V30 16 2 13 17
M  V30 17 1 13 18
M  V30 18 2 14 19
M  V30 19 2 14 20
M  V30 20 1 14 21
M  V30 21 2 15 22
M  V30 22 1 17 23
M  V30 23 1 17 24
M  V30 24 2 18 25
M  V30 25 1 21 26
M  V30 26 1 21 27
M  V30 27 1 23 28
M  V30 28 2 24 29
M  V30 29 1 29 30
M  V30 30 1 30 31
M  V30 31 1 30 32
M  V30 32 1 31 33
M  V30 33 1 32 34
M  V30 34 1 33 35
M  V30 35 1 35 36
M  V30 36 1 36 37
M  V30 37 1 36 38
M  V30 38 1 37 39
M  V30 39 1 38 40
M  V30 40 1 39 41
M  V30 41 1 41 42
M  V30 42 1 7 8
M  V30 43 1 16 22
M  V30 44 1 25 29
M  V30 45 1 34 35
M  V30 46 1 40 41
M  V30 END BOND
M  V30 END CTAB
M  END
>  <Compound ID>
67

>  <Name>
TAE684

>  <Uniprot>
P17948

>  <Target>
FLT1

>  <Smiles>
COC1=CC(N2CCC(N3CCN(C)CC3)CC2)=CC=C1NC1=NC=C(Cl)C(NC2=CC=CC=C2S(=O)(=O)C(C)C)=N1

>  <Kd (nM)>
550

>  <Assay (Kd)>
Kd was assessed by competition binding assays

>  <Ki (nM)>


>  <Assay (Ki)>


>  <IC50 (nM)>


>  <Assay (IC50)>


>  <EC50 (nM)>


>  <Assay (EC50)>


>  <Article DOI>
10.1038/nbt.1990

>  <Molecular Weight>
614.216

>  <Exact Mass>
613.26018682

>  <XLogP3>
5.67

>  <Heavy Atom Count>
42

>  <Ring Count>
5

>  <Hydrogen Bond Acceptor Count>
10

>  <Hydrogen Bond Donor Count>
2

>  <Rotatable Bond Count>
9

>  <Topological Polar Surface Area>
102.93

>  <Molecular Formula>
C30H40ClN7O3S

>  <InChI>
InChI=1S/C30H40ClN7O3S/c1-21(2)42(39,40)28-8-6-5-7-26(28)33-29-24(31)20-32-30(35-29)34-25-10-9-23(19-27(25)41-4)37-13-11-22(12-14-37)38-17-15-36(3)16-18-38/h5-10,19-22H,11-18H2,1-4H3,(H2,32,33,34,35)

>  <InChI Key>
QQWUGDVOUVUTOY-UHFFFAOYSA-N

>  <BindingDB>
50242742

>  <PubChem>
16038120

>  <ChEMBL>
CHEMBL509032

$$$$
Compound 176
Actelion Java MolfileCreator 2.0

  0  0  0  0  0  0              0 V3000
M  V30 BEGIN CTAB
M  V30 COUNTS 42 46 0 0 0
M  V30 BEGIN ATOM
M  V30 1 Cl 0.0 0.0 0.0 0
M  V30 2 C -0.9222 1.1907 0.0 0
M  V30 3 C -0.3618 2.5916 0.0 0
M  V30 4 C -2.4165 1.0039 0.0 0
M  V30 5 N -1.2841 3.7823 0.0 0
M  V30 6 N 1.109 2.8017 0.0 0
M  V30 7 N -3.3387 2.1947 0.0 0
M  V30 8 C -2.7783 3.5955 0.0 0
M  V30 9 C 1.6693 4.2026 0.0 0
M  V30 10 N -3.7006 4.7863 0.0 0
M  V30 11 C 3.1402 4.4127 0.0 0
M  V30 12 C 0.7471 5.3933 0.0 0
M  V30 13 C -5.1949 4.5995 0.0 0
M  V30 14 S 4.0391 3.2453 0.0 0
M  V30 15 C 3.7006 5.8136 0.0 0
M  V30 16 C 1.3074 6.7942 0.0 0
M  V30 17 C -5.7786 3.222 0.0 0
M  V30 18 C -6.1171 5.7902 0.0 0
M  V30 19 O 2.8484 2.3464 0.0 0
M  V30 20 O 5.2065 4.1675 0.0 0
M  V30 21 C 4.938 2.0779 0.0 0
M  V30 22 C 2.7783 7.0043 0.0 0
M  V30 23 O -4.8797 2.0546 0.0 0
M  V30 24 C -7.2728 3.0352 0.0 0
M  V30 25 C -7.6114 5.6034 0.0 0
M  V30 26 C 6.4089 2.288 0.0 0
M  V30 27 C 4.3543 0.7004 0.0 0
M  V30 28 C -5.4634 0.677 0.0 0
M  V30 29 C -8.1951 4.2259 0.0 0
M  V30 30 N -9.6893 4.0391 0.0 0
M  V30 31 C -10.6116 5.2299 0.0 0
M  V30 32 C -10.273 2.6616 0.0 0
M  V30 33 C -12.1058 5.0431 0.0 0
M  V30 34 C -11.7673 2.4748 0.0 0
M  V30 35 C -12.6895 3.6656 0.0 0
M  V30 36 N -14.1838 3.4788 0.0 0
M  V30 37 C -15.106 4.6695 0.0 0
M  V30 38 C -14.7675 2.1013 0.0 0
M  V30 39 C -16.6003 4.4827 0.0 0
M  V30 40 C -16.2618 1.9145 0.0 0
M  V30 41 N -17.184 3.1052 0.0 0
M  V30 42 C -18.6783 2.9184 0.0 0
M  V30 END ATOM
M  V30 BEGIN BOND
M  V30 1 1 1 2
M  V30 2 2 2 3
M  V30 3 1 2 4
M  V30 4 1 3 5
M  V30 5 1 3 6
M  V30 6 2 4 7
M  V30 7 2 5 8
M  V30 8 1 6 9
M  V30 9 1 8 10
M  V30 10 2 9 11
M  V30 11 1 9 12
M  V30 12 1 10 13
M  V30 13 1 11 14
M  V30 14 1 11 15
M  V30 15 2 12 16
M  V30 16 2 13 17
M  V30 17 1 13 18
M  V30 18 2 14 19
M  V30 19 2 14 20
M  V30 20 1 14 21
M  V30 21 2 15 22
M  V30 22 1 17 23
M  V30 23 1 17 24
M  V30 24 2 18 25
M  V30 25 1 21 26
M  V30 26 1 21 27
M  V30 27 1 23 28
M  V30 28 2 24 29
M  V30 29 1 29 30
M  V30 30 1 30 31
M  V30 31 1 30 32
M  V30 32 1 31 33
M  V30 33 1 32 34
M  V30 34 1 33 35
M  V30 35 1 35 36
M  V30 36 1 36 37
M  V30 37 1 36 38
M  V30 38 1 37 39
M  V30 39 1 38 40
M  V30 40 1 39 41
M  V30 41 1 41 42
M  V30 42 1 7 8
M  V30 43 1 16 22
M  V30 44 1 25 29
M  V30 45 1 34 35
M  V30 46 1 40 41
M  V30 END BOND
M  V30 END CTAB
M  END
>  <Compound ID>
67

>  <Name>
TAE684

>  <Uniprot>
P06241

>  <Target>
FYN

>  <Smiles>
COC1=CC(N2CCC(N3CCN(C)CC3)CC2)=CC=C1NC1=NC=C(Cl)C(NC2=CC=CC=C2S(=O)(=O)C(C)C)=N1

>  <Kd (nM)>
1400

>  <Assay (Kd)>
Kd was assessed by competition binding assays

>  <Ki (nM)>


>  <Assay (Ki)>


>  <IC50 (nM)>


>  <Assay (IC50)>


>  <EC50 (nM)>


>  <Assay (EC50)>


>  <Article DOI>
10.1038/nbt.1990

>  <Molecular Weight>
614.216

>  <Exact Mass>
613.26018682

>  <XLogP3>
5.67

>  <Heavy Atom Count>
42

>  <Ring Count>
5

>  <Hydrogen Bond Acceptor Count>
10

>  <Hydrogen Bond Donor Count>
2

>  <Rotatable Bond Count>
9

>  <Topological Polar Surface Area>
102.93

>  <Molecular Formula>
C30H40ClN7O3S

>  <InChI>
InChI=1S/C30H40ClN7O3S/c1-21(2)42(39,40)28-8-6-5-7-26(28)33-29-24(31)20-32-30(35-29)34-25-10-9-23(19-27(25)41-4)37-13-11-22(12-14-37)38-17-15-36(3)16-18-38/h5-10,19-22H,11-18H2,1-4H3,(H2,32,33,34,35)

>  <InChI Key>
QQWUGDVOUVUTOY-UHFFFAOYSA-N

>  <BindingDB>
50242742

>  <PubChem>
16038120

>  <ChEMBL>
CHEMBL509032

$$$$
Compound 177
Actelion Java MolfileCreator 2.0

  0  0  0  0  0  0              0 V3000
M  V30 BEGIN CTAB
M  V30 COUNTS 42 46 0 0 0
M  V30 BEGIN ATOM
M  V30 1 Cl 0.0 0.0 0.0 0
M  V30 2 C -0.9222 1.1907 0.0 0
M  V30 3 C -0.3618 2.5916 0.0 0
M  V30 4 C -2.4165 1.0039 0.0 0
M  V30 5 N -1.2841 3.7823 0.0 0
M  V30 6 N 1.109 2.8017 0.0 0
M  V30 7 N -3.3387 2.1947 0.0 0
M  V30 8 C -2.7783 3.5955 0.0 0
M  V30 9 C 1.6693 4.2026 0.0 0
M  V30 10 N -3.7006 4.7863 0.0 0
M  V30 11 C 3.1402 4.4127 0.0 0
M  V30 12 C 0.7471 5.3933 0.0 0
M  V30 13 C -5.1949 4.5995 0.0 0
M  V30 14 S 4.0391 3.2453 0.0 0
M  V30 15 C 3.7006 5.8136 0.0 0
M  V30 16 C 1.3074 6.7942 0.0 0
M  V30 17 C -5.7786 3.222 0.0 0
M  V30 18 C -6.1171 5.7902 0.0 0
M  V30 19 O 2.8484 2.3464 0.0 0
M  V30 20 O 5.2065 4.1675 0.0 0
M  V30 21 C 4.938 2.0779 0.0 0
M  V30 22 C 2.7783 7.0043 0.0 0
M  V30 23 O -4.8797 2.0546 0.0 0
M  V30 24 C -7.2728 3.0352 0.0 0
M  V30 25 C -7.6114 5.6034 0.0 0
M  V30 26 C 6.4089 2.288 0.0 0
M  V30 27 C 4.3543 0.7004 0.0 0
M  V30 28 C -5.4634 0.677 0.0 0
M  V30 29 C -8.1951 4.2259 0.0 0
M  V30 30 N -9.6893 4.0391 0.0 0
M  V30 31 C -10.6116 5.2299 0.0 0
M  V30 32 C -10.273 2.6616 0.0 0
M  V30 33 C -12.1058 5.0431 0.0 0
M  V30 34 C -11.7673 2.4748 0.0 0
M  V30 35 C -12.6895 3.6656 0.0 0
M  V30 36 N -14.1838 3.4788 0.0 0
M  V30 37 C -15.106 4.6695 0.0 0
M  V30 38 C -14.7675 2.1013 0.0 0
M  V30 39 C -16.6003 4.4827 0.0 0
M  V30 40 C -16.2618 1.9145 0.0 0
M  V30 41 N -17.184 3.1052 0.0 0
M  V30 42 C -18.6783 2.9184 0.0 0
M  V30 END ATOM
M  V30 BEGIN BOND
M  V30 1 1 1 2
M  V30 2 2 2 3
M  V30 3 1 2 4
M  V30 4 1 3 5
M  V30 5 1 3 6
M  V30 6 2 4 7
M  V30 7 2 5 8
M  V30 8 1 6 9
M  V30 9 1 8 10
M  V30 10 2 9 11
M  V30 11 1 9 12
M  V30 12 1 10 13
M  V30 13 1 11 14
M  V30 14 1 11 15
M  V30 15 2 12 16
M  V30 16 2 13 17
M  V30 17 1 13 18
M  V30 18 2 14 19
M  V30 19 2 14 20
M  V30 20 1 14 21
M  V30 21 2 15 22
M  V30 22 1 17 23
M  V30 23 1 17 24
M  V30 24 2 18 25
M  V30 25 1 21 26
M  V30 26 1 21 27
M  V30 27 1 23 28
M  V30 28 2 24 29
M  V30 29 1 29 30
M  V30 30 1 30 31
M  V30 31 1 30 32
M  V30 32 1 31 33
M  V30 33 1 32 34
M  V30 34 1 33 35
M  V30 35 1 35 36
M  V30 36 1 36 37
M  V30 37 1 36 38
M  V30 38 1 37 39
M  V30 39 1 38 40
M  V30 40 1 39 41
M  V30 41 1 41 42
M  V30 42 1 7 8
M  V30 43 1 16 22
M  V30 44 1 25 29
M  V30 45 1 34 35
M  V30 46 1 40 41
M  V30 END BOND
M  V30 END CTAB
M  END
>  <Compound ID>
67

>  <Name>
TAE684

>  <Uniprot>
O14976

>  <Target>
GAK

>  <Smiles>
COC1=CC(N2CCC(N3CCN(C)CC3)CC2)=CC=C1NC1=NC=C(Cl)C(NC2=CC=CC=C2S(=O)(=O)C(C)C)=N1

>  <Kd (nM)>
5.3

>  <Assay (Kd)>
Kd was assessed by competition binding assays

>  <Ki (nM)>


>  <Assay (Ki)>


>  <IC50 (nM)>


>  <Assay (IC50)>


>  <EC50 (nM)>


>  <Assay (EC50)>


>  <Article DOI>
10.1038/nbt.1990

>  <Molecular Weight>
614.216

>  <Exact Mass>
613.26018682

>  <XLogP3>
5.67

>  <Heavy Atom Count>
42

>  <Ring Count>
5

>  <Hydrogen Bond Acceptor Count>
10

>  <Hydrogen Bond Donor Count>
2

>  <Rotatable Bond Count>
9

>  <Topological Polar Surface Area>
102.93

>  <Molecular Formula>
C30H40ClN7O3S

>  <InChI>
InChI=1S/C30H40ClN7O3S/c1-21(2)42(39,40)28-8-6-5-7-26(28)33-29-24(31)20-32-30(35-29)34-25-10-9-23(19-27(25)41-4)37-13-11-22(12-14-37)38-17-15-36(3)16-18-38/h5-10,19-22H,11-18H2,1-4H3,(H2,32,33,34,35)

>  <InChI Key>
QQWUGDVOUVUTOY-UHFFFAOYSA-N

>  <BindingDB>
50242742

>  <PubChem>
16038120

>  <ChEMBL>
CHEMBL509032

$$$$
Compound 178
Actelion Java MolfileCreator 2.0

  0  0  0  0  0  0              0 V3000
M  V30 BEGIN CTAB
M  V30 COUNTS 42 46 0 0 0
M  V30 BEGIN ATOM
M  V30 1 Cl 0.0 0.0 0.0 0
M  V30 2 C -0.9222 1.1907 0.0 0
M  V30 3 C -0.3618 2.5916 0.0 0
M  V30 4 C -2.4165 1.0039 0.0 0
M  V30 5 N -1.2841 3.7823 0.0 0
M  V30 6 N 1.109 2.8017 0.0 0
M  V30 7 N -3.3387 2.1947 0.0 0
M  V30 8 C -2.7783 3.5955 0.0 0
M  V30 9 C 1.6693 4.2026 0.0 0
M  V30 10 N -3.7006 4.7863 0.0 0
M  V30 11 C 3.1402 4.4127 0.0 0
M  V30 12 C 0.7471 5.3933 0.0 0
M  V30 13 C -5.1949 4.5995 0.0 0
M  V30 14 S 4.0391 3.2453 0.0 0
M  V30 15 C 3.7006 5.8136 0.0 0
M  V30 16 C 1.3074 6.7942 0.0 0
M  V30 17 C -5.7786 3.222 0.0 0
M  V30 18 C -6.1171 5.7902 0.0 0
M  V30 19 O 2.8484 2.3464 0.0 0
M  V30 20 O 5.2065 4.1675 0.0 0
M  V30 21 C 4.938 2.0779 0.0 0
M  V30 22 C 2.7783 7.0043 0.0 0
M  V30 23 O -4.8797 2.0546 0.0 0
M  V30 24 C -7.2728 3.0352 0.0 0
M  V30 25 C -7.6114 5.6034 0.0 0
M  V30 26 C 6.4089 2.288 0.0 0
M  V30 27 C 4.3543 0.7004 0.0 0
M  V30 28 C -5.4634 0.677 0.0 0
M  V30 29 C -8.1951 4.2259 0.0 0
M  V30 30 N -9.6893 4.0391 0.0 0
M  V30 31 C -10.6116 5.2299 0.0 0
M  V30 32 C -10.273 2.6616 0.0 0
M  V30 33 C -12.1058 5.0431 0.0 0
M  V30 34 C -11.7673 2.4748 0.0 0
M  V30 35 C -12.6895 3.6656 0.0 0
M  V30 36 N -14.1838 3.4788 0.0 0
M  V30 37 C -15.106 4.6695 0.0 0
M  V30 38 C -14.7675 2.1013 0.0 0
M  V30 39 C -16.6003 4.4827 0.0 0
M  V30 40 C -16.2618 1.9145 0.0 0
M  V30 41 N -17.184 3.1052 0.0 0
M  V30 42 C -18.6783 2.9184 0.0 0
M  V30 END ATOM
M  V30 BEGIN BOND
M  V30 1 1 1 2
M  V30 2 2 2 3
M  V30 3 1 2 4
M  V30 4 1 3 5
M  V30 5 1 3 6
M  V30 6 2 4 7
M  V30 7 2 5 8
M  V30 8 1 6 9
M  V30 9 1 8 10
M  V30 10 2 9 11
M  V30 11 1 9 12
M  V30 12 1 10 13
M  V30 13 1 11 14
M  V30 14 1 11 15
M  V30 15 2 12 16
M  V30 16 2 13 17
M  V30 17 1 13 18
M  V30 18 2 14 19
M  V30 19 2 14 20
M  V30 20 1 14 21
M  V30 21 2 15 22
M  V30 22 1 17 23
M  V30 23 1 17 24
M  V30 24 2 18 25
M  V30 25 1 21 26
M  V30 26 1 21 27
M  V30 27 1 23 28
M  V30 28 2 24 29
M  V30 29 1 29 30
M  V30 30 1 30 31
M  V30 31 1 30 32
M  V30 32 1 31 33
M  V30 33 1 32 34
M  V30 34 1 33 35
M  V30 35 1 35 36
M  V30 36 1 36 37
M  V30 37 1 36 38
M  V30 38 1 37 39
M  V30 39 1 38 40
M  V30 40 1 39 41
M  V30 41 1 41 42
M  V30 42 1 7 8
M  V30 43 1 16 22
M  V30 44 1 25 29
M  V30 45 1 34 35
M  V30 46 1 40 41
M  V30 END BOND
M  V30 END CTAB
M  END
>  <Compound ID>
67

>  <Name>
TAE684

>  <Uniprot>
Q8TF76

>  <Target>
HASPIN

>  <Smiles>
COC1=CC(N2CCC(N3CCN(C)CC3)CC2)=CC=C1NC1=NC=C(Cl)C(NC2=CC=CC=C2S(=O)(=O)C(C)C)=N1

>  <Kd (nM)>


>  <Assay (Kd)>


>  <Ki (nM)>


>  <Assay (Ki)>


>  <IC50 (nM)>


>  <Assay (IC50)>


>  <EC50 (nM)>


>  <Assay (EC50)>


>  <Article DOI>
10.1016/j.cell.2020.10.038

>  <Molecular Weight>
614.216

>  <Exact Mass>
613.26018682

>  <XLogP3>
5.67

>  <Heavy Atom Count>
42

>  <Ring Count>
5

>  <Hydrogen Bond Acceptor Count>
10

>  <Hydrogen Bond Donor Count>
2

>  <Rotatable Bond Count>
9

>  <Topological Polar Surface Area>
102.93

>  <Molecular Formula>
C30H40ClN7O3S

>  <InChI>
InChI=1S/C30H40ClN7O3S/c1-21(2)42(39,40)28-8-6-5-7-26(28)33-29-24(31)20-32-30(35-29)34-25-10-9-23(19-27(25)41-4)37-13-11-22(12-14-37)38-17-15-36(3)16-18-38/h5-10,19-22H,11-18H2,1-4H3,(H2,32,33,34,35)

>  <InChI Key>
QQWUGDVOUVUTOY-UHFFFAOYSA-N

>  <BindingDB>
50242742

>  <PubChem>
16038120

>  <ChEMBL>
CHEMBL509032

$$$$
Compound 179
Actelion Java MolfileCreator 2.0

  0  0  0  0  0  0              0 V3000
M  V30 BEGIN CTAB
M  V30 COUNTS 42 46 0 0 0
M  V30 BEGIN ATOM
M  V30 1 Cl 0.0 0.0 0.0 0
M  V30 2 C -0.9222 1.1907 0.0 0
M  V30 3 C -0.3618 2.5916 0.0 0
M  V30 4 C -2.4165 1.0039 0.0 0
M  V30 5 N -1.2841 3.7823 0.0 0
M  V30 6 N 1.109 2.8017 0.0 0
M  V30 7 N -3.3387 2.1947 0.0 0
M  V30 8 C -2.7783 3.5955 0.0 0
M  V30 9 C 1.6693 4.2026 0.0 0
M  V30 10 N -3.7006 4.7863 0.0 0
M  V30 11 C 3.1402 4.4127 0.0 0
M  V30 12 C 0.7471 5.3933 0.0 0
M  V30 13 C -5.1949 4.5995 0.0 0
M  V30 14 S 4.0391 3.2453 0.0 0
M  V30 15 C 3.7006 5.8136 0.0 0
M  V30 16 C 1.3074 6.7942 0.0 0
M  V30 17 C -5.7786 3.222 0.0 0
M  V30 18 C -6.1171 5.7902 0.0 0
M  V30 19 O 2.8484 2.3464 0.0 0
M  V30 20 O 5.2065 4.1675 0.0 0
M  V30 21 C 4.938 2.0779 0.0 0
M  V30 22 C 2.7783 7.0043 0.0 0
M  V30 23 O -4.8797 2.0546 0.0 0
M  V30 24 C -7.2728 3.0352 0.0 0
M  V30 25 C -7.6114 5.6034 0.0 0
M  V30 26 C 6.4089 2.288 0.0 0
M  V30 27 C 4.3543 0.7004 0.0 0
M  V30 28 C -5.4634 0.677 0.0 0
M  V30 29 C -8.1951 4.2259 0.0 0
M  V30 30 N -9.6893 4.0391 0.0 0
M  V30 31 C -10.6116 5.2299 0.0 0
M  V30 32 C -10.273 2.6616 0.0 0
M  V30 33 C -12.1058 5.0431 0.0 0
M  V30 34 C -11.7673 2.4748 0.0 0
M  V30 35 C -12.6895 3.6656 0.0 0
M  V30 36 N -14.1838 3.4788 0.0 0
M  V30 37 C -15.106 4.6695 0.0 0
M  V30 38 C -14.7675 2.1013 0.0 0
M  V30 39 C -16.6003 4.4827 0.0 0
M  V30 40 C -16.2618 1.9145 0.0 0
M  V30 41 N -17.184 3.1052 0.0 0
M  V30 42 C -18.6783 2.9184 0.0 0
M  V30 END ATOM
M  V30 BEGIN BOND
M  V30 1 1 1 2
M  V30 2 2 2 3
M  V30 3 1 2 4
M  V30 4 1 3 5
M  V30 5 1 3 6
M  V30 6 2 4 7
M  V30 7 2 5 8
M  V30 8 1 6 9
M  V30 9 1 8 10
M  V30 10 2 9 11
M  V30 11 1 9 12
M  V30 12 1 10 13
M  V30 13 1 11 14
M  V30 14 1 11 15
M  V30 15 2 12 16
M  V30 16 2 13 17
M  V30 17 1 13 18
M  V30 18 2 14 19
M  V30 19 2 14 20
M  V30 20 1 14 21
M  V30 21 2 15 22
M  V30 22 1 17 23
M  V30 23 1 17 24
M  V30 24 2 18 25
M  V30 25 1 21 26
M  V30 26 1 21 27
M  V30 27 1 23 28
M  V30 28 2 24 29
M  V30 29 1 29 30
M  V30 30 1 30 31
M  V30 31 1 30 32
M  V30 32 1 31 33
M  V30 33 1 32 34
M  V30 34 1 33 35
M  V30 35 1 35 36
M  V30 36 1 36 37
M  V30 37 1 36 38
M  V30 38 1 37 39
M  V30 39 1 38 40
M  V30 40 1 39 41
M  V30 41 1 41 42
M  V30 42 1 7 8
M  V30 43 1 16 22
M  V30 44 1 25 29
M  V30 45 1 34 35
M  V30 46 1 40 41
M  V30 END BOND
M  V30 END CTAB
M  END
>  <Compound ID>
67

>  <Name>
TAE684

>  <Uniprot>
Q86Z02

>  <Target>
HIPK1

>  <Smiles>
COC1=CC(N2CCC(N3CCN(C)CC3)CC2)=CC=C1NC1=NC=C(Cl)C(NC2=CC=CC=C2S(=O)(=O)C(C)C)=N1

>  <Kd (nM)>
4400

>  <Assay (Kd)>
Kd was assessed by competition binding assays

>  <Ki (nM)>


>  <Assay (Ki)>


>  <IC50 (nM)>


>  <Assay (IC50)>


>  <EC50 (nM)>


>  <Assay (EC50)>


>  <Article DOI>
10.1038/nbt.1990

>  <Molecular Weight>
614.216

>  <Exact Mass>
613.26018682

>  <XLogP3>
5.67

>  <Heavy Atom Count>
42

>  <Ring Count>
5

>  <Hydrogen Bond Acceptor Count>
10

>  <Hydrogen Bond Donor Count>
2

>  <Rotatable Bond Count>
9

>  <Topological Polar Surface Area>
102.93

>  <Molecular Formula>
C30H40ClN7O3S

>  <InChI>
InChI=1S/C30H40ClN7O3S/c1-21(2)42(39,40)28-8-6-5-7-26(28)33-29-24(31)20-32-30(35-29)34-25-10-9-23(19-27(25)41-4)37-13-11-22(12-14-37)38-17-15-36(3)16-18-38/h5-10,19-22H,11-18H2,1-4H3,(H2,32,33,34,35)

>  <InChI Key>
QQWUGDVOUVUTOY-UHFFFAOYSA-N

>  <BindingDB>
50242742

>  <PubChem>
16038120

>  <ChEMBL>
CHEMBL509032

$$$$
Compound 180
Actelion Java MolfileCreator 2.0

  0  0  0  0  0  0              0 V3000
M  V30 BEGIN CTAB
M  V30 COUNTS 42 46 0 0 0
M  V30 BEGIN ATOM
M  V30 1 Cl 0.0 0.0 0.0 0
M  V30 2 C -0.9222 1.1907 0.0 0
M  V30 3 C -0.3618 2.5916 0.0 0
M  V30 4 C -2.4165 1.0039 0.0 0
M  V30 5 N -1.2841 3.7823 0.0 0
M  V30 6 N 1.109 2.8017 0.0 0
M  V30 7 N -3.3387 2.1947 0.0 0
M  V30 8 C -2.7783 3.5955 0.0 0
M  V30 9 C 1.6693 4.2026 0.0 0
M  V30 10 N -3.7006 4.7863 0.0 0
M  V30 11 C 3.1402 4.4127 0.0 0
M  V30 12 C 0.7471 5.3933 0.0 0
M  V30 13 C -5.1949 4.5995 0.0 0
M  V30 14 S 4.0391 3.2453 0.0 0
M  V30 15 C 3.7006 5.8136 0.0 0
M  V30 16 C 1.3074 6.7942 0.0 0
M  V30 17 C -5.7786 3.222 0.0 0
M  V30 18 C -6.1171 5.7902 0.0 0
M  V30 19 O 2.8484 2.3464 0.0 0
M  V30 20 O 5.2065 4.1675 0.0 0
M  V30 21 C 4.938 2.0779 0.0 0
M  V30 22 C 2.7783 7.0043 0.0 0
M  V30 23 O -4.8797 2.0546 0.0 0
M  V30 24 C -7.2728 3.0352 0.0 0
M  V30 25 C -7.6114 5.6034 0.0 0
M  V30 26 C 6.4089 2.288 0.0 0
M  V30 27 C 4.3543 0.7004 0.0 0
M  V30 28 C -5.4634 0.677 0.0 0
M  V30 29 C -8.1951 4.2259 0.0 0
M  V30 30 N -9.6893 4.0391 0.0 0
M  V30 31 C -10.6116 5.2299 0.0 0
M  V30 32 C -10.273 2.6616 0.0 0
M  V30 33 C -12.1058 5.0431 0.0 0
M  V30 34 C -11.7673 2.4748 0.0 0
M  V30 35 C -12.6895 3.6656 0.0 0
M  V30 36 N -14.1838 3.4788 0.0 0
M  V30 37 C -15.106 4.6695 0.0 0
M  V30 38 C -14.7675 2.1013 0.0 0
M  V30 39 C -16.6003 4.4827 0.0 0
M  V30 40 C -16.2618 1.9145 0.0 0
M  V30 41 N -17.184 3.1052 0.0 0
M  V30 42 C -18.6783 2.9184 0.0 0
M  V30 END ATOM
M  V30 BEGIN BOND
M  V30 1 1 1 2
M  V30 2 2 2 3
M  V30 3 1 2 4
M  V30 4 1 3 5
M  V30 5 1 3 6
M  V30 6 2 4 7
M  V30 7 2 5 8
M  V30 8 1 6 9
M  V30 9 1 8 10
M  V30 10 2 9 11
M  V30 11 1 9 12
M  V30 12 1 10 13
M  V30 13 1 11 14
M  V30 14 1 11 15
M  V30 15 2 12 16
M  V30 16 2 13 17
M  V30 17 1 13 18
M  V30 18 2 14 19
M  V30 19 2 14 20
M  V30 20 1 14 21
M  V30 21 2 15 22
M  V30 22 1 17 23
M  V30 23 1 17 24
M  V30 24 2 18 25
M  V30 25 1 21 26
M  V30 26 1 21 27
M  V30 27 1 23 28
M  V30 28 2 24 29
M  V30 29 1 29 30
M  V30 30 1 30 31
M  V30 31 1 30 32
M  V30 32 1 31 33
M  V30 33 1 32 34
M  V30 34 1 33 35
M  V30 35 1 35 36
M  V30 36 1 36 37
M  V30 37 1 36 38
M  V30 38 1 37 39
M  V30 39 1 38 40
M  V30 40 1 39 41
M  V30 41 1 41 42
M  V30 42 1 7 8
M  V30 43 1 16 22
M  V30 44 1 25 29
M  V30 45 1 34 35
M  V30 46 1 40 41
M  V30 END BOND
M  V30 END CTAB
M  END
>  <Compound ID>
67

>  <Name>
TAE684

>  <Uniprot>
Q9NWZ3

>  <Target>
IRAK4

>  <Smiles>
COC1=CC(N2CCC(N3CCN(C)CC3)CC2)=CC=C1NC1=NC=C(Cl)C(NC2=CC=CC=C2S(=O)(=O)C(C)C)=N1

>  <Kd (nM)>
77

>  <Assay (Kd)>
Kd was assessed by competition binding assays

>  <Ki (nM)>


>  <Assay (Ki)>


>  <IC50 (nM)>


>  <Assay (IC50)>


>  <EC50 (nM)>


>  <Assay (EC50)>


>  <Article DOI>
10.1038/nbt.1990

>  <Molecular Weight>
614.216

>  <Exact Mass>
613.26018682

>  <XLogP3>
5.67

>  <Heavy Atom Count>
42

>  <Ring Count>
5

>  <Hydrogen Bond Acceptor Count>
10

>  <Hydrogen Bond Donor Count>
2

>  <Rotatable Bond Count>
9

>  <Topological Polar Surface Area>
102.93

>  <Molecular Formula>
C30H40ClN7O3S

>  <InChI>
InChI=1S/C30H40ClN7O3S/c1-21(2)42(39,40)28-8-6-5-7-26(28)33-29-24(31)20-32-30(35-29)34-25-10-9-23(19-27(25)41-4)37-13-11-22(12-14-37)38-17-15-36(3)16-18-38/h5-10,19-22H,11-18H2,1-4H3,(H2,32,33,34,35)

>  <InChI Key>
QQWUGDVOUVUTOY-UHFFFAOYSA-N

>  <BindingDB>
50242742

>  <PubChem>
16038120

>  <ChEMBL>
CHEMBL509032

$$$$
Compound 181
Actelion Java MolfileCreator 2.0

  0  0  0  0  0  0              0 V3000
M  V30 BEGIN CTAB
M  V30 COUNTS 42 46 0 0 0
M  V30 BEGIN ATOM
M  V30 1 Cl 0.0 0.0 0.0 0
M  V30 2 C -0.9222 1.1907 0.0 0
M  V30 3 C -0.3618 2.5916 0.0 0
M  V30 4 C -2.4165 1.0039 0.0 0
M  V30 5 N -1.2841 3.7823 0.0 0
M  V30 6 N 1.109 2.8017 0.0 0
M  V30 7 N -3.3387 2.1947 0.0 0
M  V30 8 C -2.7783 3.5955 0.0 0
M  V30 9 C 1.6693 4.2026 0.0 0
M  V30 10 N -3.7006 4.7863 0.0 0
M  V30 11 C 3.1402 4.4127 0.0 0
M  V30 12 C 0.7471 5.3933 0.0 0
M  V30 13 C -5.1949 4.5995 0.0 0
M  V30 14 S 4.0391 3.2453 0.0 0
M  V30 15 C 3.7006 5.8136 0.0 0
M  V30 16 C 1.3074 6.7942 0.0 0
M  V30 17 C -5.7786 3.222 0.0 0
M  V30 18 C -6.1171 5.7902 0.0 0
M  V30 19 O 2.8484 2.3464 0.0 0
M  V30 20 O 5.2065 4.1675 0.0 0
M  V30 21 C 4.938 2.0779 0.0 0
M  V30 22 C 2.7783 7.0043 0.0 0
M  V30 23 O -4.8797 2.0546 0.0 0
M  V30 24 C -7.2728 3.0352 0.0 0
M  V30 25 C -7.6114 5.6034 0.0 0
M  V30 26 C 6.4089 2.288 0.0 0
M  V30 27 C 4.3543 0.7004 0.0 0
M  V30 28 C -5.4634 0.677 0.0 0
M  V30 29 C -8.1951 4.2259 0.0 0
M  V30 30 N -9.6893 4.0391 0.0 0
M  V30 31 C -10.6116 5.2299 0.0 0
M  V30 32 C -10.273 2.6616 0.0 0
M  V30 33 C -12.1058 5.0431 0.0 0
M  V30 34 C -11.7673 2.4748 0.0 0
M  V30 35 C -12.6895 3.6656 0.0 0
M  V30 36 N -14.1838 3.4788 0.0 0
M  V30 37 C -15.106 4.6695 0.0 0
M  V30 38 C -14.7675 2.1013 0.0 0
M  V30 39 C -16.6003 4.4827 0.0 0
M  V30 40 C -16.2618 1.9145 0.0 0
M  V30 41 N -17.184 3.1052 0.0 0
M  V30 42 C -18.6783 2.9184 0.0 0
M  V30 END ATOM
M  V30 BEGIN BOND
M  V30 1 1 1 2
M  V30 2 2 2 3
M  V30 3 1 2 4
M  V30 4 1 3 5
M  V30 5 1 3 6
M  V30 6 2 4 7
M  V30 7 2 5 8
M  V30 8 1 6 9
M  V30 9 1 8 10
M  V30 10 2 9 11
M  V30 11 1 9 12
M  V30 12 1 10 13
M  V30 13 1 11 14
M  V30 14 1 11 15
M  V30 15 2 12 16
M  V30 16 2 13 17
M  V30 17 1 13 18
M  V30 18 2 14 19
M  V30 19 2 14 20
M  V30 20 1 14 21
M  V30 21 2 15 22
M  V30 22 1 17 23
M  V30 23 1 17 24
M  V30 24 2 18 25
M  V30 25 1 21 26
M  V30 26 1 21 27
M  V30 27 1 23 28
M  V30 28 2 24 29
M  V30 29 1 29 30
M  V30 30 1 30 31
M  V30 31 1 30 32
M  V30 32 1 31 33
M  V30 33 1 32 34
M  V30 34 1 33 35
M  V30 35 1 35 36
M  V30 36 1 36 37
M  V30 37 1 36 38
M  V30 38 1 37 39
M  V30 39 1 38 40
M  V30 40 1 39 41
M  V30 41 1 41 42
M  V30 42 1 7 8
M  V30 43 1 16 22
M  V30 44 1 25 29
M  V30 45 1 34 35
M  V30 46 1 40 41
M  V30 END BOND
M  V30 END CTAB
M  END
>  <Compound ID>
67

>  <Name>
TAE684

>  <Uniprot>
Q08881

>  <Target>
ITK

>  <Smiles>
COC1=CC(N2CCC(N3CCN(C)CC3)CC2)=CC=C1NC1=NC=C(Cl)C(NC2=CC=CC=C2S(=O)(=O)C(C)C)=N1

>  <Kd (nM)>
34

>  <Assay (Kd)>
Kd was assessed by competition binding assays

>  <Ki (nM)>


>  <Assay (Ki)>


>  <IC50 (nM)>


>  <Assay (IC50)>


>  <EC50 (nM)>


>  <Assay (EC50)>


>  <Article DOI>
10.1038/nbt.1990

>  <Molecular Weight>
614.216

>  <Exact Mass>
613.26018682

>  <XLogP3>
5.67

>  <Heavy Atom Count>
42

>  <Ring Count>
5

>  <Hydrogen Bond Acceptor Count>
10

>  <Hydrogen Bond Donor Count>
2

>  <Rotatable Bond Count>
9

>  <Topological Polar Surface Area>
102.93

>  <Molecular Formula>
C30H40ClN7O3S

>  <InChI>
InChI=1S/C30H40ClN7O3S/c1-21(2)42(39,40)28-8-6-5-7-26(28)33-29-24(31)20-32-30(35-29)34-25-10-9-23(19-27(25)41-4)37-13-11-22(12-14-37)38-17-15-36(3)16-18-38/h5-10,19-22H,11-18H2,1-4H3,(H2,32,33,34,35)

>  <InChI Key>
QQWUGDVOUVUTOY-UHFFFAOYSA-N

>  <BindingDB>
50242742

>  <PubChem>
16038120

>  <ChEMBL>
CHEMBL509032

$$$$
Compound 182
Actelion Java MolfileCreator 2.0

  0  0  0  0  0  0              0 V3000
M  V30 BEGIN CTAB
M  V30 COUNTS 42 46 0 0 0
M  V30 BEGIN ATOM
M  V30 1 Cl 0.0 0.0 0.0 0
M  V30 2 C -0.9222 1.1907 0.0 0
M  V30 3 C -0.3618 2.5916 0.0 0
M  V30 4 C -2.4165 1.0039 0.0 0
M  V30 5 N -1.2841 3.7823 0.0 0
M  V30 6 N 1.109 2.8017 0.0 0
M  V30 7 N -3.3387 2.1947 0.0 0
M  V30 8 C -2.7783 3.5955 0.0 0
M  V30 9 C 1.6693 4.2026 0.0 0
M  V30 10 N -3.7006 4.7863 0.0 0
M  V30 11 C 3.1402 4.4127 0.0 0
M  V30 12 C 0.7471 5.3933 0.0 0
M  V30 13 C -5.1949 4.5995 0.0 0
M  V30 14 S 4.0391 3.2453 0.0 0
M  V30 15 C 3.7006 5.8136 0.0 0
M  V30 16 C 1.3074 6.7942 0.0 0
M  V30 17 C -5.7786 3.222 0.0 0
M  V30 18 C -6.1171 5.7902 0.0 0
M  V30 19 O 2.8484 2.3464 0.0 0
M  V30 20 O 5.2065 4.1675 0.0 0
M  V30 21 C 4.938 2.0779 0.0 0
M  V30 22 C 2.7783 7.0043 0.0 0
M  V30 23 O -4.8797 2.0546 0.0 0
M  V30 24 C -7.2728 3.0352 0.0 0
M  V30 25 C -7.6114 5.6034 0.0 0
M  V30 26 C 6.4089 2.288 0.0 0
M  V30 27 C 4.3543 0.7004 0.0 0
M  V30 28 C -5.4634 0.677 0.0 0
M  V30 29 C -8.1951 4.2259 0.0 0
M  V30 30 N -9.6893 4.0391 0.0 0
M  V30 31 C -10.6116 5.2299 0.0 0
M  V30 32 C -10.273 2.6616 0.0 0
M  V30 33 C -12.1058 5.0431 0.0 0
M  V30 34 C -11.7673 2.4748 0.0 0
M  V30 35 C -12.6895 3.6656 0.0 0
M  V30 36 N -14.1838 3.4788 0.0 0
M  V30 37 C -15.106 4.6695 0.0 0
M  V30 38 C -14.7675 2.1013 0.0 0
M  V30 39 C -16.6003 4.4827 0.0 0
M  V30 40 C -16.2618 1.9145 0.0 0
M  V30 41 N -17.184 3.1052 0.0 0
M  V30 42 C -18.6783 2.9184 0.0 0
M  V30 END ATOM
M  V30 BEGIN BOND
M  V30 1 1 1 2
M  V30 2 2 2 3
M  V30 3 1 2 4
M  V30 4 1 3 5
M  V30 5 1 3 6
M  V30 6 2 4 7
M  V30 7 2 5 8
M  V30 8 1 6 9
M  V30 9 1 8 10
M  V30 10 2 9 11
M  V30 11 1 9 12
M  V30 12 1 10 13
M  V30 13 1 11 14
M  V30 14 1 11 15
M  V30 15 2 12 16
M  V30 16 2 13 17
M  V30 17 1 13 18
M  V30 18 2 14 19
M  V30 19 2 14 20
M  V30 20 1 14 21
M  V30 21 2 15 22
M  V30 22 1 17 23
M  V30 23 1 17 24
M  V30 24 2 18 25
M  V30 25 1 21 26
M  V30 26 1 21 27
M  V30 27 1 23 28
M  V30 28 2 24 29
M  V30 29 1 29 30
M  V30 30 1 30 31
M  V30 31 1 30 32
M  V30 32 1 31 33
M  V30 33 1 32 34
M  V30 34 1 33 35
M  V30 35 1 35 36
M  V30 36 1 36 37
M  V30 37 1 36 38
M  V30 38 1 37 39
M  V30 39 1 38 40
M  V30 40 1 39 41
M  V30 41 1 41 42
M  V30 42 1 7 8
M  V30 43 1 16 22
M  V30 44 1 25 29
M  V30 45 1 34 35
M  V30 46 1 40 41
M  V30 END BOND
M  V30 END CTAB
M  END
>  <Compound ID>
67

>  <Name>
TAE684

>  <Uniprot>
O95835

>  <Target>
LATS1

>  <Smiles>
COC1=CC(N2CCC(N3CCN(C)CC3)CC2)=CC=C1NC1=NC=C(Cl)C(NC2=CC=CC=C2S(=O)(=O)C(C)C)=N1

>  <Kd (nM)>
1600

>  <Assay (Kd)>
Kd was assessed by competition binding assays

>  <Ki (nM)>


>  <Assay (Ki)>


>  <IC50 (nM)>


>  <Assay (IC50)>


>  <EC50 (nM)>


>  <Assay (EC50)>


>  <Article DOI>
10.1038/nbt.1990

>  <Molecular Weight>
614.216

>  <Exact Mass>
613.26018682

>  <XLogP3>
5.67

>  <Heavy Atom Count>
42

>  <Ring Count>
5

>  <Hydrogen Bond Acceptor Count>
10

>  <Hydrogen Bond Donor Count>
2

>  <Rotatable Bond Count>
9

>  <Topological Polar Surface Area>
102.93

>  <Molecular Formula>
C30H40ClN7O3S

>  <InChI>
InChI=1S/C30H40ClN7O3S/c1-21(2)42(39,40)28-8-6-5-7-26(28)33-29-24(31)20-32-30(35-29)34-25-10-9-23(19-27(25)41-4)37-13-11-22(12-14-37)38-17-15-36(3)16-18-38/h5-10,19-22H,11-18H2,1-4H3,(H2,32,33,34,35)

>  <InChI Key>
QQWUGDVOUVUTOY-UHFFFAOYSA-N

>  <BindingDB>
50242742

>  <PubChem>
16038120

>  <ChEMBL>
CHEMBL509032

$$$$
Compound 183
Actelion Java MolfileCreator 2.0

  0  0  0  0  0  0              0 V3000
M  V30 BEGIN CTAB
M  V30 COUNTS 42 46 0 0 0
M  V30 BEGIN ATOM
M  V30 1 Cl 0.0 0.0 0.0 0
M  V30 2 C -0.9222 1.1907 0.0 0
M  V30 3 C -0.3618 2.5916 0.0 0
M  V30 4 C -2.4165 1.0039 0.0 0
M  V30 5 N -1.2841 3.7823 0.0 0
M  V30 6 N 1.109 2.8017 0.0 0
M  V30 7 N -3.3387 2.1947 0.0 0
M  V30 8 C -2.7783 3.5955 0.0 0
M  V30 9 C 1.6693 4.2026 0.0 0
M  V30 10 N -3.7006 4.7863 0.0 0
M  V30 11 C 3.1402 4.4127 0.0 0
M  V30 12 C 0.7471 5.3933 0.0 0
M  V30 13 C -5.1949 4.5995 0.0 0
M  V30 14 S 4.0391 3.2453 0.0 0
M  V30 15 C 3.7006 5.8136 0.0 0
M  V30 16 C 1.3074 6.7942 0.0 0
M  V30 17 C -5.7786 3.222 0.0 0
M  V30 18 C -6.1171 5.7902 0.0 0
M  V30 19 O 2.8484 2.3464 0.0 0
M  V30 20 O 5.2065 4.1675 0.0 0
M  V30 21 C 4.938 2.0779 0.0 0
M  V30 22 C 2.7783 7.0043 0.0 0
M  V30 23 O -4.8797 2.0546 0.0 0
M  V30 24 C -7.2728 3.0352 0.0 0
M  V30 25 C -7.6114 5.6034 0.0 0
M  V30 26 C 6.4089 2.288 0.0 0
M  V30 27 C 4.3543 0.7004 0.0 0
M  V30 28 C -5.4634 0.677 0.0 0
M  V30 29 C -8.1951 4.2259 0.0 0
M  V30 30 N -9.6893 4.0391 0.0 0
M  V30 31 C -10.6116 5.2299 0.0 0
M  V30 32 C -10.273 2.6616 0.0 0
M  V30 33 C -12.1058 5.0431 0.0 0
M  V30 34 C -11.7673 2.4748 0.0 0
M  V30 35 C -12.6895 3.6656 0.0 0
M  V30 36 N -14.1838 3.4788 0.0 0
M  V30 37 C -15.106 4.6695 0.0 0
M  V30 38 C -14.7675 2.1013 0.0 0
M  V30 39 C -16.6003 4.4827 0.0 0
M  V30 40 C -16.2618 1.9145 0.0 0
M  V30 41 N -17.184 3.1052 0.0 0
M  V30 42 C -18.6783 2.9184 0.0 0
M  V30 END ATOM
M  V30 BEGIN BOND
M  V30 1 1 1 2
M  V30 2 2 2 3
M  V30 3 1 2 4
M  V30 4 1 3 5
M  V30 5 1 3 6
M  V30 6 2 4 7
M  V30 7 2 5 8
M  V30 8 1 6 9
M  V30 9 1 8 10
M  V30 10 2 9 11
M  V30 11 1 9 12
M  V30 12 1 10 13
M  V30 13 1 11 14
M  V30 14 1 11 15
M  V30 15 2 12 16
M  V30 16 2 13 17
M  V30 17 1 13 18
M  V30 18 2 14 19
M  V30 19 2 14 20
M  V30 20 1 14 21
M  V30 21 2 15 22
M  V30 22 1 17 23
M  V30 23 1 17 24
M  V30 24 2 18 25
M  V30 25 1 21 26
M  V30 26 1 21 27
M  V30 27 1 23 28
M  V30 28 2 24 29
M  V30 29 1 29 30
M  V30 30 1 30 31
M  V30 31 1 30 32
M  V30 32 1 31 33
M  V30 33 1 32 34
M  V30 34 1 33 35
M  V30 35 1 35 36
M  V30 36 1 36 37
M  V30 37 1 36 38
M  V30 38 1 37 39
M  V30 39 1 38 40
M  V30 40 1 39 41
M  V30 41 1 41 42
M  V30 42 1 7 8
M  V30 43 1 16 22
M  V30 44 1 25 29
M  V30 45 1 34 35
M  V30 46 1 40 41
M  V30 END BOND
M  V30 END CTAB
M  END
>  <Compound ID>
67

>  <Name>
TAE684

>  <Uniprot>
P06239

>  <Target>
LCK

>  <Smiles>
COC1=CC(N2CCC(N3CCN(C)CC3)CC2)=CC=C1NC1=NC=C(Cl)C(NC2=CC=CC=C2S(=O)(=O)C(C)C)=N1

>  <Kd (nM)>
49

>  <Assay (Kd)>
Kd was assessed by competition binding assays

>  <Ki (nM)>


>  <Assay (Ki)>


>  <IC50 (nM)>


>  <Assay (IC50)>


>  <EC50 (nM)>


>  <Assay (EC50)>


>  <Article DOI>
10.1038/nbt.1990

>  <Molecular Weight>
614.216

>  <Exact Mass>
613.26018682

>  <XLogP3>
5.67

>  <Heavy Atom Count>
42

>  <Ring Count>
5

>  <Hydrogen Bond Acceptor Count>
10

>  <Hydrogen Bond Donor Count>
2

>  <Rotatable Bond Count>
9

>  <Topological Polar Surface Area>
102.93

>  <Molecular Formula>
C30H40ClN7O3S

>  <InChI>
InChI=1S/C30H40ClN7O3S/c1-21(2)42(39,40)28-8-6-5-7-26(28)33-29-24(31)20-32-30(35-29)34-25-10-9-23(19-27(25)41-4)37-13-11-22(12-14-37)38-17-15-36(3)16-18-38/h5-10,19-22H,11-18H2,1-4H3,(H2,32,33,34,35)

>  <InChI Key>
QQWUGDVOUVUTOY-UHFFFAOYSA-N

>  <BindingDB>
50242742

>  <PubChem>
16038120

>  <ChEMBL>
CHEMBL509032

$$$$
Compound 184
Actelion Java MolfileCreator 2.0

  0  0  0  0  0  0              0 V3000
M  V30 BEGIN CTAB
M  V30 COUNTS 42 46 0 0 0
M  V30 BEGIN ATOM
M  V30 1 Cl 0.0 0.0 0.0 0
M  V30 2 C -0.9222 1.1907 0.0 0
M  V30 3 C -0.3618 2.5916 0.0 0
M  V30 4 C -2.4165 1.0039 0.0 0
M  V30 5 N -1.2841 3.7823 0.0 0
M  V30 6 N 1.109 2.8017 0.0 0
M  V30 7 N -3.3387 2.1947 0.0 0
M  V30 8 C -2.7783 3.5955 0.0 0
M  V30 9 C 1.6693 4.2026 0.0 0
M  V30 10 N -3.7006 4.7863 0.0 0
M  V30 11 C 3.1402 4.4127 0.0 0
M  V30 12 C 0.7471 5.3933 0.0 0
M  V30 13 C -5.1949 4.5995 0.0 0
M  V30 14 S 4.0391 3.2453 0.0 0
M  V30 15 C 3.7006 5.8136 0.0 0
M  V30 16 C 1.3074 6.7942 0.0 0
M  V30 17 C -5.7786 3.222 0.0 0
M  V30 18 C -6.1171 5.7902 0.0 0
M  V30 19 O 2.8484 2.3464 0.0 0
M  V30 20 O 5.2065 4.1675 0.0 0
M  V30 21 C 4.938 2.0779 0.0 0
M  V30 22 C 2.7783 7.0043 0.0 0
M  V30 23 O -4.8797 2.0546 0.0 0
M  V30 24 C -7.2728 3.0352 0.0 0
M  V30 25 C -7.6114 5.6034 0.0 0
M  V30 26 C 6.4089 2.288 0.0 0
M  V30 27 C 4.3543 0.7004 0.0 0
M  V30 28 C -5.4634 0.677 0.0 0
M  V30 29 C -8.1951 4.2259 0.0 0
M  V30 30 N -9.6893 4.0391 0.0 0
M  V30 31 C -10.6116 5.2299 0.0 0
M  V30 32 C -10.273 2.6616 0.0 0
M  V30 33 C -12.1058 5.0431 0.0 0
M  V30 34 C -11.7673 2.4748 0.0 0
M  V30 35 C -12.6895 3.6656 0.0 0
M  V30 36 N -14.1838 3.4788 0.0 0
M  V30 37 C -15.106 4.6695 0.0 0
M  V30 38 C -14.7675 2.1013 0.0 0
M  V30 39 C -16.6003 4.4827 0.0 0
M  V30 40 C -16.2618 1.9145 0.0 0
M  V30 41 N -17.184 3.1052 0.0 0
M  V30 42 C -18.6783 2.9184 0.0 0
M  V30 END ATOM
M  V30 BEGIN BOND
M  V30 1 1 1 2
M  V30 2 2 2 3
M  V30 3 1 2 4
M  V30 4 1 3 5
M  V30 5 1 3 6
M  V30 6 2 4 7
M  V30 7 2 5 8
M  V30 8 1 6 9
M  V30 9 1 8 10
M  V30 10 2 9 11
M  V30 11 1 9 12
M  V30 12 1 10 13
M  V30 13 1 11 14
M  V30 14 1 11 15
M  V30 15 2 12 16
M  V30 16 2 13 17
M  V30 17 1 13 18
M  V30 18 2 14 19
M  V30 19 2 14 20
M  V30 20 1 14 21
M  V30 21 2 15 22
M  V30 22 1 17 23
M  V30 23 1 17 24
M  V30 24 2 18 25
M  V30 25 1 21 26
M  V30 26 1 21 27
M  V30 27 1 23 28
M  V30 28 2 24 29
M  V30 29 1 29 30
M  V30 30 1 30 31
M  V30 31 1 30 32
M  V30 32 1 31 33
M  V30 33 1 32 34
M  V30 34 1 33 35
M  V30 35 1 35 36
M  V30 36 1 36 37
M  V30 37 1 36 38
M  V30 38 1 37 39
M  V30 39 1 38 40
M  V30 40 1 39 41
M  V30 41 1 41 42
M  V30 42 1 7 8
M  V30 43 1 16 22
M  V30 44 1 25 29
M  V30 45 1 34 35
M  V30 46 1 40 41
M  V30 END BOND
M  V30 END CTAB
M  END
>  <Compound ID>
67

>  <Name>
TAE684

>  <Uniprot>
P53667

>  <Target>
LIMK1

>  <Smiles>
COC1=CC(N2CCC(N3CCN(C)CC3)CC2)=CC=C1NC1=NC=C(Cl)C(NC2=CC=CC=C2S(=O)(=O)C(C)C)=N1

>  <Kd (nM)>
1100

>  <Assay (Kd)>
Kd was assessed by competition binding assays

>  <Ki (nM)>


>  <Assay (Ki)>


>  <IC50 (nM)>


>  <Assay (IC50)>


>  <EC50 (nM)>


>  <Assay (EC50)>


>  <Article DOI>
10.1038/nbt.1990

>  <Molecular Weight>
614.216

>  <Exact Mass>
613.26018682

>  <XLogP3>
5.67

>  <Heavy Atom Count>
42

>  <Ring Count>
5

>  <Hydrogen Bond Acceptor Count>
10

>  <Hydrogen Bond Donor Count>
2

>  <Rotatable Bond Count>
9

>  <Topological Polar Surface Area>
102.93

>  <Molecular Formula>
C30H40ClN7O3S

>  <InChI>
InChI=1S/C30H40ClN7O3S/c1-21(2)42(39,40)28-8-6-5-7-26(28)33-29-24(31)20-32-30(35-29)34-25-10-9-23(19-27(25)41-4)37-13-11-22(12-14-37)38-17-15-36(3)16-18-38/h5-10,19-22H,11-18H2,1-4H3,(H2,32,33,34,35)

>  <InChI Key>
QQWUGDVOUVUTOY-UHFFFAOYSA-N

>  <BindingDB>
50242742

>  <PubChem>
16038120

>  <ChEMBL>
CHEMBL509032

$$$$
Compound 185
Actelion Java MolfileCreator 2.0

  0  0  0  0  0  0              0 V3000
M  V30 BEGIN CTAB
M  V30 COUNTS 42 46 0 0 0
M  V30 BEGIN ATOM
M  V30 1 Cl 0.0 0.0 0.0 0
M  V30 2 C -0.9222 1.1907 0.0 0
M  V30 3 C -0.3618 2.5916 0.0 0
M  V30 4 C -2.4165 1.0039 0.0 0
M  V30 5 N -1.2841 3.7823 0.0 0
M  V30 6 N 1.109 2.8017 0.0 0
M  V30 7 N -3.3387 2.1947 0.0 0
M  V30 8 C -2.7783 3.5955 0.0 0
M  V30 9 C 1.6693 4.2026 0.0 0
M  V30 10 N -3.7006 4.7863 0.0 0
M  V30 11 C 3.1402 4.4127 0.0 0
M  V30 12 C 0.7471 5.3933 0.0 0
M  V30 13 C -5.1949 4.5995 0.0 0
M  V30 14 S 4.0391 3.2453 0.0 0
M  V30 15 C 3.7006 5.8136 0.0 0
M  V30 16 C 1.3074 6.7942 0.0 0
M  V30 17 C -5.7786 3.222 0.0 0
M  V30 18 C -6.1171 5.7902 0.0 0
M  V30 19 O 2.8484 2.3464 0.0 0
M  V30 20 O 5.2065 4.1675 0.0 0
M  V30 21 C 4.938 2.0779 0.0 0
M  V30 22 C 2.7783 7.0043 0.0 0
M  V30 23 O -4.8797 2.0546 0.0 0
M  V30 24 C -7.2728 3.0352 0.0 0
M  V30 25 C -7.6114 5.6034 0.0 0
M  V30 26 C 6.4089 2.288 0.0 0
M  V30 27 C 4.3543 0.7004 0.0 0
M  V30 28 C -5.4634 0.677 0.0 0
M  V30 29 C -8.1951 4.2259 0.0 0
M  V30 30 N -9.6893 4.0391 0.0 0
M  V30 31 C -10.6116 5.2299 0.0 0
M  V30 32 C -10.273 2.6616 0.0 0
M  V30 33 C -12.1058 5.0431 0.0 0
M  V30 34 C -11.7673 2.4748 0.0 0
M  V30 35 C -12.6895 3.6656 0.0 0
M  V30 36 N -14.1838 3.4788 0.0 0
M  V30 37 C -15.106 4.6695 0.0 0
M  V30 38 C -14.7675 2.1013 0.0 0
M  V30 39 C -16.6003 4.4827 0.0 0
M  V30 40 C -16.2618 1.9145 0.0 0
M  V30 41 N -17.184 3.1052 0.0 0
M  V30 42 C -18.6783 2.9184 0.0 0
M  V30 END ATOM
M  V30 BEGIN BOND
M  V30 1 1 1 2
M  V30 2 2 2 3
M  V30 3 1 2 4
M  V30 4 1 3 5
M  V30 5 1 3 6
M  V30 6 2 4 7
M  V30 7 2 5 8
M  V30 8 1 6 9
M  V30 9 1 8 10
M  V30 10 2 9 11
M  V30 11 1 9 12
M  V30 12 1 10 13
M  V30 13 1 11 14
M  V30 14 1 11 15
M  V30 15 2 12 16
M  V30 16 2 13 17
M  V30 17 1 13 18
M  V30 18 2 14 19
M  V30 19 2 14 20
M  V30 20 1 14 21
M  V30 21 2 15 22
M  V30 22 1 17 23
M  V30 23 1 17 24
M  V30 24 2 18 25
M  V30 25 1 21 26
M  V30 26 1 21 27
M  V30 27 1 23 28
M  V30 28 2 24 29
M  V30 29 1 29 30
M  V30 30 1 30 31
M  V30 31 1 30 32
M  V30 32 1 31 33
M  V30 33 1 32 34
M  V30 34 1 33 35
M  V30 35 1 35 36
M  V30 36 1 36 37
M  V30 37 1 36 38
M  V30 38 1 37 39
M  V30 39 1 38 40
M  V30 40 1 39 41
M  V30 41 1 41 42
M  V30 42 1 7 8
M  V30 43 1 16 22
M  V30 44 1 25 29
M  V30 45 1 34 35
M  V30 46 1 40 41
M  V30 END BOND
M  V30 END CTAB
M  END
>  <Compound ID>
67

>  <Name>
TAE684

>  <Uniprot>
P53671

>  <Target>
LIMK2

>  <Smiles>
COC1=CC(N2CCC(N3CCN(C)CC3)CC2)=CC=C1NC1=NC=C(Cl)C(NC2=CC=CC=C2S(=O)(=O)C(C)C)=N1

>  <Kd (nM)>
1100

>  <Assay (Kd)>
Kd was assessed by competition binding assays

>  <Ki (nM)>


>  <Assay (Ki)>


>  <IC50 (nM)>


>  <Assay (IC50)>


>  <EC50 (nM)>


>  <Assay (EC50)>


>  <Article DOI>
10.1038/nbt.1990

>  <Molecular Weight>
614.216

>  <Exact Mass>
613.26018682

>  <XLogP3>
5.67

>  <Heavy Atom Count>
42

>  <Ring Count>
5

>  <Hydrogen Bond Acceptor Count>
10

>  <Hydrogen Bond Donor Count>
2

>  <Rotatable Bond Count>
9

>  <Topological Polar Surface Area>
102.93

>  <Molecular Formula>
C30H40ClN7O3S

>  <InChI>
InChI=1S/C30H40ClN7O3S/c1-21(2)42(39,40)28-8-6-5-7-26(28)33-29-24(31)20-32-30(35-29)34-25-10-9-23(19-27(25)41-4)37-13-11-22(12-14-37)38-17-15-36(3)16-18-38/h5-10,19-22H,11-18H2,1-4H3,(H2,32,33,34,35)

>  <InChI Key>
QQWUGDVOUVUTOY-UHFFFAOYSA-N

>  <BindingDB>
50242742

>  <PubChem>
16038120

>  <ChEMBL>
CHEMBL509032

$$$$
Compound 186
Actelion Java MolfileCreator 2.0

  0  0  0  0  0  0              0 V3000
M  V30 BEGIN CTAB
M  V30 COUNTS 42 46 0 0 0
M  V30 BEGIN ATOM
M  V30 1 Cl 0.0 0.0 0.0 0
M  V30 2 C -0.9222 1.1907 0.0 0
M  V30 3 C -0.3618 2.5916 0.0 0
M  V30 4 C -2.4165 1.0039 0.0 0
M  V30 5 N -1.2841 3.7823 0.0 0
M  V30 6 N 1.109 2.8017 0.0 0
M  V30 7 N -3.3387 2.1947 0.0 0
M  V30 8 C -2.7783 3.5955 0.0 0
M  V30 9 C 1.6693 4.2026 0.0 0
M  V30 10 N -3.7006 4.7863 0.0 0
M  V30 11 C 3.1402 4.4127 0.0 0
M  V30 12 C 0.7471 5.3933 0.0 0
M  V30 13 C -5.1949 4.5995 0.0 0
M  V30 14 S 4.0391 3.2453 0.0 0
M  V30 15 C 3.7006 5.8136 0.0 0
M  V30 16 C 1.3074 6.7942 0.0 0
M  V30 17 C -5.7786 3.222 0.0 0
M  V30 18 C -6.1171 5.7902 0.0 0
M  V30 19 O 2.8484 2.3464 0.0 0
M  V30 20 O 5.2065 4.1675 0.0 0
M  V30 21 C 4.938 2.0779 0.0 0
M  V30 22 C 2.7783 7.0043 0.0 0
M  V30 23 O -4.8797 2.0546 0.0 0
M  V30 24 C -7.2728 3.0352 0.0 0
M  V30 25 C -7.6114 5.6034 0.0 0
M  V30 26 C 6.4089 2.288 0.0 0
M  V30 27 C 4.3543 0.7004 0.0 0
M  V30 28 C -5.4634 0.677 0.0 0
M  V30 29 C -8.1951 4.2259 0.0 0
M  V30 30 N -9.6893 4.0391 0.0 0
M  V30 31 C -10.6116 5.2299 0.0 0
M  V30 32 C -10.273 2.6616 0.0 0
M  V30 33 C -12.1058 5.0431 0.0 0
M  V30 34 C -11.7673 2.4748 0.0 0
M  V30 35 C -12.6895 3.6656 0.0 0
M  V30 36 N -14.1838 3.4788 0.0 0
M  V30 37 C -15.106 4.6695 0.0 0
M  V30 38 C -14.7675 2.1013 0.0 0
M  V30 39 C -16.6003 4.4827 0.0 0
M  V30 40 C -16.2618 1.9145 0.0 0
M  V30 41 N -17.184 3.1052 0.0 0
M  V30 42 C -18.6783 2.9184 0.0 0
M  V30 END ATOM
M  V30 BEGIN BOND
M  V30 1 1 1 2
M  V30 2 2 2 3
M  V30 3 1 2 4
M  V30 4 1 3 5
M  V30 5 1 3 6
M  V30 6 2 4 7
M  V30 7 2 5 8
M  V30 8 1 6 9
M  V30 9 1 8 10
M  V30 10 2 9 11
M  V30 11 1 9 12
M  V30 12 1 10 13
M  V30 13 1 11 14
M  V30 14 1 11 15
M  V30 15 2 12 16
M  V30 16 2 13 17
M  V30 17 1 13 18
M  V30 18 2 14 19
M  V30 19 2 14 20
M  V30 20 1 14 21
M  V30 21 2 15 22
M  V30 22 1 17 23
M  V30 23 1 17 24
M  V30 24 2 18 25
M  V30 25 1 21 26
M  V30 26 1 21 27
M  V30 27 1 23 28
M  V30 28 2 24 29
M  V30 29 1 29 30
M  V30 30 1 30 31
M  V30 31 1 30 32
M  V30 32 1 31 33
M  V30 33 1 32 34
M  V30 34 1 33 35
M  V30 35 1 35 36
M  V30 36 1 36 37
M  V30 37 1 36 38
M  V30 38 1 37 39
M  V30 39 1 38 40
M  V30 40 1 39 41
M  V30 41 1 41 42
M  V30 42 1 7 8
M  V30 43 1 16 22
M  V30 44 1 25 29
M  V30 45 1 34 35
M  V30 46 1 40 41
M  V30 END BOND
M  V30 END CTAB
M  END
>  <Compound ID>
67

>  <Name>
TAE684

>  <Uniprot>
Q5S007

>  <Target>
LRRK2

>  <Smiles>
COC1=CC(N2CCC(N3CCN(C)CC3)CC2)=CC=C1NC1=NC=C(Cl)C(NC2=CC=CC=C2S(=O)(=O)C(C)C)=N1

>  <Kd (nM)>
1.4

>  <Assay (Kd)>
Kd was assessed by competition binding assays

>  <Ki (nM)>


>  <Assay (Ki)>


>  <IC50 (nM)>


>  <Assay (IC50)>


>  <EC50 (nM)>


>  <Assay (EC50)>


>  <Article DOI>
10.1038/nbt.1990

>  <Molecular Weight>
614.216

>  <Exact Mass>
613.26018682

>  <XLogP3>
5.67

>  <Heavy Atom Count>
42

>  <Ring Count>
5

>  <Hydrogen Bond Acceptor Count>
10

>  <Hydrogen Bond Donor Count>
2

>  <Rotatable Bond Count>
9

>  <Topological Polar Surface Area>
102.93

>  <Molecular Formula>
C30H40ClN7O3S

>  <InChI>
InChI=1S/C30H40ClN7O3S/c1-21(2)42(39,40)28-8-6-5-7-26(28)33-29-24(31)20-32-30(35-29)34-25-10-9-23(19-27(25)41-4)37-13-11-22(12-14-37)38-17-15-36(3)16-18-38/h5-10,19-22H,11-18H2,1-4H3,(H2,32,33,34,35)

>  <InChI Key>
QQWUGDVOUVUTOY-UHFFFAOYSA-N

>  <BindingDB>
50242742

>  <PubChem>
16038120

>  <ChEMBL>
CHEMBL509032

$$$$
Compound 187
Actelion Java MolfileCreator 2.0

  0  0  0  0  0  0              0 V3000
M  V30 BEGIN CTAB
M  V30 COUNTS 42 46 0 0 0
M  V30 BEGIN ATOM
M  V30 1 Cl 0.0 0.0 0.0 0
M  V30 2 C -0.9222 1.1907 0.0 0
M  V30 3 C -0.3618 2.5916 0.0 0
M  V30 4 C -2.4165 1.0039 0.0 0
M  V30 5 N -1.2841 3.7823 0.0 0
M  V30 6 N 1.109 2.8017 0.0 0
M  V30 7 N -3.3387 2.1947 0.0 0
M  V30 8 C -2.7783 3.5955 0.0 0
M  V30 9 C 1.6693 4.2026 0.0 0
M  V30 10 N -3.7006 4.7863 0.0 0
M  V30 11 C 3.1402 4.4127 0.0 0
M  V30 12 C 0.7471 5.3933 0.0 0
M  V30 13 C -5.1949 4.5995 0.0 0
M  V30 14 S 4.0391 3.2453 0.0 0
M  V30 15 C 3.7006 5.8136 0.0 0
M  V30 16 C 1.3074 6.7942 0.0 0
M  V30 17 C -5.7786 3.222 0.0 0
M  V30 18 C -6.1171 5.7902 0.0 0
M  V30 19 O 2.8484 2.3464 0.0 0
M  V30 20 O 5.2065 4.1675 0.0 0
M  V30 21 C 4.938 2.0779 0.0 0
M  V30 22 C 2.7783 7.0043 0.0 0
M  V30 23 O -4.8797 2.0546 0.0 0
M  V30 24 C -7.2728 3.0352 0.0 0
M  V30 25 C -7.6114 5.6034 0.0 0
M  V30 26 C 6.4089 2.288 0.0 0
M  V30 27 C 4.3543 0.7004 0.0 0
M  V30 28 C -5.4634 0.677 0.0 0
M  V30 29 C -8.1951 4.2259 0.0 0
M  V30 30 N -9.6893 4.0391 0.0 0
M  V30 31 C -10.6116 5.2299 0.0 0
M  V30 32 C -10.273 2.6616 0.0 0
M  V30 33 C -12.1058 5.0431 0.0 0
M  V30 34 C -11.7673 2.4748 0.0 0
M  V30 35 C -12.6895 3.6656 0.0 0
M  V30 36 N -14.1838 3.4788 0.0 0
M  V30 37 C -15.106 4.6695 0.0 0
M  V30 38 C -14.7675 2.1013 0.0 0
M  V30 39 C -16.6003 4.4827 0.0 0
M  V30 40 C -16.2618 1.9145 0.0 0
M  V30 41 N -17.184 3.1052 0.0 0
M  V30 42 C -18.6783 2.9184 0.0 0
M  V30 END ATOM
M  V30 BEGIN BOND
M  V30 1 1 1 2
M  V30 2 2 2 3
M  V30 3 1 2 4
M  V30 4 1 3 5
M  V30 5 1 3 6
M  V30 6 2 4 7
M  V30 7 2 5 8
M  V30 8 1 6 9
M  V30 9 1 8 10
M  V30 10 2 9 11
M  V30 11 1 9 12
M  V30 12 1 10 13
M  V30 13 1 11 14
M  V30 14 1 11 15
M  V30 15 2 12 16
M  V30 16 2 13 17
M  V30 17 1 13 18
M  V30 18 2 14 19
M  V30 19 2 14 20
M  V30 20 1 14 21
M  V30 21 2 15 22
M  V30 22 1 17 23
M  V30 23 1 17 24
M  V30 24 2 18 25
M  V30 25 1 21 26
M  V30 26 1 21 27
M  V30 27 1 23 28
M  V30 28 2 24 29
M  V30 29 1 29 30
M  V30 30 1 30 31
M  V30 31 1 30 32
M  V30 32 1 31 33
M  V30 33 1 32 34
M  V30 34 1 33 35
M  V30 35 1 35 36
M  V30 36 1 36 37
M  V30 37 1 36 38
M  V30 38 1 37 39
M  V30 39 1 38 40
M  V30 40 1 39 41
M  V30 41 1 41 42
M  V30 42 1 7 8
M  V30 43 1 16 22
M  V30 44 1 25 29
M  V30 45 1 34 35
M  V30 46 1 40 41
M  V30 END BOND
M  V30 END CTAB
M  END
>  <Compound ID>
67

>  <Name>
TAE684

>  <Uniprot>
Q16584

>  <Target>
MAP3K11

>  <Smiles>
COC1=CC(N2CCC(N3CCN(C)CC3)CC2)=CC=C1NC1=NC=C(Cl)C(NC2=CC=CC=C2S(=O)(=O)C(C)C)=N1

>  <Kd (nM)>
420

>  <Assay (Kd)>
Kd was assessed by competition binding assays

>  <Ki (nM)>


>  <Assay (Ki)>


>  <IC50 (nM)>


>  <Assay (IC50)>


>  <EC50 (nM)>


>  <Assay (EC50)>


>  <Article DOI>
10.1038/nbt.1990

>  <Molecular Weight>
614.216

>  <Exact Mass>
613.26018682

>  <XLogP3>
5.67

>  <Heavy Atom Count>
42

>  <Ring Count>
5

>  <Hydrogen Bond Acceptor Count>
10

>  <Hydrogen Bond Donor Count>
2

>  <Rotatable Bond Count>
9

>  <Topological Polar Surface Area>
102.93

>  <Molecular Formula>
C30H40ClN7O3S

>  <InChI>
InChI=1S/C30H40ClN7O3S/c1-21(2)42(39,40)28-8-6-5-7-26(28)33-29-24(31)20-32-30(35-29)34-25-10-9-23(19-27(25)41-4)37-13-11-22(12-14-37)38-17-15-36(3)16-18-38/h5-10,19-22H,11-18H2,1-4H3,(H2,32,33,34,35)

>  <InChI Key>
QQWUGDVOUVUTOY-UHFFFAOYSA-N

>  <BindingDB>
50242742

>  <PubChem>
16038120

>  <ChEMBL>
CHEMBL509032

$$$$
Compound 188
Actelion Java MolfileCreator 2.0

  0  0  0  0  0  0              0 V3000
M  V30 BEGIN CTAB
M  V30 COUNTS 42 46 0 0 0
M  V30 BEGIN ATOM
M  V30 1 Cl 0.0 0.0 0.0 0
M  V30 2 C -0.9222 1.1907 0.0 0
M  V30 3 C -0.3618 2.5916 0.0 0
M  V30 4 C -2.4165 1.0039 0.0 0
M  V30 5 N -1.2841 3.7823 0.0 0
M  V30 6 N 1.109 2.8017 0.0 0
M  V30 7 N -3.3387 2.1947 0.0 0
M  V30 8 C -2.7783 3.5955 0.0 0
M  V30 9 C 1.6693 4.2026 0.0 0
M  V30 10 N -3.7006 4.7863 0.0 0
M  V30 11 C 3.1402 4.4127 0.0 0
M  V30 12 C 0.7471 5.3933 0.0 0
M  V30 13 C -5.1949 4.5995 0.0 0
M  V30 14 S 4.0391 3.2453 0.0 0
M  V30 15 C 3.7006 5.8136 0.0 0
M  V30 16 C 1.3074 6.7942 0.0 0
M  V30 17 C -5.7786 3.222 0.0 0
M  V30 18 C -6.1171 5.7902 0.0 0
M  V30 19 O 2.8484 2.3464 0.0 0
M  V30 20 O 5.2065 4.1675 0.0 0
M  V30 21 C 4.938 2.0779 0.0 0
M  V30 22 C 2.7783 7.0043 0.0 0
M  V30 23 O -4.8797 2.0546 0.0 0
M  V30 24 C -7.2728 3.0352 0.0 0
M  V30 25 C -7.6114 5.6034 0.0 0
M  V30 26 C 6.4089 2.288 0.0 0
M  V30 27 C 4.3543 0.7004 0.0 0
M  V30 28 C -5.4634 0.677 0.0 0
M  V30 29 C -8.1951 4.2259 0.0 0
M  V30 30 N -9.6893 4.0391 0.0 0
M  V30 31 C -10.6116 5.2299 0.0 0
M  V30 32 C -10.273 2.6616 0.0 0
M  V30 33 C -12.1058 5.0431 0.0 0
M  V30 34 C -11.7673 2.4748 0.0 0
M  V30 35 C -12.6895 3.6656 0.0 0
M  V30 36 N -14.1838 3.4788 0.0 0
M  V30 37 C -15.106 4.6695 0.0 0
M  V30 38 C -14.7675 2.1013 0.0 0
M  V30 39 C -16.6003 4.4827 0.0 0
M  V30 40 C -16.2618 1.9145 0.0 0
M  V30 41 N -17.184 3.1052 0.0 0
M  V30 42 C -18.6783 2.9184 0.0 0
M  V30 END ATOM
M  V30 BEGIN BOND
M  V30 1 1 1 2
M  V30 2 2 2 3
M  V30 3 1 2 4
M  V30 4 1 3 5
M  V30 5 1 3 6
M  V30 6 2 4 7
M  V30 7 2 5 8
M  V30 8 1 6 9
M  V30 9 1 8 10
M  V30 10 2 9 11
M  V30 11 1 9 12
M  V30 12 1 10 13
M  V30 13 1 11 14
M  V30 14 1 11 15
M  V30 15 2 12 16
M  V30 16 2 13 17
M  V30 17 1 13 18
M  V30 18 2 14 19
M  V30 19 2 14 20
M  V30 20 1 14 21
M  V30 21 2 15 22
M  V30 22 1 17 23
M  V30 23 1 17 24
M  V30 24 2 18 25
M  V30 25 1 21 26
M  V30 26 1 21 27
M  V30 27 1 23 28
M  V30 28 2 24 29
M  V30 29 1 29 30
M  V30 30 1 30 31
M  V30 31 1 30 32
M  V30 32 1 31 33
M  V30 33 1 32 34
M  V30 34 1 33 35
M  V30 35 1 35 36
M  V30 36 1 36 37
M  V30 37 1 36 38
M  V30 38 1 37 39
M  V30 39 1 38 40
M  V30 40 1 39 41
M  V30 41 1 41 42
M  V30 42 1 7 8
M  V30 43 1 16 22
M  V30 44 1 25 29
M  V30 45 1 34 35
M  V30 46 1 40 41
M  V30 END BOND
M  V30 END CTAB
M  END
>  <Compound ID>
67

>  <Name>
TAE684

>  <Uniprot>
Q12852

>  <Target>
MAP3K12

>  <Smiles>
COC1=CC(N2CCC(N3CCN(C)CC3)CC2)=CC=C1NC1=NC=C(Cl)C(NC2=CC=CC=C2S(=O)(=O)C(C)C)=N1

>  <Kd (nM)>


>  <Assay (Kd)>


>  <Ki (nM)>


>  <Assay (Ki)>


>  <IC50 (nM)>


>  <Assay (IC50)>


>  <EC50 (nM)>


>  <Assay (EC50)>


>  <Article DOI>
10.1016/j.cell.2020.10.038

>  <Molecular Weight>
614.216

>  <Exact Mass>
613.26018682

>  <XLogP3>
5.67

>  <Heavy Atom Count>
42

>  <Ring Count>
5

>  <Hydrogen Bond Acceptor Count>
10

>  <Hydrogen Bond Donor Count>
2

>  <Rotatable Bond Count>
9

>  <Topological Polar Surface Area>
102.93

>  <Molecular Formula>
C30H40ClN7O3S

>  <InChI>
InChI=1S/C30H40ClN7O3S/c1-21(2)42(39,40)28-8-6-5-7-26(28)33-29-24(31)20-32-30(35-29)34-25-10-9-23(19-27(25)41-4)37-13-11-22(12-14-37)38-17-15-36(3)16-18-38/h5-10,19-22H,11-18H2,1-4H3,(H2,32,33,34,35)

>  <InChI Key>
QQWUGDVOUVUTOY-UHFFFAOYSA-N

>  <BindingDB>
50242742

>  <PubChem>
16038120

>  <ChEMBL>
CHEMBL509032

$$$$
Compound 189
Actelion Java MolfileCreator 2.0

  0  0  0  0  0  0              0 V3000
M  V30 BEGIN CTAB
M  V30 COUNTS 42 46 0 0 0
M  V30 BEGIN ATOM
M  V30 1 Cl 0.0 0.0 0.0 0
M  V30 2 C -0.9222 1.1907 0.0 0
M  V30 3 C -0.3618 2.5916 0.0 0
M  V30 4 C -2.4165 1.0039 0.0 0
M  V30 5 N -1.2841 3.7823 0.0 0
M  V30 6 N 1.109 2.8017 0.0 0
M  V30 7 N -3.3387 2.1947 0.0 0
M  V30 8 C -2.7783 3.5955 0.0 0
M  V30 9 C 1.6693 4.2026 0.0 0
M  V30 10 N -3.7006 4.7863 0.0 0
M  V30 11 C 3.1402 4.4127 0.0 0
M  V30 12 C 0.7471 5.3933 0.0 0
M  V30 13 C -5.1949 4.5995 0.0 0
M  V30 14 S 4.0391 3.2453 0.0 0
M  V30 15 C 3.7006 5.8136 0.0 0
M  V30 16 C 1.3074 6.7942 0.0 0
M  V30 17 C -5.7786 3.222 0.0 0
M  V30 18 C -6.1171 5.7902 0.0 0
M  V30 19 O 2.8484 2.3464 0.0 0
M  V30 20 O 5.2065 4.1675 0.0 0
M  V30 21 C 4.938 2.0779 0.0 0
M  V30 22 C 2.7783 7.0043 0.0 0
M  V30 23 O -4.8797 2.0546 0.0 0
M  V30 24 C -7.2728 3.0352 0.0 0
M  V30 25 C -7.6114 5.6034 0.0 0
M  V30 26 C 6.4089 2.288 0.0 0
M  V30 27 C 4.3543 0.7004 0.0 0
M  V30 28 C -5.4634 0.677 0.0 0
M  V30 29 C -8.1951 4.2259 0.0 0
M  V30 30 N -9.6893 4.0391 0.0 0
M  V30 31 C -10.6116 5.2299 0.0 0
M  V30 32 C -10.273 2.6616 0.0 0
M  V30 33 C -12.1058 5.0431 0.0 0
M  V30 34 C -11.7673 2.4748 0.0 0
M  V30 35 C -12.6895 3.6656 0.0 0
M  V30 36 N -14.1838 3.4788 0.0 0
M  V30 37 C -15.106 4.6695 0.0 0
M  V30 38 C -14.7675 2.1013 0.0 0
M  V30 39 C -16.6003 4.4827 0.0 0
M  V30 40 C -16.2618 1.9145 0.0 0
M  V30 41 N -17.184 3.1052 0.0 0
M  V30 42 C -18.6783 2.9184 0.0 0
M  V30 END ATOM
M  V30 BEGIN BOND
M  V30 1 1 1 2
M  V30 2 2 2 3
M  V30 3 1 2 4
M  V30 4 1 3 5
M  V30 5 1 3 6
M  V30 6 2 4 7
M  V30 7 2 5 8
M  V30 8 1 6 9
M  V30 9 1 8 10
M  V30 10 2 9 11
M  V30 11 1 9 12
M  V30 12 1 10 13
M  V30 13 1 11 14
M  V30 14 1 11 15
M  V30 15 2 12 16
M  V30 16 2 13 17
M  V30 17 1 13 18
M  V30 18 2 14 19
M  V30 19 2 14 20
M  V30 20 1 14 21
M  V30 21 2 15 22
M  V30 22 1 17 23
M  V30 23 1 17 24
M  V30 24 2 18 25
M  V30 25 1 21 26
M  V30 26 1 21 27
M  V30 27 1 23 28
M  V30 28 2 24 29
M  V30 29 1 29 30
M  V30 30 1 30 31
M  V30 31 1 30 32
M  V30 32 1 31 33
M  V30 33 1 32 34
M  V30 34 1 33 35
M  V30 35 1 35 36
M  V30 36 1 36 37
M  V30 37 1 36 38
M  V30 38 1 37 39
M  V30 39 1 38 40
M  V30 40 1 39 41
M  V30 41 1 41 42
M  V30 42 1 7 8
M  V30 43 1 16 22
M  V30 44 1 25 29
M  V30 45 1 34 35
M  V30 46 1 40 41
M  V30 END BOND
M  V30 END CTAB
M  END
>  <Compound ID>
67

>  <Name>
TAE684

>  <Uniprot>
Q13233

>  <Target>
MAP3K1

>  <Smiles>
COC1=CC(N2CCC(N3CCN(C)CC3)CC2)=CC=C1NC1=NC=C(Cl)C(NC2=CC=CC=C2S(=O)(=O)C(C)C)=N1

>  <Kd (nM)>
4300

>  <Assay (Kd)>
Kd was assessed by competition binding assays

>  <Ki (nM)>


>  <Assay (Ki)>


>  <IC50 (nM)>


>  <Assay (IC50)>


>  <EC50 (nM)>


>  <Assay (EC50)>


>  <Article DOI>
10.1038/nbt.1990

>  <Molecular Weight>
614.216

>  <Exact Mass>
613.26018682

>  <XLogP3>
5.67

>  <Heavy Atom Count>
42

>  <Ring Count>
5

>  <Hydrogen Bond Acceptor Count>
10

>  <Hydrogen Bond Donor Count>
2

>  <Rotatable Bond Count>
9

>  <Topological Polar Surface Area>
102.93

>  <Molecular Formula>
C30H40ClN7O3S

>  <InChI>
InChI=1S/C30H40ClN7O3S/c1-21(2)42(39,40)28-8-6-5-7-26(28)33-29-24(31)20-32-30(35-29)34-25-10-9-23(19-27(25)41-4)37-13-11-22(12-14-37)38-17-15-36(3)16-18-38/h5-10,19-22H,11-18H2,1-4H3,(H2,32,33,34,35)

>  <InChI Key>
QQWUGDVOUVUTOY-UHFFFAOYSA-N

>  <BindingDB>
50242742

>  <PubChem>
16038120

>  <ChEMBL>
CHEMBL509032

$$$$
Compound 190
Actelion Java MolfileCreator 2.0

  0  0  0  0  0  0              0 V3000
M  V30 BEGIN CTAB
M  V30 COUNTS 42 46 0 0 0
M  V30 BEGIN ATOM
M  V30 1 Cl 0.0 0.0 0.0 0
M  V30 2 C -0.9222 1.1907 0.0 0
M  V30 3 C -0.3618 2.5916 0.0 0
M  V30 4 C -2.4165 1.0039 0.0 0
M  V30 5 N -1.2841 3.7823 0.0 0
M  V30 6 N 1.109 2.8017 0.0 0
M  V30 7 N -3.3387 2.1947 0.0 0
M  V30 8 C -2.7783 3.5955 0.0 0
M  V30 9 C 1.6693 4.2026 0.0 0
M  V30 10 N -3.7006 4.7863 0.0 0
M  V30 11 C 3.1402 4.4127 0.0 0
M  V30 12 C 0.7471 5.3933 0.0 0
M  V30 13 C -5.1949 4.5995 0.0 0
M  V30 14 S 4.0391 3.2453 0.0 0
M  V30 15 C 3.7006 5.8136 0.0 0
M  V30 16 C 1.3074 6.7942 0.0 0
M  V30 17 C -5.7786 3.222 0.0 0
M  V30 18 C -6.1171 5.7902 0.0 0
M  V30 19 O 2.8484 2.3464 0.0 0
M  V30 20 O 5.2065 4.1675 0.0 0
M  V30 21 C 4.938 2.0779 0.0 0
M  V30 22 C 2.7783 7.0043 0.0 0
M  V30 23 O -4.8797 2.0546 0.0 0
M  V30 24 C -7.2728 3.0352 0.0 0
M  V30 25 C -7.6114 5.6034 0.0 0
M  V30 26 C 6.4089 2.288 0.0 0
M  V30 27 C 4.3543 0.7004 0.0 0
M  V30 28 C -5.4634 0.677 0.0 0
M  V30 29 C -8.1951 4.2259 0.0 0
M  V30 30 N -9.6893 4.0391 0.0 0
M  V30 31 C -10.6116 5.2299 0.0 0
M  V30 32 C -10.273 2.6616 0.0 0
M  V30 33 C -12.1058 5.0431 0.0 0
M  V30 34 C -11.7673 2.4748 0.0 0
M  V30 35 C -12.6895 3.6656 0.0 0
M  V30 36 N -14.1838 3.4788 0.0 0
M  V30 37 C -15.106 4.6695 0.0 0
M  V30 38 C -14.7675 2.1013 0.0 0
M  V30 39 C -16.6003 4.4827 0.0 0
M  V30 40 C -16.2618 1.9145 0.0 0
M  V30 41 N -17.184 3.1052 0.0 0
M  V30 42 C -18.6783 2.9184 0.0 0
M  V30 END ATOM
M  V30 BEGIN BOND
M  V30 1 1 1 2
M  V30 2 2 2 3
M  V30 3 1 2 4
M  V30 4 1 3 5
M  V30 5 1 3 6
M  V30 6 2 4 7
M  V30 7 2 5 8
M  V30 8 1 6 9
M  V30 9 1 8 10
M  V30 10 2 9 11
M  V30 11 1 9 12
M  V30 12 1 10 13
M  V30 13 1 11 14
M  V30 14 1 11 15
M  V30 15 2 12 16
M  V30 16 2 13 17
M  V30 17 1 13 18
M  V30 18 2 14 19
M  V30 19 2 14 20
M  V30 20 1 14 21
M  V30 21 2 15 22
M  V30 22 1 17 23
M  V30 23 1 17 24
M  V30 24 2 18 25
M  V30 25 1 21 26
M  V30 26 1 21 27
M  V30 27 1 23 28
M  V30 28 2 24 29
M  V30 29 1 29 30
M  V30 30 1 30 31
M  V30 31 1 30 32
M  V30 32 1 31 33
M  V30 33 1 32 34
M  V30 34 1 33 35
M  V30 35 1 35 36
M  V30 36 1 36 37
M  V30 37 1 36 38
M  V30 38 1 37 39
M  V30 39 1 38 40
M  V30 40 1 39 41
M  V30 41 1 41 42
M  V30 42 1 7 8
M  V30 43 1 16 22
M  V30 44 1 25 29
M  V30 45 1 34 35
M  V30 46 1 40 41
M  V30 END BOND
M  V30 END CTAB
M  END
>  <Compound ID>
67

>  <Name>
TAE684

>  <Uniprot>
Q5TCX8

>  <Target>
MAP3K21

>  <Smiles>
COC1=CC(N2CCC(N3CCN(C)CC3)CC2)=CC=C1NC1=NC=C(Cl)C(NC2=CC=CC=C2S(=O)(=O)C(C)C)=N1

>  <Kd (nM)>


>  <Assay (Kd)>


>  <Ki (nM)>


>  <Assay (Ki)>


>  <IC50 (nM)>


>  <Assay (IC50)>


>  <EC50 (nM)>


>  <Assay (EC50)>


>  <Article DOI>
10.1016/j.cell.2020.10.038

>  <Molecular Weight>
614.216

>  <Exact Mass>
613.26018682

>  <XLogP3>
5.67

>  <Heavy Atom Count>
42

>  <Ring Count>
5

>  <Hydrogen Bond Acceptor Count>
10

>  <Hydrogen Bond Donor Count>
2

>  <Rotatable Bond Count>
9

>  <Topological Polar Surface Area>
102.93

>  <Molecular Formula>
C30H40ClN7O3S

>  <InChI>
InChI=1S/C30H40ClN7O3S/c1-21(2)42(39,40)28-8-6-5-7-26(28)33-29-24(31)20-32-30(35-29)34-25-10-9-23(19-27(25)41-4)37-13-11-22(12-14-37)38-17-15-36(3)16-18-38/h5-10,19-22H,11-18H2,1-4H3,(H2,32,33,34,35)

>  <InChI Key>
QQWUGDVOUVUTOY-UHFFFAOYSA-N

>  <BindingDB>
50242742

>  <PubChem>
16038120

>  <ChEMBL>
CHEMBL509032

$$$$
Compound 191
Actelion Java MolfileCreator 2.0

  0  0  0  0  0  0              0 V3000
M  V30 BEGIN CTAB
M  V30 COUNTS 42 46 0 0 0
M  V30 BEGIN ATOM
M  V30 1 Cl 0.0 0.0 0.0 0
M  V30 2 C -0.9222 1.1907 0.0 0
M  V30 3 C -0.3618 2.5916 0.0 0
M  V30 4 C -2.4165 1.0039 0.0 0
M  V30 5 N -1.2841 3.7823 0.0 0
M  V30 6 N 1.109 2.8017 0.0 0
M  V30 7 N -3.3387 2.1947 0.0 0
M  V30 8 C -2.7783 3.5955 0.0 0
M  V30 9 C 1.6693 4.2026 0.0 0
M  V30 10 N -3.7006 4.7863 0.0 0
M  V30 11 C 3.1402 4.4127 0.0 0
M  V30 12 C 0.7471 5.3933 0.0 0
M  V30 13 C -5.1949 4.5995 0.0 0
M  V30 14 S 4.0391 3.2453 0.0 0
M  V30 15 C 3.7006 5.8136 0.0 0
M  V30 16 C 1.3074 6.7942 0.0 0
M  V30 17 C -5.7786 3.222 0.0 0
M  V30 18 C -6.1171 5.7902 0.0 0
M  V30 19 O 2.8484 2.3464 0.0 0
M  V30 20 O 5.2065 4.1675 0.0 0
M  V30 21 C 4.938 2.0779 0.0 0
M  V30 22 C 2.7783 7.0043 0.0 0
M  V30 23 O -4.8797 2.0546 0.0 0
M  V30 24 C -7.2728 3.0352 0.0 0
M  V30 25 C -7.6114 5.6034 0.0 0
M  V30 26 C 6.4089 2.288 0.0 0
M  V30 27 C 4.3543 0.7004 0.0 0
M  V30 28 C -5.4634 0.677 0.0 0
M  V30 29 C -8.1951 4.2259 0.0 0
M  V30 30 N -9.6893 4.0391 0.0 0
M  V30 31 C -10.6116 5.2299 0.0 0
M  V30 32 C -10.273 2.6616 0.0 0
M  V30 33 C -12.1058 5.0431 0.0 0
M  V30 34 C -11.7673 2.4748 0.0 0
M  V30 35 C -12.6895 3.6656 0.0 0
M  V30 36 N -14.1838 3.4788 0.0 0
M  V30 37 C -15.106 4.6695 0.0 0
M  V30 38 C -14.7675 2.1013 0.0 0
M  V30 39 C -16.6003 4.4827 0.0 0
M  V30 40 C -16.2618 1.9145 0.0 0
M  V30 41 N -17.184 3.1052 0.0 0
M  V30 42 C -18.6783 2.9184 0.0 0
M  V30 END ATOM
M  V30 BEGIN BOND
M  V30 1 1 1 2
M  V30 2 2 2 3
M  V30 3 1 2 4
M  V30 4 1 3 5
M  V30 5 1 3 6
M  V30 6 2 4 7
M  V30 7 2 5 8
M  V30 8 1 6 9
M  V30 9 1 8 10
M  V30 10 2 9 11
M  V30 11 1 9 12
M  V30 12 1 10 13
M  V30 13 1 11 14
M  V30 14 1 11 15
M  V30 15 2 12 16
M  V30 16 2 13 17
M  V30 17 1 13 18
M  V30 18 2 14 19
M  V30 19 2 14 20
M  V30 20 1 14 21
M  V30 21 2 15 22
M  V30 22 1 17 23
M  V30 23 1 17 24
M  V30 24 2 18 25
M  V30 25 1 21 26
M  V30 26 1 21 27
M  V30 27 1 23 28
M  V30 28 2 24 29
M  V30 29 1 29 30
M  V30 30 1 30 31
M  V30 31 1 30 32
M  V30 32 1 31 33
M  V30 33 1 32 34
M  V30 34 1 33 35
M  V30 35 1 35 36
M  V30 36 1 36 37
M  V30 37 1 36 38
M  V30 38 1 37 39
M  V30 39 1 38 40
M  V30 40 1 39 41
M  V30 41 1 41 42
M  V30 42 1 7 8
M  V30 43 1 16 22
M  V30 44 1 25 29
M  V30 45 1 34 35
M  V30 46 1 40 41
M  V30 END BOND
M  V30 END CTAB
M  END
>  <Compound ID>
67

>  <Name>
TAE684

>  <Uniprot>
Q92918

>  <Target>
MAP4K1

>  <Smiles>
COC1=CC(N2CCC(N3CCN(C)CC3)CC2)=CC=C1NC1=NC=C(Cl)C(NC2=CC=CC=C2S(=O)(=O)C(C)C)=N1

>  <Kd (nM)>
140

>  <Assay (Kd)>
Kd was assessed by competition binding assays

>  <Ki (nM)>


>  <Assay (Ki)>


>  <IC50 (nM)>


>  <Assay (IC50)>


>  <EC50 (nM)>


>  <Assay (EC50)>


>  <Article DOI>
10.1038/nbt.1990

>  <Molecular Weight>
614.216

>  <Exact Mass>
613.26018682

>  <XLogP3>
5.67

>  <Heavy Atom Count>
42

>  <Ring Count>
5

>  <Hydrogen Bond Acceptor Count>
10

>  <Hydrogen Bond Donor Count>
2

>  <Rotatable Bond Count>
9

>  <Topological Polar Surface Area>
102.93

>  <Molecular Formula>
C30H40ClN7O3S

>  <InChI>
InChI=1S/C30H40ClN7O3S/c1-21(2)42(39,40)28-8-6-5-7-26(28)33-29-24(31)20-32-30(35-29)34-25-10-9-23(19-27(25)41-4)37-13-11-22(12-14-37)38-17-15-36(3)16-18-38/h5-10,19-22H,11-18H2,1-4H3,(H2,32,33,34,35)

>  <InChI Key>
QQWUGDVOUVUTOY-UHFFFAOYSA-N

>  <BindingDB>
50242742

>  <PubChem>
16038120

>  <ChEMBL>
CHEMBL509032

$$$$
Compound 192
Actelion Java MolfileCreator 2.0

  0  0  0  0  0  0              0 V3000
M  V30 BEGIN CTAB
M  V30 COUNTS 42 46 0 0 0
M  V30 BEGIN ATOM
M  V30 1 Cl 0.0 0.0 0.0 0
M  V30 2 C -0.9222 1.1907 0.0 0
M  V30 3 C -0.3618 2.5916 0.0 0
M  V30 4 C -2.4165 1.0039 0.0 0
M  V30 5 N -1.2841 3.7823 0.0 0
M  V30 6 N 1.109 2.8017 0.0 0
M  V30 7 N -3.3387 2.1947 0.0 0
M  V30 8 C -2.7783 3.5955 0.0 0
M  V30 9 C 1.6693 4.2026 0.0 0
M  V30 10 N -3.7006 4.7863 0.0 0
M  V30 11 C 3.1402 4.4127 0.0 0
M  V30 12 C 0.7471 5.3933 0.0 0
M  V30 13 C -5.1949 4.5995 0.0 0
M  V30 14 S 4.0391 3.2453 0.0 0
M  V30 15 C 3.7006 5.8136 0.0 0
M  V30 16 C 1.3074 6.7942 0.0 0
M  V30 17 C -5.7786 3.222 0.0 0
M  V30 18 C -6.1171 5.7902 0.0 0
M  V30 19 O 2.8484 2.3464 0.0 0
M  V30 20 O 5.2065 4.1675 0.0 0
M  V30 21 C 4.938 2.0779 0.0 0
M  V30 22 C 2.7783 7.0043 0.0 0
M  V30 23 O -4.8797 2.0546 0.0 0
M  V30 24 C -7.2728 3.0352 0.0 0
M  V30 25 C -7.6114 5.6034 0.0 0
M  V30 26 C 6.4089 2.288 0.0 0
M  V30 27 C 4.3543 0.7004 0.0 0
M  V30 28 C -5.4634 0.677 0.0 0
M  V30 29 C -8.1951 4.2259 0.0 0
M  V30 30 N -9.6893 4.0391 0.0 0
M  V30 31 C -10.6116 5.2299 0.0 0
M  V30 32 C -10.273 2.6616 0.0 0
M  V30 33 C -12.1058 5.0431 0.0 0
M  V30 34 C -11.7673 2.4748 0.0 0
M  V30 35 C -12.6895 3.6656 0.0 0
M  V30 36 N -14.1838 3.4788 0.0 0
M  V30 37 C -15.106 4.6695 0.0 0
M  V30 38 C -14.7675 2.1013 0.0 0
M  V30 39 C -16.6003 4.4827 0.0 0
M  V30 40 C -16.2618 1.9145 0.0 0
M  V30 41 N -17.184 3.1052 0.0 0
M  V30 42 C -18.6783 2.9184 0.0 0
M  V30 END ATOM
M  V30 BEGIN BOND
M  V30 1 1 1 2
M  V30 2 2 2 3
M  V30 3 1 2 4
M  V30 4 1 3 5
M  V30 5 1 3 6
M  V30 6 2 4 7
M  V30 7 2 5 8
M  V30 8 1 6 9
M  V30 9 1 8 10
M  V30 10 2 9 11
M  V30 11 1 9 12
M  V30 12 1 10 13
M  V30 13 1 11 14
M  V30 14 1 11 15
M  V30 15 2 12 16
M  V30 16 2 13 17
M  V30 17 1 13 18
M  V30 18 2 14 19
M  V30 19 2 14 20
M  V30 20 1 14 21
M  V30 21 2 15 22
M  V30 22 1 17 23
M  V30 23 1 17 24
M  V30 24 2 18 25
M  V30 25 1 21 26
M  V30 26 1 21 27
M  V30 27 1 23 28
M  V30 28 2 24 29
M  V30 29 1 29 30
M  V30 30 1 30 31
M  V30 31 1 30 32
M  V30 32 1 31 33
M  V30 33 1 32 34
M  V30 34 1 33 35
M  V30 35 1 35 36
M  V30 36 1 36 37
M  V30 37 1 36 38
M  V30 38 1 37 39
M  V30 39 1 38 40
M  V30 40 1 39 41
M  V30 41 1 41 42
M  V30 42 1 7 8
M  V30 43 1 16 22
M  V30 44 1 25 29
M  V30 45 1 34 35
M  V30 46 1 40 41
M  V30 END BOND
M  V30 END CTAB
M  END
>  <Compound ID>
67

>  <Name>
TAE684

>  <Uniprot>
Q12851

>  <Target>
MAP4K2

>  <Smiles>
COC1=CC(N2CCC(N3CCN(C)CC3)CC2)=CC=C1NC1=NC=C(Cl)C(NC2=CC=CC=C2S(=O)(=O)C(C)C)=N1

>  <Kd (nM)>
190

>  <Assay (Kd)>
Kd was assessed by competition binding assays

>  <Ki (nM)>


>  <Assay (Ki)>


>  <IC50 (nM)>


>  <Assay (IC50)>


>  <EC50 (nM)>


>  <Assay (EC50)>


>  <Article DOI>
10.1038/nbt.1990

>  <Molecular Weight>
614.216

>  <Exact Mass>
613.26018682

>  <XLogP3>
5.67

>  <Heavy Atom Count>
42

>  <Ring Count>
5

>  <Hydrogen Bond Acceptor Count>
10

>  <Hydrogen Bond Donor Count>
2

>  <Rotatable Bond Count>
9

>  <Topological Polar Surface Area>
102.93

>  <Molecular Formula>
C30H40ClN7O3S

>  <InChI>
InChI=1S/C30H40ClN7O3S/c1-21(2)42(39,40)28-8-6-5-7-26(28)33-29-24(31)20-32-30(35-29)34-25-10-9-23(19-27(25)41-4)37-13-11-22(12-14-37)38-17-15-36(3)16-18-38/h5-10,19-22H,11-18H2,1-4H3,(H2,32,33,34,35)

>  <InChI Key>
QQWUGDVOUVUTOY-UHFFFAOYSA-N

>  <BindingDB>
50242742

>  <PubChem>
16038120

>  <ChEMBL>
CHEMBL509032

$$$$
Compound 193
Actelion Java MolfileCreator 2.0

  0  0  0  0  0  0              0 V3000
M  V30 BEGIN CTAB
M  V30 COUNTS 42 46 0 0 0
M  V30 BEGIN ATOM
M  V30 1 Cl 0.0 0.0 0.0 0
M  V30 2 C -0.9222 1.1907 0.0 0
M  V30 3 C -0.3618 2.5916 0.0 0
M  V30 4 C -2.4165 1.0039 0.0 0
M  V30 5 N -1.2841 3.7823 0.0 0
M  V30 6 N 1.109 2.8017 0.0 0
M  V30 7 N -3.3387 2.1947 0.0 0
M  V30 8 C -2.7783 3.5955 0.0 0
M  V30 9 C 1.6693 4.2026 0.0 0
M  V30 10 N -3.7006 4.7863 0.0 0
M  V30 11 C 3.1402 4.4127 0.0 0
M  V30 12 C 0.7471 5.3933 0.0 0
M  V30 13 C -5.1949 4.5995 0.0 0
M  V30 14 S 4.0391 3.2453 0.0 0
M  V30 15 C 3.7006 5.8136 0.0 0
M  V30 16 C 1.3074 6.7942 0.0 0
M  V30 17 C -5.7786 3.222 0.0 0
M  V30 18 C -6.1171 5.7902 0.0 0
M  V30 19 O 2.8484 2.3464 0.0 0
M  V30 20 O 5.2065 4.1675 0.0 0
M  V30 21 C 4.938 2.0779 0.0 0
M  V30 22 C 2.7783 7.0043 0.0 0
M  V30 23 O -4.8797 2.0546 0.0 0
M  V30 24 C -7.2728 3.0352 0.0 0
M  V30 25 C -7.6114 5.6034 0.0 0
M  V30 26 C 6.4089 2.288 0.0 0
M  V30 27 C 4.3543 0.7004 0.0 0
M  V30 28 C -5.4634 0.677 0.0 0
M  V30 29 C -8.1951 4.2259 0.0 0
M  V30 30 N -9.6893 4.0391 0.0 0
M  V30 31 C -10.6116 5.2299 0.0 0
M  V30 32 C -10.273 2.6616 0.0 0
M  V30 33 C -12.1058 5.0431 0.0 0
M  V30 34 C -11.7673 2.4748 0.0 0
M  V30 35 C -12.6895 3.6656 0.0 0
M  V30 36 N -14.1838 3.4788 0.0 0
M  V30 37 C -15.106 4.6695 0.0 0
M  V30 38 C -14.7675 2.1013 0.0 0
M  V30 39 C -16.6003 4.4827 0.0 0
M  V30 40 C -16.2618 1.9145 0.0 0
M  V30 41 N -17.184 3.1052 0.0 0
M  V30 42 C -18.6783 2.9184 0.0 0
M  V30 END ATOM
M  V30 BEGIN BOND
M  V30 1 1 1 2
M  V30 2 2 2 3
M  V30 3 1 2 4
M  V30 4 1 3 5
M  V30 5 1 3 6
M  V30 6 2 4 7
M  V30 7 2 5 8
M  V30 8 1 6 9
M  V30 9 1 8 10
M  V30 10 2 9 11
M  V30 11 1 9 12
M  V30 12 1 10 13
M  V30 13 1 11 14
M  V30 14 1 11 15
M  V30 15 2 12 16
M  V30 16 2 13 17
M  V30 17 1 13 18
M  V30 18 2 14 19
M  V30 19 2 14 20
M  V30 20 1 14 21
M  V30 21 2 15 22
M  V30 22 1 17 23
M  V30 23 1 17 24
M  V30 24 2 18 25
M  V30 25 1 21 26
M  V30 26 1 21 27
M  V30 27 1 23 28
M  V30 28 2 24 29
M  V30 29 1 29 30
M  V30 30 1 30 31
M  V30 31 1 30 32
M  V30 32 1 31 33
M  V30 33 1 32 34
M  V30 34 1 33 35
M  V30 35 1 35 36
M  V30 36 1 36 37
M  V30 37 1 36 38
M  V30 38 1 37 39
M  V30 39 1 38 40
M  V30 40 1 39 41
M  V30 41 1 41 42
M  V30 42 1 7 8
M  V30 43 1 16 22
M  V30 44 1 25 29
M  V30 45 1 34 35
M  V30 46 1 40 41
M  V30 END BOND
M  V30 END CTAB
M  END
>  <Compound ID>
67

>  <Name>
TAE684

>  <Uniprot>
Q8IVH8

>  <Target>
MAP4K3

>  <Smiles>
COC1=CC(N2CCC(N3CCN(C)CC3)CC2)=CC=C1NC1=NC=C(Cl)C(NC2=CC=CC=C2S(=O)(=O)C(C)C)=N1

>  <Kd (nM)>
65

>  <Assay (Kd)>
Kd was assessed by competition binding assays

>  <Ki (nM)>


>  <Assay (Ki)>


>  <IC50 (nM)>


>  <Assay (IC50)>


>  <EC50 (nM)>


>  <Assay (EC50)>


>  <Article DOI>
10.1038/nbt.1990

>  <Molecular Weight>
614.216

>  <Exact Mass>
613.26018682

>  <XLogP3>
5.67

>  <Heavy Atom Count>
42

>  <Ring Count>
5

>  <Hydrogen Bond Acceptor Count>
10

>  <Hydrogen Bond Donor Count>
2

>  <Rotatable Bond Count>
9

>  <Topological Polar Surface Area>
102.93

>  <Molecular Formula>
C30H40ClN7O3S

>  <InChI>
InChI=1S/C30H40ClN7O3S/c1-21(2)42(39,40)28-8-6-5-7-26(28)33-29-24(31)20-32-30(35-29)34-25-10-9-23(19-27(25)41-4)37-13-11-22(12-14-37)38-17-15-36(3)16-18-38/h5-10,19-22H,11-18H2,1-4H3,(H2,32,33,34,35)

>  <InChI Key>
QQWUGDVOUVUTOY-UHFFFAOYSA-N

>  <BindingDB>
50242742

>  <PubChem>
16038120

>  <ChEMBL>
CHEMBL509032

$$$$
Compound 194
Actelion Java MolfileCreator 2.0

  0  0  0  0  0  0              0 V3000
M  V30 BEGIN CTAB
M  V30 COUNTS 42 46 0 0 0
M  V30 BEGIN ATOM
M  V30 1 Cl 0.0 0.0 0.0 0
M  V30 2 C -0.9222 1.1907 0.0 0
M  V30 3 C -0.3618 2.5916 0.0 0
M  V30 4 C -2.4165 1.0039 0.0 0
M  V30 5 N -1.2841 3.7823 0.0 0
M  V30 6 N 1.109 2.8017 0.0 0
M  V30 7 N -3.3387 2.1947 0.0 0
M  V30 8 C -2.7783 3.5955 0.0 0
M  V30 9 C 1.6693 4.2026 0.0 0
M  V30 10 N -3.7006 4.7863 0.0 0
M  V30 11 C 3.1402 4.4127 0.0 0
M  V30 12 C 0.7471 5.3933 0.0 0
M  V30 13 C -5.1949 4.5995 0.0 0
M  V30 14 S 4.0391 3.2453 0.0 0
M  V30 15 C 3.7006 5.8136 0.0 0
M  V30 16 C 1.3074 6.7942 0.0 0
M  V30 17 C -5.7786 3.222 0.0 0
M  V30 18 C -6.1171 5.7902 0.0 0
M  V30 19 O 2.8484 2.3464 0.0 0
M  V30 20 O 5.2065 4.1675 0.0 0
M  V30 21 C 4.938 2.0779 0.0 0
M  V30 22 C 2.7783 7.0043 0.0 0
M  V30 23 O -4.8797 2.0546 0.0 0
M  V30 24 C -7.2728 3.0352 0.0 0
M  V30 25 C -7.6114 5.6034 0.0 0
M  V30 26 C 6.4089 2.288 0.0 0
M  V30 27 C 4.3543 0.7004 0.0 0
M  V30 28 C -5.4634 0.677 0.0 0
M  V30 29 C -8.1951 4.2259 0.0 0
M  V30 30 N -9.6893 4.0391 0.0 0
M  V30 31 C -10.6116 5.2299 0.0 0
M  V30 32 C -10.273 2.6616 0.0 0
M  V30 33 C -12.1058 5.0431 0.0 0
M  V30 34 C -11.7673 2.4748 0.0 0
M  V30 35 C -12.6895 3.6656 0.0 0
M  V30 36 N -14.1838 3.4788 0.0 0
M  V30 37 C -15.106 4.6695 0.0 0
M  V30 38 C -14.7675 2.1013 0.0 0
M  V30 39 C -16.6003 4.4827 0.0 0
M  V30 40 C -16.2618 1.9145 0.0 0
M  V30 41 N -17.184 3.1052 0.0 0
M  V30 42 C -18.6783 2.9184 0.0 0
M  V30 END ATOM
M  V30 BEGIN BOND
M  V30 1 1 1 2
M  V30 2 2 2 3
M  V30 3 1 2 4
M  V30 4 1 3 5
M  V30 5 1 3 6
M  V30 6 2 4 7
M  V30 7 2 5 8
M  V30 8 1 6 9
M  V30 9 1 8 10
M  V30 10 2 9 11
M  V30 11 1 9 12
M  V30 12 1 10 13
M  V30 13 1 11 14
M  V30 14 1 11 15
M  V30 15 2 12 16
M  V30 16 2 13 17
M  V30 17 1 13 18
M  V30 18 2 14 19
M  V30 19 2 14 20
M  V30 20 1 14 21
M  V30 21 2 15 22
M  V30 22 1 17 23
M  V30 23 1 17 24
M  V30 24 2 18 25
M  V30 25 1 21 26
M  V30 26 1 21 27
M  V30 27 1 23 28
M  V30 28 2 24 29
M  V30 29 1 29 30
M  V30 30 1 30 31
M  V30 31 1 30 32
M  V30 32 1 31 33
M  V30 33 1 32 34
M  V30 34 1 33 35
M  V30 35 1 35 36
M  V30 36 1 36 37
M  V30 37 1 36 38
M  V30 38 1 37 39
M  V30 39 1 38 40
M  V30 40 1 39 41
M  V30 41 1 41 42
M  V30 42 1 7 8
M  V30 43 1 16 22
M  V30 44 1 25 29
M  V30 45 1 34 35
M  V30 46 1 40 41
M  V30 END BOND
M  V30 END CTAB
M  END
>  <Compound ID>
67

>  <Name>
TAE684

>  <Uniprot>
Q16659

>  <Target>
MAPK6

>  <Smiles>
COC1=CC(N2CCC(N3CCN(C)CC3)CC2)=CC=C1NC1=NC=C(Cl)C(NC2=CC=CC=C2S(=O)(=O)C(C)C)=N1

>  <Kd (nM)>
>10000

>  <Assay (Kd)>
Kd was assessed by competition binding assays

>  <Ki (nM)>


>  <Assay (Ki)>


>  <IC50 (nM)>


>  <Assay (IC50)>


>  <EC50 (nM)>


>  <Assay (EC50)>


>  <Article DOI>
10.1038/nbt.1990

>  <Molecular Weight>
614.216

>  <Exact Mass>
613.26018682

>  <XLogP3>
5.67

>  <Heavy Atom Count>
42

>  <Ring Count>
5

>  <Hydrogen Bond Acceptor Count>
10

>  <Hydrogen Bond Donor Count>
2

>  <Rotatable Bond Count>
9

>  <Topological Polar Surface Area>
102.93

>  <Molecular Formula>
C30H40ClN7O3S

>  <InChI>
InChI=1S/C30H40ClN7O3S/c1-21(2)42(39,40)28-8-6-5-7-26(28)33-29-24(31)20-32-30(35-29)34-25-10-9-23(19-27(25)41-4)37-13-11-22(12-14-37)38-17-15-36(3)16-18-38/h5-10,19-22H,11-18H2,1-4H3,(H2,32,33,34,35)

>  <InChI Key>
QQWUGDVOUVUTOY-UHFFFAOYSA-N

>  <BindingDB>
50242742

>  <PubChem>
16038120

>  <ChEMBL>
CHEMBL509032

$$$$
Compound 195
Actelion Java MolfileCreator 2.0

  0  0  0  0  0  0              0 V3000
M  V30 BEGIN CTAB
M  V30 COUNTS 42 46 0 0 0
M  V30 BEGIN ATOM
M  V30 1 Cl 0.0 0.0 0.0 0
M  V30 2 C -0.9222 1.1907 0.0 0
M  V30 3 C -0.3618 2.5916 0.0 0
M  V30 4 C -2.4165 1.0039 0.0 0
M  V30 5 N -1.2841 3.7823 0.0 0
M  V30 6 N 1.109 2.8017 0.0 0
M  V30 7 N -3.3387 2.1947 0.0 0
M  V30 8 C -2.7783 3.5955 0.0 0
M  V30 9 C 1.6693 4.2026 0.0 0
M  V30 10 N -3.7006 4.7863 0.0 0
M  V30 11 C 3.1402 4.4127 0.0 0
M  V30 12 C 0.7471 5.3933 0.0 0
M  V30 13 C -5.1949 4.5995 0.0 0
M  V30 14 S 4.0391 3.2453 0.0 0
M  V30 15 C 3.7006 5.8136 0.0 0
M  V30 16 C 1.3074 6.7942 0.0 0
M  V30 17 C -5.7786 3.222 0.0 0
M  V30 18 C -6.1171 5.7902 0.0 0
M  V30 19 O 2.8484 2.3464 0.0 0
M  V30 20 O 5.2065 4.1675 0.0 0
M  V30 21 C 4.938 2.0779 0.0 0
M  V30 22 C 2.7783 7.0043 0.0 0
M  V30 23 O -4.8797 2.0546 0.0 0
M  V30 24 C -7.2728 3.0352 0.0 0
M  V30 25 C -7.6114 5.6034 0.0 0
M  V30 26 C 6.4089 2.288 0.0 0
M  V30 27 C 4.3543 0.7004 0.0 0
M  V30 28 C -5.4634 0.677 0.0 0
M  V30 29 C -8.1951 4.2259 0.0 0
M  V30 30 N -9.6893 4.0391 0.0 0
M  V30 31 C -10.6116 5.2299 0.0 0
M  V30 32 C -10.273 2.6616 0.0 0
M  V30 33 C -12.1058 5.0431 0.0 0
M  V30 34 C -11.7673 2.4748 0.0 0
M  V30 35 C -12.6895 3.6656 0.0 0
M  V30 36 N -14.1838 3.4788 0.0 0
M  V30 37 C -15.106 4.6695 0.0 0
M  V30 38 C -14.7675 2.1013 0.0 0
M  V30 39 C -16.6003 4.4827 0.0 0
M  V30 40 C -16.2618 1.9145 0.0 0
M  V30 41 N -17.184 3.1052 0.0 0
M  V30 42 C -18.6783 2.9184 0.0 0
M  V30 END ATOM
M  V30 BEGIN BOND
M  V30 1 1 1 2
M  V30 2 2 2 3
M  V30 3 1 2 4
M  V30 4 1 3 5
M  V30 5 1 3 6
M  V30 6 2 4 7
M  V30 7 2 5 8
M  V30 8 1 6 9
M  V30 9 1 8 10
M  V30 10 2 9 11
M  V30 11 1 9 12
M  V30 12 1 10 13
M  V30 13 1 11 14
M  V30 14 1 11 15
M  V30 15 2 12 16
M  V30 16 2 13 17
M  V30 17 1 13 18
M  V30 18 2 14 19
M  V30 19 2 14 20
M  V30 20 1 14 21
M  V30 21 2 15 22
M  V30 22 1 17 23
M  V30 23 1 17 24
M  V30 24 2 18 25
M  V30 25 1 21 26
M  V30 26 1 21 27
M  V30 27 1 23 28
M  V30 28 2 24 29
M  V30 29 1 29 30
M  V30 30 1 30 31
M  V30 31 1 30 32
M  V30 32 1 31 33
M  V30 33 1 32 34
M  V30 34 1 33 35
M  V30 35 1 35 36
M  V30 36 1 36 37
M  V30 37 1 36 38
M  V30 38 1 37 39
M  V30 39 1 38 40
M  V30 40 1 39 41
M  V30 41 1 41 42
M  V30 42 1 7 8
M  V30 43 1 16 22
M  V30 44 1 25 29
M  V30 45 1 34 35
M  V30 46 1 40 41
M  V30 END BOND
M  V30 END CTAB
M  END
>  <Compound ID>
67

>  <Name>
TAE684

>  <Uniprot>
Q13164

>  <Target>
MAPK7

>  <Smiles>
COC1=CC(N2CCC(N3CCN(C)CC3)CC2)=CC=C1NC1=NC=C(Cl)C(NC2=CC=CC=C2S(=O)(=O)C(C)C)=N1

>  <Kd (nM)>
48

>  <Assay (Kd)>
Kd was assessed by competition binding assays

>  <Ki (nM)>


>  <Assay (Ki)>


>  <IC50 (nM)>


>  <Assay (IC50)>


>  <EC50 (nM)>


>  <Assay (EC50)>


>  <Article DOI>
10.1038/nbt.1990

>  <Molecular Weight>
614.216

>  <Exact Mass>
613.26018682

>  <XLogP3>
5.67

>  <Heavy Atom Count>
42

>  <Ring Count>
5

>  <Hydrogen Bond Acceptor Count>
10

>  <Hydrogen Bond Donor Count>
2

>  <Rotatable Bond Count>
9

>  <Topological Polar Surface Area>
102.93

>  <Molecular Formula>
C30H40ClN7O3S

>  <InChI>
InChI=1S/C30H40ClN7O3S/c1-21(2)42(39,40)28-8-6-5-7-26(28)33-29-24(31)20-32-30(35-29)34-25-10-9-23(19-27(25)41-4)37-13-11-22(12-14-37)38-17-15-36(3)16-18-38/h5-10,19-22H,11-18H2,1-4H3,(H2,32,33,34,35)

>  <InChI Key>
QQWUGDVOUVUTOY-UHFFFAOYSA-N

>  <BindingDB>
50242742

>  <PubChem>
16038120

>  <ChEMBL>
CHEMBL509032

$$$$
Compound 196
Actelion Java MolfileCreator 2.0

  0  0  0  0  0  0              0 V3000
M  V30 BEGIN CTAB
M  V30 COUNTS 42 46 0 0 0
M  V30 BEGIN ATOM
M  V30 1 Cl 0.0 0.0 0.0 0
M  V30 2 C -0.9222 1.1907 0.0 0
M  V30 3 C -0.3618 2.5916 0.0 0
M  V30 4 C -2.4165 1.0039 0.0 0
M  V30 5 N -1.2841 3.7823 0.0 0
M  V30 6 N 1.109 2.8017 0.0 0
M  V30 7 N -3.3387 2.1947 0.0 0
M  V30 8 C -2.7783 3.5955 0.0 0
M  V30 9 C 1.6693 4.2026 0.0 0
M  V30 10 N -3.7006 4.7863 0.0 0
M  V30 11 C 3.1402 4.4127 0.0 0
M  V30 12 C 0.7471 5.3933 0.0 0
M  V30 13 C -5.1949 4.5995 0.0 0
M  V30 14 S 4.0391 3.2453 0.0 0
M  V30 15 C 3.7006 5.8136 0.0 0
M  V30 16 C 1.3074 6.7942 0.0 0
M  V30 17 C -5.7786 3.222 0.0 0
M  V30 18 C -6.1171 5.7902 0.0 0
M  V30 19 O 2.8484 2.3464 0.0 0
M  V30 20 O 5.2065 4.1675 0.0 0
M  V30 21 C 4.938 2.0779 0.0 0
M  V30 22 C 2.7783 7.0043 0.0 0
M  V30 23 O -4.8797 2.0546 0.0 0
M  V30 24 C -7.2728 3.0352 0.0 0
M  V30 25 C -7.6114 5.6034 0.0 0
M  V30 26 C 6.4089 2.288 0.0 0
M  V30 27 C 4.3543 0.7004 0.0 0
M  V30 28 C -5.4634 0.677 0.0 0
M  V30 29 C -8.1951 4.2259 0.0 0
M  V30 30 N -9.6893 4.0391 0.0 0
M  V30 31 C -10.6116 5.2299 0.0 0
M  V30 32 C -10.273 2.6616 0.0 0
M  V30 33 C -12.1058 5.0431 0.0 0
M  V30 34 C -11.7673 2.4748 0.0 0
M  V30 35 C -12.6895 3.6656 0.0 0
M  V30 36 N -14.1838 3.4788 0.0 0
M  V30 37 C -15.106 4.6695 0.0 0
M  V30 38 C -14.7675 2.1013 0.0 0
M  V30 39 C -16.6003 4.4827 0.0 0
M  V30 40 C -16.2618 1.9145 0.0 0
M  V30 41 N -17.184 3.1052 0.0 0
M  V30 42 C -18.6783 2.9184 0.0 0
M  V30 END ATOM
M  V30 BEGIN BOND
M  V30 1 1 1 2
M  V30 2 2 2 3
M  V30 3 1 2 4
M  V30 4 1 3 5
M  V30 5 1 3 6
M  V30 6 2 4 7
M  V30 7 2 5 8
M  V30 8 1 6 9
M  V30 9 1 8 10
M  V30 10 2 9 11
M  V30 11 1 9 12
M  V30 12 1 10 13
M  V30 13 1 11 14
M  V30 14 1 11 15
M  V30 15 2 12 16
M  V30 16 2 13 17
M  V30 17 1 13 18
M  V30 18 2 14 19
M  V30 19 2 14 20
M  V30 20 1 14 21
M  V30 21 2 15 22
M  V30 22 1 17 23
M  V30 23 1 17 24
M  V30 24 2 18 25
M  V30 25 1 21 26
M  V30 26 1 21 27
M  V30 27 1 23 28
M  V30 28 2 24 29
M  V30 29 1 29 30
M  V30 30 1 30 31
M  V30 31 1 30 32
M  V30 32 1 31 33
M  V30 33 1 32 34
M  V30 34 1 33 35
M  V30 35 1 35 36
M  V30 36 1 36 37
M  V30 37 1 36 38
M  V30 38 1 37 39
M  V30 39 1 38 40
M  V30 40 1 39 41
M  V30 41 1 41 42
M  V30 42 1 7 8
M  V30 43 1 16 22
M  V30 44 1 25 29
M  V30 45 1 34 35
M  V30 46 1 40 41
M  V30 END BOND
M  V30 END CTAB
M  END
>  <Compound ID>
67

>  <Name>
TAE684

>  <Uniprot>
Q7KZI7

>  <Target>
MARK2

>  <Smiles>
COC1=CC(N2CCC(N3CCN(C)CC3)CC2)=CC=C1NC1=NC=C(Cl)C(NC2=CC=CC=C2S(=O)(=O)C(C)C)=N1

>  <Kd (nM)>
44

>  <Assay (Kd)>
Kd was assessed by competition binding assays

>  <Ki (nM)>


>  <Assay (Ki)>


>  <IC50 (nM)>


>  <Assay (IC50)>


>  <EC50 (nM)>


>  <Assay (EC50)>


>  <Article DOI>
10.1038/nbt.1990

>  <Molecular Weight>
614.216

>  <Exact Mass>
613.26018682

>  <XLogP3>
5.67

>  <Heavy Atom Count>
42

>  <Ring Count>
5

>  <Hydrogen Bond Acceptor Count>
10

>  <Hydrogen Bond Donor Count>
2

>  <Rotatable Bond Count>
9

>  <Topological Polar Surface Area>
102.93

>  <Molecular Formula>
C30H40ClN7O3S

>  <InChI>
InChI=1S/C30H40ClN7O3S/c1-21(2)42(39,40)28-8-6-5-7-26(28)33-29-24(31)20-32-30(35-29)34-25-10-9-23(19-27(25)41-4)37-13-11-22(12-14-37)38-17-15-36(3)16-18-38/h5-10,19-22H,11-18H2,1-4H3,(H2,32,33,34,35)

>  <InChI Key>
QQWUGDVOUVUTOY-UHFFFAOYSA-N

>  <BindingDB>
50242742

>  <PubChem>
16038120

>  <ChEMBL>
CHEMBL509032

$$$$
Compound 197
Actelion Java MolfileCreator 2.0

  0  0  0  0  0  0              0 V3000
M  V30 BEGIN CTAB
M  V30 COUNTS 42 46 0 0 0
M  V30 BEGIN ATOM
M  V30 1 Cl 0.0 0.0 0.0 0
M  V30 2 C -0.9222 1.1907 0.0 0
M  V30 3 C -0.3618 2.5916 0.0 0
M  V30 4 C -2.4165 1.0039 0.0 0
M  V30 5 N -1.2841 3.7823 0.0 0
M  V30 6 N 1.109 2.8017 0.0 0
M  V30 7 N -3.3387 2.1947 0.0 0
M  V30 8 C -2.7783 3.5955 0.0 0
M  V30 9 C 1.6693 4.2026 0.0 0
M  V30 10 N -3.7006 4.7863 0.0 0
M  V30 11 C 3.1402 4.4127 0.0 0
M  V30 12 C 0.7471 5.3933 0.0 0
M  V30 13 C -5.1949 4.5995 0.0 0
M  V30 14 S 4.0391 3.2453 0.0 0
M  V30 15 C 3.7006 5.8136 0.0 0
M  V30 16 C 1.3074 6.7942 0.0 0
M  V30 17 C -5.7786 3.222 0.0 0
M  V30 18 C -6.1171 5.7902 0.0 0
M  V30 19 O 2.8484 2.3464 0.0 0
M  V30 20 O 5.2065 4.1675 0.0 0
M  V30 21 C 4.938 2.0779 0.0 0
M  V30 22 C 2.7783 7.0043 0.0 0
M  V30 23 O -4.8797 2.0546 0.0 0
M  V30 24 C -7.2728 3.0352 0.0 0
M  V30 25 C -7.6114 5.6034 0.0 0
M  V30 26 C 6.4089 2.288 0.0 0
M  V30 27 C 4.3543 0.7004 0.0 0
M  V30 28 C -5.4634 0.677 0.0 0
M  V30 29 C -8.1951 4.2259 0.0 0
M  V30 30 N -9.6893 4.0391 0.0 0
M  V30 31 C -10.6116 5.2299 0.0 0
M  V30 32 C -10.273 2.6616 0.0 0
M  V30 33 C -12.1058 5.0431 0.0 0
M  V30 34 C -11.7673 2.4748 0.0 0
M  V30 35 C -12.6895 3.6656 0.0 0
M  V30 36 N -14.1838 3.4788 0.0 0
M  V30 37 C -15.106 4.6695 0.0 0
M  V30 38 C -14.7675 2.1013 0.0 0
M  V30 39 C -16.6003 4.4827 0.0 0
M  V30 40 C -16.2618 1.9145 0.0 0
M  V30 41 N -17.184 3.1052 0.0 0
M  V30 42 C -18.6783 2.9184 0.0 0
M  V30 END ATOM
M  V30 BEGIN BOND
M  V30 1 1 1 2
M  V30 2 2 2 3
M  V30 3 1 2 4
M  V30 4 1 3 5
M  V30 5 1 3 6
M  V30 6 2 4 7
M  V30 7 2 5 8
M  V30 8 1 6 9
M  V30 9 1 8 10
M  V30 10 2 9 11
M  V30 11 1 9 12
M  V30 12 1 10 13
M  V30 13 1 11 14
M  V30 14 1 11 15
M  V30 15 2 12 16
M  V30 16 2 13 17
M  V30 17 1 13 18
M  V30 18 2 14 19
M  V30 19 2 14 20
M  V30 20 1 14 21
M  V30 21 2 15 22
M  V30 22 1 17 23
M  V30 23 1 17 24
M  V30 24 2 18 25
M  V30 25 1 21 26
M  V30 26 1 21 27
M  V30 27 1 23 28
M  V30 28 2 24 29
M  V30 29 1 29 30
M  V30 30 1 30 31
M  V30 31 1 30 32
M  V30 32 1 31 33
M  V30 33 1 32 34
M  V30 34 1 33 35
M  V30 35 1 35 36
M  V30 36 1 36 37
M  V30 37 1 36 38
M  V30 38 1 37 39
M  V30 39 1 38 40
M  V30 40 1 39 41
M  V30 41 1 41 42
M  V30 42 1 7 8
M  V30 43 1 16 22
M  V30 44 1 25 29
M  V30 45 1 34 35
M  V30 46 1 40 41
M  V30 END BOND
M  V30 END CTAB
M  END
>  <Compound ID>
67

>  <Name>
TAE684

>  <Uniprot>
Q96L34

>  <Target>
MARK4

>  <Smiles>
COC1=CC(N2CCC(N3CCN(C)CC3)CC2)=CC=C1NC1=NC=C(Cl)C(NC2=CC=CC=C2S(=O)(=O)C(C)C)=N1

>  <Kd (nM)>
12

>  <Assay (Kd)>
Kd was assessed by competition binding assays

>  <Ki (nM)>


>  <Assay (Ki)>


>  <IC50 (nM)>


>  <Assay (IC50)>


>  <EC50 (nM)>


>  <Assay (EC50)>


>  <Article DOI>
10.1038/nbt.1990

>  <Molecular Weight>
614.216

>  <Exact Mass>
613.26018682

>  <XLogP3>
5.67

>  <Heavy Atom Count>
42

>  <Ring Count>
5

>  <Hydrogen Bond Acceptor Count>
10

>  <Hydrogen Bond Donor Count>
2

>  <Rotatable Bond Count>
9

>  <Topological Polar Surface Area>
102.93

>  <Molecular Formula>
C30H40ClN7O3S

>  <InChI>
InChI=1S/C30H40ClN7O3S/c1-21(2)42(39,40)28-8-6-5-7-26(28)33-29-24(31)20-32-30(35-29)34-25-10-9-23(19-27(25)41-4)37-13-11-22(12-14-37)38-17-15-36(3)16-18-38/h5-10,19-22H,11-18H2,1-4H3,(H2,32,33,34,35)

>  <InChI Key>
QQWUGDVOUVUTOY-UHFFFAOYSA-N

>  <BindingDB>
50242742

>  <PubChem>
16038120

>  <ChEMBL>
CHEMBL509032

$$$$
Compound 198
Actelion Java MolfileCreator 2.0

  0  0  0  0  0  0              0 V3000
M  V30 BEGIN CTAB
M  V30 COUNTS 42 46 0 0 0
M  V30 BEGIN ATOM
M  V30 1 Cl 0.0 0.0 0.0 0
M  V30 2 C -0.9222 1.1907 0.0 0
M  V30 3 C -0.3618 2.5916 0.0 0
M  V30 4 C -2.4165 1.0039 0.0 0
M  V30 5 N -1.2841 3.7823 0.0 0
M  V30 6 N 1.109 2.8017 0.0 0
M  V30 7 N -3.3387 2.1947 0.0 0
M  V30 8 C -2.7783 3.5955 0.0 0
M  V30 9 C 1.6693 4.2026 0.0 0
M  V30 10 N -3.7006 4.7863 0.0 0
M  V30 11 C 3.1402 4.4127 0.0 0
M  V30 12 C 0.7471 5.3933 0.0 0
M  V30 13 C -5.1949 4.5995 0.0 0
M  V30 14 S 4.0391 3.2453 0.0 0
M  V30 15 C 3.7006 5.8136 0.0 0
M  V30 16 C 1.3074 6.7942 0.0 0
M  V30 17 C -5.7786 3.222 0.0 0
M  V30 18 C -6.1171 5.7902 0.0 0
M  V30 19 O 2.8484 2.3464 0.0 0
M  V30 20 O 5.2065 4.1675 0.0 0
M  V30 21 C 4.938 2.0779 0.0 0
M  V30 22 C 2.7783 7.0043 0.0 0
M  V30 23 O -4.8797 2.0546 0.0 0
M  V30 24 C -7.2728 3.0352 0.0 0
M  V30 25 C -7.6114 5.6034 0.0 0
M  V30 26 C 6.4089 2.288 0.0 0
M  V30 27 C 4.3543 0.7004 0.0 0
M  V30 28 C -5.4634 0.677 0.0 0
M  V30 29 C -8.1951 4.2259 0.0 0
M  V30 30 N -9.6893 4.0391 0.0 0
M  V30 31 C -10.6116 5.2299 0.0 0
M  V30 32 C -10.273 2.6616 0.0 0
M  V30 33 C -12.1058 5.0431 0.0 0
M  V30 34 C -11.7673 2.4748 0.0 0
M  V30 35 C -12.6895 3.6656 0.0 0
M  V30 36 N -14.1838 3.4788 0.0 0
M  V30 37 C -15.106 4.6695 0.0 0
M  V30 38 C -14.7675 2.1013 0.0 0
M  V30 39 C -16.6003 4.4827 0.0 0
M  V30 40 C -16.2618 1.9145 0.0 0
M  V30 41 N -17.184 3.1052 0.0 0
M  V30 42 C -18.6783 2.9184 0.0 0
M  V30 END ATOM
M  V30 BEGIN BOND
M  V30 1 1 1 2
M  V30 2 2 2 3
M  V30 3 1 2 4
M  V30 4 1 3 5
M  V30 5 1 3 6
M  V30 6 2 4 7
M  V30 7 2 5 8
M  V30 8 1 6 9
M  V30 9 1 8 10
M  V30 10 2 9 11
M  V30 11 1 9 12
M  V30 12 1 10 13
M  V30 13 1 11 14
M  V30 14 1 11 15
M  V30 15 2 12 16
M  V30 16 2 13 17
M  V30 17 1 13 18
M  V30 18 2 14 19
M  V30 19 2 14 20
M  V30 20 1 14 21
M  V30 21 2 15 22
M  V30 22 1 17 23
M  V30 23 1 17 24
M  V30 24 2 18 25
M  V30 25 1 21 26
M  V30 26 1 21 27
M  V30 27 1 23 28
M  V30 28 2 24 29
M  V30 29 1 29 30
M  V30 30 1 30 31
M  V30 31 1 30 32
M  V30 32 1 31 33
M  V30 33 1 32 34
M  V30 34 1 33 35
M  V30 35 1 35 36
M  V30 36 1 36 37
M  V30 37 1 36 38
M  V30 38 1 37 39
M  V30 39 1 38 40
M  V30 40 1 39 41
M  V30 41 1 41 42
M  V30 42 1 7 8
M  V30 43 1 16 22
M  V30 44 1 25 29
M  V30 45 1 34 35
M  V30 46 1 40 41
M  V30 END BOND
M  V30 END CTAB
M  END
>  <Compound ID>
67

>  <Name>
TAE684

>  <Uniprot>
O60307

>  <Target>
MAST3

>  <Smiles>
COC1=CC(N2CCC(N3CCN(C)CC3)CC2)=CC=C1NC1=NC=C(Cl)C(NC2=CC=CC=C2S(=O)(=O)C(C)C)=N1

>  <Kd (nM)>


>  <Assay (Kd)>


>  <Ki (nM)>


>  <Assay (Ki)>


>  <IC50 (nM)>


>  <Assay (IC50)>


>  <EC50 (nM)>


>  <Assay (EC50)>


>  <Article DOI>
10.1016/j.cell.2020.10.038

>  <Molecular Weight>
614.216

>  <Exact Mass>
613.26018682

>  <XLogP3>
5.67

>  <Heavy Atom Count>
42

>  <Ring Count>
5

>  <Hydrogen Bond Acceptor Count>
10

>  <Hydrogen Bond Donor Count>
2

>  <Rotatable Bond Count>
9

>  <Topological Polar Surface Area>
102.93

>  <Molecular Formula>
C30H40ClN7O3S

>  <InChI>
InChI=1S/C30H40ClN7O3S/c1-21(2)42(39,40)28-8-6-5-7-26(28)33-29-24(31)20-32-30(35-29)34-25-10-9-23(19-27(25)41-4)37-13-11-22(12-14-37)38-17-15-36(3)16-18-38/h5-10,19-22H,11-18H2,1-4H3,(H2,32,33,34,35)

>  <InChI Key>
QQWUGDVOUVUTOY-UHFFFAOYSA-N

>  <BindingDB>
50242742

>  <PubChem>
16038120

>  <ChEMBL>
CHEMBL509032

$$$$
Compound 199
Actelion Java MolfileCreator 2.0

  0  0  0  0  0  0              0 V3000
M  V30 BEGIN CTAB
M  V30 COUNTS 42 46 0 0 0
M  V30 BEGIN ATOM
M  V30 1 Cl 0.0 0.0 0.0 0
M  V30 2 C -0.9222 1.1907 0.0 0
M  V30 3 C -0.3618 2.5916 0.0 0
M  V30 4 C -2.4165 1.0039 0.0 0
M  V30 5 N -1.2841 3.7823 0.0 0
M  V30 6 N 1.109 2.8017 0.0 0
M  V30 7 N -3.3387 2.1947 0.0 0
M  V30 8 C -2.7783 3.5955 0.0 0
M  V30 9 C 1.6693 4.2026 0.0 0
M  V30 10 N -3.7006 4.7863 0.0 0
M  V30 11 C 3.1402 4.4127 0.0 0
M  V30 12 C 0.7471 5.3933 0.0 0
M  V30 13 C -5.1949 4.5995 0.0 0
M  V30 14 S 4.0391 3.2453 0.0 0
M  V30 15 C 3.7006 5.8136 0.0 0
M  V30 16 C 1.3074 6.7942 0.0 0
M  V30 17 C -5.7786 3.222 0.0 0
M  V30 18 C -6.1171 5.7902 0.0 0
M  V30 19 O 2.8484 2.3464 0.0 0
M  V30 20 O 5.2065 4.1675 0.0 0
M  V30 21 C 4.938 2.0779 0.0 0
M  V30 22 C 2.7783 7.0043 0.0 0
M  V30 23 O -4.8797 2.0546 0.0 0
M  V30 24 C -7.2728 3.0352 0.0 0
M  V30 25 C -7.6114 5.6034 0.0 0
M  V30 26 C 6.4089 2.288 0.0 0
M  V30 27 C 4.3543 0.7004 0.0 0
M  V30 28 C -5.4634 0.677 0.0 0
M  V30 29 C -8.1951 4.2259 0.0 0
M  V30 30 N -9.6893 4.0391 0.0 0
M  V30 31 C -10.6116 5.2299 0.0 0
M  V30 32 C -10.273 2.6616 0.0 0
M  V30 33 C -12.1058 5.0431 0.0 0
M  V30 34 C -11.7673 2.4748 0.0 0
M  V30 35 C -12.6895 3.6656 0.0 0
M  V30 36 N -14.1838 3.4788 0.0 0
M  V30 37 C -15.106 4.6695 0.0 0
M  V30 38 C -14.7675 2.1013 0.0 0
M  V30 39 C -16.6003 4.4827 0.0 0
M  V30 40 C -16.2618 1.9145 0.0 0
M  V30 41 N -17.184 3.1052 0.0 0
M  V30 42 C -18.6783 2.9184 0.0 0
M  V30 END ATOM
M  V30 BEGIN BOND
M  V30 1 1 1 2
M  V30 2 2 2 3
M  V30 3 1 2 4
M  V30 4 1 3 5
M  V30 5 1 3 6
M  V30 6 2 4 7
M  V30 7 2 5 8
M  V30 8 1 6 9
M  V30 9 1 8 10
M  V30 10 2 9 11
M  V30 11 1 9 12
M  V30 12 1 10 13
M  V30 13 1 11 14
M  V30 14 1 11 15
M  V30 15 2 12 16
M  V30 16 2 13 17
M  V30 17 1 13 18
M  V30 18 2 14 19
M  V30 19 2 14 20
M  V30 20 1 14 21
M  V30 21 2 15 22
M  V30 22 1 17 23
M  V30 23 1 17 24
M  V30 24 2 18 25
M  V30 25 1 21 26
M  V30 26 1 21 27
M  V30 27 1 23 28
M  V30 28 2 24 29
M  V30 29 1 29 30
M  V30 30 1 30 31
M  V30 31 1 30 32
M  V30 32 1 31 33
M  V30 33 1 32 34
M  V30 34 1 33 35
M  V30 35 1 35 36
M  V30 36 1 36 37
M  V30 37 1 36 38
M  V30 38 1 37 39
M  V30 39 1 38 40
M  V30 40 1 39 41
M  V30 41 1 41 42
M  V30 42 1 7 8
M  V30 43 1 16 22
M  V30 44 1 25 29
M  V30 45 1 34 35
M  V30 46 1 40 41
M  V30 END BOND
M  V30 END CTAB
M  END
>  <Compound ID>
67

>  <Name>
TAE684

>  <Uniprot>
Q14680

>  <Target>
MELK

>  <Smiles>
COC1=CC(N2CCC(N3CCN(C)CC3)CC2)=CC=C1NC1=NC=C(Cl)C(NC2=CC=CC=C2S(=O)(=O)C(C)C)=N1

>  <Kd (nM)>
99

>  <Assay (Kd)>
Kd was assessed by competition binding assays

>  <Ki (nM)>


>  <Assay (Ki)>


>  <IC50 (nM)>


>  <Assay (IC50)>


>  <EC50 (nM)>


>  <Assay (EC50)>


>  <Article DOI>
10.1038/nbt.1990

>  <Molecular Weight>
614.216

>  <Exact Mass>
613.26018682

>  <XLogP3>
5.67

>  <Heavy Atom Count>
42

>  <Ring Count>
5

>  <Hydrogen Bond Acceptor Count>
10

>  <Hydrogen Bond Donor Count>
2

>  <Rotatable Bond Count>
9

>  <Topological Polar Surface Area>
102.93

>  <Molecular Formula>
C30H40ClN7O3S

>  <InChI>
InChI=1S/C30H40ClN7O3S/c1-21(2)42(39,40)28-8-6-5-7-26(28)33-29-24(31)20-32-30(35-29)34-25-10-9-23(19-27(25)41-4)37-13-11-22(12-14-37)38-17-15-36(3)16-18-38/h5-10,19-22H,11-18H2,1-4H3,(H2,32,33,34,35)

>  <InChI Key>
QQWUGDVOUVUTOY-UHFFFAOYSA-N

>  <BindingDB>
50242742

>  <PubChem>
16038120

>  <ChEMBL>
CHEMBL509032

$$$$
Compound 200
Actelion Java MolfileCreator 2.0

  0  0  0  0  0  0              0 V3000
M  V30 BEGIN CTAB
M  V30 COUNTS 42 46 0 0 0
M  V30 BEGIN ATOM
M  V30 1 Cl 0.0 0.0 0.0 0
M  V30 2 C -0.9222 1.1907 0.0 0
M  V30 3 C -0.3618 2.5916 0.0 0
M  V30 4 C -2.4165 1.0039 0.0 0
M  V30 5 N -1.2841 3.7823 0.0 0
M  V30 6 N 1.109 2.8017 0.0 0
M  V30 7 N -3.3387 2.1947 0.0 0
M  V30 8 C -2.7783 3.5955 0.0 0
M  V30 9 C 1.6693 4.2026 0.0 0
M  V30 10 N -3.7006 4.7863 0.0 0
M  V30 11 C 3.1402 4.4127 0.0 0
M  V30 12 C 0.7471 5.3933 0.0 0
M  V30 13 C -5.1949 4.5995 0.0 0
M  V30 14 S 4.0391 3.2453 0.0 0
M  V30 15 C 3.7006 5.8136 0.0 0
M  V30 16 C 1.3074 6.7942 0.0 0
M  V30 17 C -5.7786 3.222 0.0 0
M  V30 18 C -6.1171 5.7902 0.0 0
M  V30 19 O 2.8484 2.3464 0.0 0
M  V30 20 O 5.2065 4.1675 0.0 0
M  V30 21 C 4.938 2.0779 0.0 0
M  V30 22 C 2.7783 7.0043 0.0 0
M  V30 23 O -4.8797 2.0546 0.0 0
M  V30 24 C -7.2728 3.0352 0.0 0
M  V30 25 C -7.6114 5.6034 0.0 0
M  V30 26 C 6.4089 2.288 0.0 0
M  V30 27 C 4.3543 0.7004 0.0 0
M  V30 28 C -5.4634 0.677 0.0 0
M  V30 29 C -8.1951 4.2259 0.0 0
M  V30 30 N -9.6893 4.0391 0.0 0
M  V30 31 C -10.6116 5.2299 0.0 0
M  V30 32 C -10.273 2.6616 0.0 0
M  V30 33 C -12.1058 5.0431 0.0 0
M  V30 34 C -11.7673 2.4748 0.0 0
M  V30 35 C -12.6895 3.6656 0.0 0
M  V30 36 N -14.1838 3.4788 0.0 0
M  V30 37 C -15.106 4.6695 0.0 0
M  V30 38 C -14.7675 2.1013 0.0 0
M  V30 39 C -16.6003 4.4827 0.0 0
M  V30 40 C -16.2618 1.9145 0.0 0
M  V30 41 N -17.184 3.1052 0.0 0
M  V30 42 C -18.6783 2.9184 0.0 0
M  V30 END ATOM
M  V30 BEGIN BOND
M  V30 1 1 1 2
M  V30 2 2 2 3
M  V30 3 1 2 4
M  V30 4 1 3 5
M  V30 5 1 3 6
M  V30 6 2 4 7
M  V30 7 2 5 8
M  V30 8 1 6 9
M  V30 9 1 8 10
M  V30 10 2 9 11
M  V30 11 1 9 12
M  V30 12 1 10 13
M  V30 13 1 11 14
M  V30 14 1 11 15
M  V30 15 2 12 16
M  V30 16 2 13 17
M  V30 17 1 13 18
M  V30 18 2 14 19
M  V30 19 2 14 20
M  V30 20 1 14 21
M  V30 21 2 15 22
M  V30 22 1 17 23
M  V30 23 1 17 24
M  V30 24 2 18 25
M  V30 25 1 21 26
M  V30 26 1 21 27
M  V30 27 1 23 28
M  V30 28 2 24 29
M  V30 29 1 29 30
M  V30 30 1 30 31
M  V30 31 1 30 32
M  V30 32 1 31 33
M  V30 33 1 32 34
M  V30 34 1 33 35
M  V30 35 1 35 36
M  V30 36 1 36 37
M  V30 37 1 36 38
M  V30 38 1 37 39
M  V30 39 1 38 40
M  V30 40 1 39 41
M  V30 41 1 41 42
M  V30 42 1 7 8
M  V30 43 1 16 22
M  V30 44 1 25 29
M  V30 45 1 34 35
M  V30 46 1 40 41
M  V30 END BOND
M  V30 END CTAB
M  END
>  <Compound ID>
67

>  <Name>
TAE684

>  <Uniprot>
Q9HBH9

>  <Target>
MKNK2

>  <Smiles>
COC1=CC(N2CCC(N3CCN(C)CC3)CC2)=CC=C1NC1=NC=C(Cl)C(NC2=CC=CC=C2S(=O)(=O)C(C)C)=N1

>  <Kd (nM)>
44

>  <Assay (Kd)>
Kd was assessed by competition binding assays

>  <Ki (nM)>


>  <Assay (Ki)>


>  <IC50 (nM)>


>  <Assay (IC50)>


>  <EC50 (nM)>


>  <Assay (EC50)>


>  <Article DOI>
10.1038/nbt.1990

>  <Molecular Weight>
614.216

>  <Exact Mass>
613.26018682

>  <XLogP3>
5.67

>  <Heavy Atom Count>
42

>  <Ring Count>
5

>  <Hydrogen Bond Acceptor Count>
10

>  <Hydrogen Bond Donor Count>
2

>  <Rotatable Bond Count>
9

>  <Topological Polar Surface Area>
102.93

>  <Molecular Formula>
C30H40ClN7O3S

>  <InChI>
InChI=1S/C30H40ClN7O3S/c1-21(2)42(39,40)28-8-6-5-7-26(28)33-29-24(31)20-32-30(35-29)34-25-10-9-23(19-27(25)41-4)37-13-11-22(12-14-37)38-17-15-36(3)16-18-38/h5-10,19-22H,11-18H2,1-4H3,(H2,32,33,34,35)

>  <InChI Key>
QQWUGDVOUVUTOY-UHFFFAOYSA-N

>  <BindingDB>
50242742

>  <PubChem>
16038120

>  <ChEMBL>
CHEMBL509032

$$$$
Compound 201
Actelion Java MolfileCreator 2.0

  0  0  0  0  0  0              0 V3000
M  V30 BEGIN CTAB
M  V30 COUNTS 42 46 0 0 0
M  V30 BEGIN ATOM
M  V30 1 Cl 0.0 0.0 0.0 0
M  V30 2 C -0.9222 1.1907 0.0 0
M  V30 3 C -0.3618 2.5916 0.0 0
M  V30 4 C -2.4165 1.0039 0.0 0
M  V30 5 N -1.2841 3.7823 0.0 0
M  V30 6 N 1.109 2.8017 0.0 0
M  V30 7 N -3.3387 2.1947 0.0 0
M  V30 8 C -2.7783 3.5955 0.0 0
M  V30 9 C 1.6693 4.2026 0.0 0
M  V30 10 N -3.7006 4.7863 0.0 0
M  V30 11 C 3.1402 4.4127 0.0 0
M  V30 12 C 0.7471 5.3933 0.0 0
M  V30 13 C -5.1949 4.5995 0.0 0
M  V30 14 S 4.0391 3.2453 0.0 0
M  V30 15 C 3.7006 5.8136 0.0 0
M  V30 16 C 1.3074 6.7942 0.0 0
M  V30 17 C -5.7786 3.222 0.0 0
M  V30 18 C -6.1171 5.7902 0.0 0
M  V30 19 O 2.8484 2.3464 0.0 0
M  V30 20 O 5.2065 4.1675 0.0 0
M  V30 21 C 4.938 2.0779 0.0 0
M  V30 22 C 2.7783 7.0043 0.0 0
M  V30 23 O -4.8797 2.0546 0.0 0
M  V30 24 C -7.2728 3.0352 0.0 0
M  V30 25 C -7.6114 5.6034 0.0 0
M  V30 26 C 6.4089 2.288 0.0 0
M  V30 27 C 4.3543 0.7004 0.0 0
M  V30 28 C -5.4634 0.677 0.0 0
M  V30 29 C -8.1951 4.2259 0.0 0
M  V30 30 N -9.6893 4.0391 0.0 0
M  V30 31 C -10.6116 5.2299 0.0 0
M  V30 32 C -10.273 2.6616 0.0 0
M  V30 33 C -12.1058 5.0431 0.0 0
M  V30 34 C -11.7673 2.4748 0.0 0
M  V30 35 C -12.6895 3.6656 0.0 0
M  V30 36 N -14.1838 3.4788 0.0 0
M  V30 37 C -15.106 4.6695 0.0 0
M  V30 38 C -14.7675 2.1013 0.0 0
M  V30 39 C -16.6003 4.4827 0.0 0
M  V30 40 C -16.2618 1.9145 0.0 0
M  V30 41 N -17.184 3.1052 0.0 0
M  V30 42 C -18.6783 2.9184 0.0 0
M  V30 END ATOM
M  V30 BEGIN BOND
M  V30 1 1 1 2
M  V30 2 2 2 3
M  V30 3 1 2 4
M  V30 4 1 3 5
M  V30 5 1 3 6
M  V30 6 2 4 7
M  V30 7 2 5 8
M  V30 8 1 6 9
M  V30 9 1 8 10
M  V30 10 2 9 11
M  V30 11 1 9 12
M  V30 12 1 10 13
M  V30 13 1 11 14
M  V30 14 1 11 15
M  V30 15 2 12 16
M  V30 16 2 13 17
M  V30 17 1 13 18
M  V30 18 2 14 19
M  V30 19 2 14 20
M  V30 20 1 14 21
M  V30 21 2 15 22
M  V30 22 1 17 23
M  V30 23 1 17 24
M  V30 24 2 18 25
M  V30 25 1 21 26
M  V30 26 1 21 27
M  V30 27 1 23 28
M  V30 28 2 24 29
M  V30 29 1 29 30
M  V30 30 1 30 31
M  V30 31 1 30 32
M  V30 32 1 31 33
M  V30 33 1 32 34
M  V30 34 1 33 35
M  V30 35 1 35 36
M  V30 36 1 36 37
M  V30 37 1 36 38
M  V30 38 1 37 39
M  V30 39 1 38 40
M  V30 40 1 39 41
M  V30 41 1 41 42
M  V30 42 1 7 8
M  V30 43 1 16 22
M  V30 44 1 25 29
M  V30 45 1 34 35
M  V30 46 1 40 41
M  V30 END BOND
M  V30 END CTAB
M  END
>  <Compound ID>
67

>  <Name>
TAE684

>  <Uniprot>
P51955

>  <Target>
NEK2

>  <Smiles>
COC1=CC(N2CCC(N3CCN(C)CC3)CC2)=CC=C1NC1=NC=C(Cl)C(NC2=CC=CC=C2S(=O)(=O)C(C)C)=N1

>  <Kd (nM)>
1800

>  <Assay (Kd)>
Kd was assessed by competition binding assays

>  <Ki (nM)>


>  <Assay (Ki)>


>  <IC50 (nM)>


>  <Assay (IC50)>


>  <EC50 (nM)>


>  <Assay (EC50)>


>  <Article DOI>
10.1038/nbt.1990

>  <Molecular Weight>
614.216

>  <Exact Mass>
613.26018682

>  <XLogP3>
5.67

>  <Heavy Atom Count>
42

>  <Ring Count>
5

>  <Hydrogen Bond Acceptor Count>
10

>  <Hydrogen Bond Donor Count>
2

>  <Rotatable Bond Count>
9

>  <Topological Polar Surface Area>
102.93

>  <Molecular Formula>
C30H40ClN7O3S

>  <InChI>
InChI=1S/C30H40ClN7O3S/c1-21(2)42(39,40)28-8-6-5-7-26(28)33-29-24(31)20-32-30(35-29)34-25-10-9-23(19-27(25)41-4)37-13-11-22(12-14-37)38-17-15-36(3)16-18-38/h5-10,19-22H,11-18H2,1-4H3,(H2,32,33,34,35)

>  <InChI Key>
QQWUGDVOUVUTOY-UHFFFAOYSA-N

>  <BindingDB>
50242742

>  <PubChem>
16038120

>  <ChEMBL>
CHEMBL509032

$$$$
Compound 202
Actelion Java MolfileCreator 2.0

  0  0  0  0  0  0              0 V3000
M  V30 BEGIN CTAB
M  V30 COUNTS 42 46 0 0 0
M  V30 BEGIN ATOM
M  V30 1 Cl 0.0 0.0 0.0 0
M  V30 2 C -0.9222 1.1907 0.0 0
M  V30 3 C -0.3618 2.5916 0.0 0
M  V30 4 C -2.4165 1.0039 0.0 0
M  V30 5 N -1.2841 3.7823 0.0 0
M  V30 6 N 1.109 2.8017 0.0 0
M  V30 7 N -3.3387 2.1947 0.0 0
M  V30 8 C -2.7783 3.5955 0.0 0
M  V30 9 C 1.6693 4.2026 0.0 0
M  V30 10 N -3.7006 4.7863 0.0 0
M  V30 11 C 3.1402 4.4127 0.0 0
M  V30 12 C 0.7471 5.3933 0.0 0
M  V30 13 C -5.1949 4.5995 0.0 0
M  V30 14 S 4.0391 3.2453 0.0 0
M  V30 15 C 3.7006 5.8136 0.0 0
M  V30 16 C 1.3074 6.7942 0.0 0
M  V30 17 C -5.7786 3.222 0.0 0
M  V30 18 C -6.1171 5.7902 0.0 0
M  V30 19 O 2.8484 2.3464 0.0 0
M  V30 20 O 5.2065 4.1675 0.0 0
M  V30 21 C 4.938 2.0779 0.0 0
M  V30 22 C 2.7783 7.0043 0.0 0
M  V30 23 O -4.8797 2.0546 0.0 0
M  V30 24 C -7.2728 3.0352 0.0 0
M  V30 25 C -7.6114 5.6034 0.0 0
M  V30 26 C 6.4089 2.288 0.0 0
M  V30 27 C 4.3543 0.7004 0.0 0
M  V30 28 C -5.4634 0.677 0.0 0
M  V30 29 C -8.1951 4.2259 0.0 0
M  V30 30 N -9.6893 4.0391 0.0 0
M  V30 31 C -10.6116 5.2299 0.0 0
M  V30 32 C -10.273 2.6616 0.0 0
M  V30 33 C -12.1058 5.0431 0.0 0
M  V30 34 C -11.7673 2.4748 0.0 0
M  V30 35 C -12.6895 3.6656 0.0 0
M  V30 36 N -14.1838 3.4788 0.0 0
M  V30 37 C -15.106 4.6695 0.0 0
M  V30 38 C -14.7675 2.1013 0.0 0
M  V30 39 C -16.6003 4.4827 0.0 0
M  V30 40 C -16.2618 1.9145 0.0 0
M  V30 41 N -17.184 3.1052 0.0 0
M  V30 42 C -18.6783 2.9184 0.0 0
M  V30 END ATOM
M  V30 BEGIN BOND
M  V30 1 1 1 2
M  V30 2 2 2 3
M  V30 3 1 2 4
M  V30 4 1 3 5
M  V30 5 1 3 6
M  V30 6 2 4 7
M  V30 7 2 5 8
M  V30 8 1 6 9
M  V30 9 1 8 10
M  V30 10 2 9 11
M  V30 11 1 9 12
M  V30 12 1 10 13
M  V30 13 1 11 14
M  V30 14 1 11 15
M  V30 15 2 12 16
M  V30 16 2 13 17
M  V30 17 1 13 18
M  V30 18 2 14 19
M  V30 19 2 14 20
M  V30 20 1 14 21
M  V30 21 2 15 22
M  V30 22 1 17 23
M  V30 23 1 17 24
M  V30 24 2 18 25
M  V30 25 1 21 26
M  V30 26 1 21 27
M  V30 27 1 23 28
M  V30 28 2 24 29
M  V30 29 1 29 30
M  V30 30 1 30 31
M  V30 31 1 30 32
M  V30 32 1 31 33
M  V30 33 1 32 34
M  V30 34 1 33 35
M  V30 35 1 35 36
M  V30 36 1 36 37
M  V30 37 1 36 38
M  V30 38 1 37 39
M  V30 39 1 38 40
M  V30 40 1 39 41
M  V30 41 1 41 42
M  V30 42 1 7 8
M  V30 43 1 16 22
M  V30 44 1 25 29
M  V30 45 1 34 35
M  V30 46 1 40 41
M  V30 END BOND
M  V30 END CTAB
M  END
>  <Compound ID>
67

>  <Name>
TAE684

>  <Uniprot>
Q9UBE8

>  <Target>
NLK

>  <Smiles>
COC1=CC(N2CCC(N3CCN(C)CC3)CC2)=CC=C1NC1=NC=C(Cl)C(NC2=CC=CC=C2S(=O)(=O)C(C)C)=N1

>  <Kd (nM)>
>10000

>  <Assay (Kd)>
Kd was assessed by competition binding assays

>  <Ki (nM)>


>  <Assay (Ki)>


>  <IC50 (nM)>


>  <Assay (IC50)>


>  <EC50 (nM)>


>  <Assay (EC50)>


>  <Article DOI>
10.1038/nbt.1990

>  <Molecular Weight>
614.216

>  <Exact Mass>
613.26018682

>  <XLogP3>
5.67

>  <Heavy Atom Count>
42

>  <Ring Count>
5

>  <Hydrogen Bond Acceptor Count>
10

>  <Hydrogen Bond Donor Count>
2

>  <Rotatable Bond Count>
9

>  <Topological Polar Surface Area>
102.93

>  <Molecular Formula>
C30H40ClN7O3S

>  <InChI>
InChI=1S/C30H40ClN7O3S/c1-21(2)42(39,40)28-8-6-5-7-26(28)33-29-24(31)20-32-30(35-29)34-25-10-9-23(19-27(25)41-4)37-13-11-22(12-14-37)38-17-15-36(3)16-18-38/h5-10,19-22H,11-18H2,1-4H3,(H2,32,33,34,35)

>  <InChI Key>
QQWUGDVOUVUTOY-UHFFFAOYSA-N

>  <BindingDB>
50242742

>  <PubChem>
16038120

>  <ChEMBL>
CHEMBL509032

$$$$
Compound 203
Actelion Java MolfileCreator 2.0

  0  0  0  0  0  0              0 V3000
M  V30 BEGIN CTAB
M  V30 COUNTS 42 46 0 0 0
M  V30 BEGIN ATOM
M  V30 1 Cl 0.0 0.0 0.0 0
M  V30 2 C -0.9222 1.1907 0.0 0
M  V30 3 C -0.3618 2.5916 0.0 0
M  V30 4 C -2.4165 1.0039 0.0 0
M  V30 5 N -1.2841 3.7823 0.0 0
M  V30 6 N 1.109 2.8017 0.0 0
M  V30 7 N -3.3387 2.1947 0.0 0
M  V30 8 C -2.7783 3.5955 0.0 0
M  V30 9 C 1.6693 4.2026 0.0 0
M  V30 10 N -3.7006 4.7863 0.0 0
M  V30 11 C 3.1402 4.4127 0.0 0
M  V30 12 C 0.7471 5.3933 0.0 0
M  V30 13 C -5.1949 4.5995 0.0 0
M  V30 14 S 4.0391 3.2453 0.0 0
M  V30 15 C 3.7006 5.8136 0.0 0
M  V30 16 C 1.3074 6.7942 0.0 0
M  V30 17 C -5.7786 3.222 0.0 0
M  V30 18 C -6.1171 5.7902 0.0 0
M  V30 19 O 2.8484 2.3464 0.0 0
M  V30 20 O 5.2065 4.1675 0.0 0
M  V30 21 C 4.938 2.0779 0.0 0
M  V30 22 C 2.7783 7.0043 0.0 0
M  V30 23 O -4.8797 2.0546 0.0 0
M  V30 24 C -7.2728 3.0352 0.0 0
M  V30 25 C -7.6114 5.6034 0.0 0
M  V30 26 C 6.4089 2.288 0.0 0
M  V30 27 C 4.3543 0.7004 0.0 0
M  V30 28 C -5.4634 0.677 0.0 0
M  V30 29 C -8.1951 4.2259 0.0 0
M  V30 30 N -9.6893 4.0391 0.0 0
M  V30 31 C -10.6116 5.2299 0.0 0
M  V30 32 C -10.273 2.6616 0.0 0
M  V30 33 C -12.1058 5.0431 0.0 0
M  V30 34 C -11.7673 2.4748 0.0 0
M  V30 35 C -12.6895 3.6656 0.0 0
M  V30 36 N -14.1838 3.4788 0.0 0
M  V30 37 C -15.106 4.6695 0.0 0
M  V30 38 C -14.7675 2.1013 0.0 0
M  V30 39 C -16.6003 4.4827 0.0 0
M  V30 40 C -16.2618 1.9145 0.0 0
M  V30 41 N -17.184 3.1052 0.0 0
M  V30 42 C -18.6783 2.9184 0.0 0
M  V30 END ATOM
M  V30 BEGIN BOND
M  V30 1 1 1 2
M  V30 2 2 2 3
M  V30 3 1 2 4
M  V30 4 1 3 5
M  V30 5 1 3 6
M  V30 6 2 4 7
M  V30 7 2 5 8
M  V30 8 1 6 9
M  V30 9 1 8 10
M  V30 10 2 9 11
M  V30 11 1 9 12
M  V30 12 1 10 13
M  V30 13 1 11 14
M  V30 14 1 11 15
M  V30 15 2 12 16
M  V30 16 2 13 17
M  V30 17 1 13 18
M  V30 18 2 14 19
M  V30 19 2 14 20
M  V30 20 1 14 21
M  V30 21 2 15 22
M  V30 22 1 17 23
M  V30 23 1 17 24
M  V30 24 2 18 25
M  V30 25 1 21 26
M  V30 26 1 21 27
M  V30 27 1 23 28
M  V30 28 2 24 29
M  V30 29 1 29 30
M  V30 30 1 30 31
M  V30 31 1 30 32
M  V30 32 1 31 33
M  V30 33 1 32 34
M  V30 34 1 33 35
M  V30 35 1 35 36
M  V30 36 1 36 37
M  V30 37 1 36 38
M  V30 38 1 37 39
M  V30 39 1 38 40
M  V30 40 1 39 41
M  V30 41 1 41 42
M  V30 42 1 7 8
M  V30 43 1 16 22
M  V30 44 1 25 29
M  V30 45 1 34 35
M  V30 46 1 40 41
M  V30 END BOND
M  V30 END CTAB
M  END
>  <Compound ID>
67

>  <Name>
TAE684

>  <Uniprot>
Q15119

>  <Target>
PDK2

>  <Smiles>
COC1=CC(N2CCC(N3CCN(C)CC3)CC2)=CC=C1NC1=NC=C(Cl)C(NC2=CC=CC=C2S(=O)(=O)C(C)C)=N1

>  <Kd (nM)>


>  <Assay (Kd)>


>  <Ki (nM)>


>  <Assay (Ki)>


>  <IC50 (nM)>


>  <Assay (IC50)>


>  <EC50 (nM)>


>  <Assay (EC50)>


>  <Article DOI>
10.1016/j.cell.2020.10.038

>  <Molecular Weight>
614.216

>  <Exact Mass>
613.26018682

>  <XLogP3>
5.67

>  <Heavy Atom Count>
42

>  <Ring Count>
5

>  <Hydrogen Bond Acceptor Count>
10

>  <Hydrogen Bond Donor Count>
2

>  <Rotatable Bond Count>
9

>  <Topological Polar Surface Area>
102.93

>  <Molecular Formula>
C30H40ClN7O3S

>  <InChI>
InChI=1S/C30H40ClN7O3S/c1-21(2)42(39,40)28-8-6-5-7-26(28)33-29-24(31)20-32-30(35-29)34-25-10-9-23(19-27(25)41-4)37-13-11-22(12-14-37)38-17-15-36(3)16-18-38/h5-10,19-22H,11-18H2,1-4H3,(H2,32,33,34,35)

>  <InChI Key>
QQWUGDVOUVUTOY-UHFFFAOYSA-N

>  <BindingDB>
50242742

>  <PubChem>
16038120

>  <ChEMBL>
CHEMBL509032

$$$$
Compound 204
Actelion Java MolfileCreator 2.0

  0  0  0  0  0  0              0 V3000
M  V30 BEGIN CTAB
M  V30 COUNTS 42 46 0 0 0
M  V30 BEGIN ATOM
M  V30 1 Cl 0.0 0.0 0.0 0
M  V30 2 C -0.9222 1.1907 0.0 0
M  V30 3 C -0.3618 2.5916 0.0 0
M  V30 4 C -2.4165 1.0039 0.0 0
M  V30 5 N -1.2841 3.7823 0.0 0
M  V30 6 N 1.109 2.8017 0.0 0
M  V30 7 N -3.3387 2.1947 0.0 0
M  V30 8 C -2.7783 3.5955 0.0 0
M  V30 9 C 1.6693 4.2026 0.0 0
M  V30 10 N -3.7006 4.7863 0.0 0
M  V30 11 C 3.1402 4.4127 0.0 0
M  V30 12 C 0.7471 5.3933 0.0 0
M  V30 13 C -5.1949 4.5995 0.0 0
M  V30 14 S 4.0391 3.2453 0.0 0
M  V30 15 C 3.7006 5.8136 0.0 0
M  V30 16 C 1.3074 6.7942 0.0 0
M  V30 17 C -5.7786 3.222 0.0 0
M  V30 18 C -6.1171 5.7902 0.0 0
M  V30 19 O 2.8484 2.3464 0.0 0
M  V30 20 O 5.2065 4.1675 0.0 0
M  V30 21 C 4.938 2.0779 0.0 0
M  V30 22 C 2.7783 7.0043 0.0 0
M  V30 23 O -4.8797 2.0546 0.0 0
M  V30 24 C -7.2728 3.0352 0.0 0
M  V30 25 C -7.6114 5.6034 0.0 0
M  V30 26 C 6.4089 2.288 0.0 0
M  V30 27 C 4.3543 0.7004 0.0 0
M  V30 28 C -5.4634 0.677 0.0 0
M  V30 29 C -8.1951 4.2259 0.0 0
M  V30 30 N -9.6893 4.0391 0.0 0
M  V30 31 C -10.6116 5.2299 0.0 0
M  V30 32 C -10.273 2.6616 0.0 0
M  V30 33 C -12.1058 5.0431 0.0 0
M  V30 34 C -11.7673 2.4748 0.0 0
M  V30 35 C -12.6895 3.6656 0.0 0
M  V30 36 N -14.1838 3.4788 0.0 0
M  V30 37 C -15.106 4.6695 0.0 0
M  V30 38 C -14.7675 2.1013 0.0 0
M  V30 39 C -16.6003 4.4827 0.0 0
M  V30 40 C -16.2618 1.9145 0.0 0
M  V30 41 N -17.184 3.1052 0.0 0
M  V30 42 C -18.6783 2.9184 0.0 0
M  V30 END ATOM
M  V30 BEGIN BOND
M  V30 1 1 1 2
M  V30 2 2 2 3
M  V30 3 1 2 4
M  V30 4 1 3 5
M  V30 5 1 3 6
M  V30 6 2 4 7
M  V30 7 2 5 8
M  V30 8 1 6 9
M  V30 9 1 8 10
M  V30 10 2 9 11
M  V30 11 1 9 12
M  V30 12 1 10 13
M  V30 13 1 11 14
M  V30 14 1 11 15
M  V30 15 2 12 16
M  V30 16 2 13 17
M  V30 17 1 13 18
M  V30 18 2 14 19
M  V30 19 2 14 20
M  V30 20 1 14 21
M  V30 21 2 15 22
M  V30 22 1 17 23
M  V30 23 1 17 24
M  V30 24 2 18 25
M  V30 25 1 21 26
M  V30 26 1 21 27
M  V30 27 1 23 28
M  V30 28 2 24 29
M  V30 29 1 29 30
M  V30 30 1 30 31
M  V30 31 1 30 32
M  V30 32 1 31 33
M  V30 33 1 32 34
M  V30 34 1 33 35
M  V30 35 1 35 36
M  V30 36 1 36 37
M  V30 37 1 36 38
M  V30 38 1 37 39
M  V30 39 1 38 40
M  V30 40 1 39 41
M  V30 41 1 41 42
M  V30 42 1 7 8
M  V30 43 1 16 22
M  V30 44 1 25 29
M  V30 45 1 34 35
M  V30 46 1 40 41
M  V30 END BOND
M  V30 END CTAB
M  END
>  <Compound ID>
67

>  <Name>
TAE684

>  <Uniprot>
Q15120

>  <Target>
PDK3

>  <Smiles>
COC1=CC(N2CCC(N3CCN(C)CC3)CC2)=CC=C1NC1=NC=C(Cl)C(NC2=CC=CC=C2S(=O)(=O)C(C)C)=N1

>  <Kd (nM)>


>  <Assay (Kd)>


>  <Ki (nM)>


>  <Assay (Ki)>


>  <IC50 (nM)>


>  <Assay (IC50)>


>  <EC50 (nM)>


>  <Assay (EC50)>


>  <Article DOI>
10.1016/j.cell.2020.10.038

>  <Molecular Weight>
614.216

>  <Exact Mass>
613.26018682

>  <XLogP3>
5.67

>  <Heavy Atom Count>
42

>  <Ring Count>
5

>  <Hydrogen Bond Acceptor Count>
10

>  <Hydrogen Bond Donor Count>
2

>  <Rotatable Bond Count>
9

>  <Topological Polar Surface Area>
102.93

>  <Molecular Formula>
C30H40ClN7O3S

>  <InChI>
InChI=1S/C30H40ClN7O3S/c1-21(2)42(39,40)28-8-6-5-7-26(28)33-29-24(31)20-32-30(35-29)34-25-10-9-23(19-27(25)41-4)37-13-11-22(12-14-37)38-17-15-36(3)16-18-38/h5-10,19-22H,11-18H2,1-4H3,(H2,32,33,34,35)

>  <InChI Key>
QQWUGDVOUVUTOY-UHFFFAOYSA-N

>  <BindingDB>
50242742

>  <PubChem>
16038120

>  <ChEMBL>
CHEMBL509032

$$$$
Compound 205
Actelion Java MolfileCreator 2.0

  0  0  0  0  0  0              0 V3000
M  V30 BEGIN CTAB
M  V30 COUNTS 42 46 0 0 0
M  V30 BEGIN ATOM
M  V30 1 Cl 0.0 0.0 0.0 0
M  V30 2 C -0.9222 1.1907 0.0 0
M  V30 3 C -0.3618 2.5916 0.0 0
M  V30 4 C -2.4165 1.0039 0.0 0
M  V30 5 N -1.2841 3.7823 0.0 0
M  V30 6 N 1.109 2.8017 0.0 0
M  V30 7 N -3.3387 2.1947 0.0 0
M  V30 8 C -2.7783 3.5955 0.0 0
M  V30 9 C 1.6693 4.2026 0.0 0
M  V30 10 N -3.7006 4.7863 0.0 0
M  V30 11 C 3.1402 4.4127 0.0 0
M  V30 12 C 0.7471 5.3933 0.0 0
M  V30 13 C -5.1949 4.5995 0.0 0
M  V30 14 S 4.0391 3.2453 0.0 0
M  V30 15 C 3.7006 5.8136 0.0 0
M  V30 16 C 1.3074 6.7942 0.0 0
M  V30 17 C -5.7786 3.222 0.0 0
M  V30 18 C -6.1171 5.7902 0.0 0
M  V30 19 O 2.8484 2.3464 0.0 0
M  V30 20 O 5.2065 4.1675 0.0 0
M  V30 21 C 4.938 2.0779 0.0 0
M  V30 22 C 2.7783 7.0043 0.0 0
M  V30 23 O -4.8797 2.0546 0.0 0
M  V30 24 C -7.2728 3.0352 0.0 0
M  V30 25 C -7.6114 5.6034 0.0 0
M  V30 26 C 6.4089 2.288 0.0 0
M  V30 27 C 4.3543 0.7004 0.0 0
M  V30 28 C -5.4634 0.677 0.0 0
M  V30 29 C -8.1951 4.2259 0.0 0
M  V30 30 N -9.6893 4.0391 0.0 0
M  V30 31 C -10.6116 5.2299 0.0 0
M  V30 32 C -10.273 2.6616 0.0 0
M  V30 33 C -12.1058 5.0431 0.0 0
M  V30 34 C -11.7673 2.4748 0.0 0
M  V30 35 C -12.6895 3.6656 0.0 0
M  V30 36 N -14.1838 3.4788 0.0 0
M  V30 37 C -15.106 4.6695 0.0 0
M  V30 38 C -14.7675 2.1013 0.0 0
M  V30 39 C -16.6003 4.4827 0.0 0
M  V30 40 C -16.2618 1.9145 0.0 0
M  V30 41 N -17.184 3.1052 0.0 0
M  V30 42 C -18.6783 2.9184 0.0 0
M  V30 END ATOM
M  V30 BEGIN BOND
M  V30 1 1 1 2
M  V30 2 2 2 3
M  V30 3 1 2 4
M  V30 4 1 3 5
M  V30 5 1 3 6
M  V30 6 2 4 7
M  V30 7 2 5 8
M  V30 8 1 6 9
M  V30 9 1 8 10
M  V30 10 2 9 11
M  V30 11 1 9 12
M  V30 12 1 10 13
M  V30 13 1 11 14
M  V30 14 1 11 15
M  V30 15 2 12 16
M  V30 16 2 13 17
M  V30 17 1 13 18
M  V30 18 2 14 19
M  V30 19 2 14 20
M  V30 20 1 14 21
M  V30 21 2 15 22
M  V30 22 1 17 23
M  V30 23 1 17 24
M  V30 24 2 18 25
M  V30 25 1 21 26
M  V30 26 1 21 27
M  V30 27 1 23 28
M  V30 28 2 24 29
M  V30 29 1 29 30
M  V30 30 1 30 31
M  V30 31 1 30 32
M  V30 32 1 31 33
M  V30 33 1 32 34
M  V30 34 1 33 35
M  V30 35 1 35 36
M  V30 36 1 36 37
M  V30 37 1 36 38
M  V30 38 1 37 39
M  V30 39 1 38 40
M  V30 40 1 39 41
M  V30 41 1 41 42
M  V30 42 1 7 8
M  V30 43 1 16 22
M  V30 44 1 25 29
M  V30 45 1 34 35
M  V30 46 1 40 41
M  V30 END BOND
M  V30 END CTAB
M  END
>  <Compound ID>
67

>  <Name>
TAE684

>  <Uniprot>
Q6P5Z2

>  <Target>
PKN3

>  <Smiles>
COC1=CC(N2CCC(N3CCN(C)CC3)CC2)=CC=C1NC1=NC=C(Cl)C(NC2=CC=CC=C2S(=O)(=O)C(C)C)=N1

>  <Kd (nM)>


>  <Assay (Kd)>


>  <Ki (nM)>


>  <Assay (Ki)>


>  <IC50 (nM)>


>  <Assay (IC50)>


>  <EC50 (nM)>


>  <Assay (EC50)>


>  <Article DOI>
10.1016/j.cell.2020.10.038

>  <Molecular Weight>
614.216

>  <Exact Mass>
613.26018682

>  <XLogP3>
5.67

>  <Heavy Atom Count>
42

>  <Ring Count>
5

>  <Hydrogen Bond Acceptor Count>
10

>  <Hydrogen Bond Donor Count>
2

>  <Rotatable Bond Count>
9

>  <Topological Polar Surface Area>
102.93

>  <Molecular Formula>
C30H40ClN7O3S

>  <InChI>
InChI=1S/C30H40ClN7O3S/c1-21(2)42(39,40)28-8-6-5-7-26(28)33-29-24(31)20-32-30(35-29)34-25-10-9-23(19-27(25)41-4)37-13-11-22(12-14-37)38-17-15-36(3)16-18-38/h5-10,19-22H,11-18H2,1-4H3,(H2,32,33,34,35)

>  <InChI Key>
QQWUGDVOUVUTOY-UHFFFAOYSA-N

>  <BindingDB>
50242742

>  <PubChem>
16038120

>  <ChEMBL>
CHEMBL509032

$$$$
Compound 206
Actelion Java MolfileCreator 2.0

  0  0  0  0  0  0              0 V3000
M  V30 BEGIN CTAB
M  V30 COUNTS 42 46 0 0 0
M  V30 BEGIN ATOM
M  V30 1 Cl 0.0 0.0 0.0 0
M  V30 2 C -0.9222 1.1907 0.0 0
M  V30 3 C -0.3618 2.5916 0.0 0
M  V30 4 C -2.4165 1.0039 0.0 0
M  V30 5 N -1.2841 3.7823 0.0 0
M  V30 6 N 1.109 2.8017 0.0 0
M  V30 7 N -3.3387 2.1947 0.0 0
M  V30 8 C -2.7783 3.5955 0.0 0
M  V30 9 C 1.6693 4.2026 0.0 0
M  V30 10 N -3.7006 4.7863 0.0 0
M  V30 11 C 3.1402 4.4127 0.0 0
M  V30 12 C 0.7471 5.3933 0.0 0
M  V30 13 C -5.1949 4.5995 0.0 0
M  V30 14 S 4.0391 3.2453 0.0 0
M  V30 15 C 3.7006 5.8136 0.0 0
M  V30 16 C 1.3074 6.7942 0.0 0
M  V30 17 C -5.7786 3.222 0.0 0
M  V30 18 C -6.1171 5.7902 0.0 0
M  V30 19 O 2.8484 2.3464 0.0 0
M  V30 20 O 5.2065 4.1675 0.0 0
M  V30 21 C 4.938 2.0779 0.0 0
M  V30 22 C 2.7783 7.0043 0.0 0
M  V30 23 O -4.8797 2.0546 0.0 0
M  V30 24 C -7.2728 3.0352 0.0 0
M  V30 25 C -7.6114 5.6034 0.0 0
M  V30 26 C 6.4089 2.288 0.0 0
M  V30 27 C 4.3543 0.7004 0.0 0
M  V30 28 C -5.4634 0.677 0.0 0
M  V30 29 C -8.1951 4.2259 0.0 0
M  V30 30 N -9.6893 4.0391 0.0 0
M  V30 31 C -10.6116 5.2299 0.0 0
M  V30 32 C -10.273 2.6616 0.0 0
M  V30 33 C -12.1058 5.0431 0.0 0
M  V30 34 C -11.7673 2.4748 0.0 0
M  V30 35 C -12.6895 3.6656 0.0 0
M  V30 36 N -14.1838 3.4788 0.0 0
M  V30 37 C -15.106 4.6695 0.0 0
M  V30 38 C -14.7675 2.1013 0.0 0
M  V30 39 C -16.6003 4.4827 0.0 0
M  V30 40 C -16.2618 1.9145 0.0 0
M  V30 41 N -17.184 3.1052 0.0 0
M  V30 42 C -18.6783 2.9184 0.0 0
M  V30 END ATOM
M  V30 BEGIN BOND
M  V30 1 1 1 2
M  V30 2 2 2 3
M  V30 3 1 2 4
M  V30 4 1 3 5
M  V30 5 1 3 6
M  V30 6 2 4 7
M  V30 7 2 5 8
M  V30 8 1 6 9
M  V30 9 1 8 10
M  V30 10 2 9 11
M  V30 11 1 9 12
M  V30 12 1 10 13
M  V30 13 1 11 14
M  V30 14 1 11 15
M  V30 15 2 12 16
M  V30 16 2 13 17
M  V30 17 1 13 18
M  V30 18 2 14 19
M  V30 19 2 14 20
M  V30 20 1 14 21
M  V30 21 2 15 22
M  V30 22 1 17 23
M  V30 23 1 17 24
M  V30 24 2 18 25
M  V30 25 1 21 26
M  V30 26 1 21 27
M  V30 27 1 23 28
M  V30 28 2 24 29
M  V30 29 1 29 30
M  V30 30 1 30 31
M  V30 31 1 30 32
M  V30 32 1 31 33
M  V30 33 1 32 34
M  V30 34 1 33 35
M  V30 35 1 35 36
M  V30 36 1 36 37
M  V30 37 1 36 38
M  V30 38 1 37 39
M  V30 39 1 38 40
M  V30 40 1 39 41
M  V30 41 1 41 42
M  V30 42 1 7 8
M  V30 43 1 16 22
M  V30 44 1 25 29
M  V30 45 1 34 35
M  V30 46 1 40 41
M  V30 END BOND
M  V30 END CTAB
M  END
>  <Compound ID>
67

>  <Name>
TAE684

>  <Uniprot>
P53350

>  <Target>
PLK1

>  <Smiles>
COC1=CC(N2CCC(N3CCN(C)CC3)CC2)=CC=C1NC1=NC=C(Cl)C(NC2=CC=CC=C2S(=O)(=O)C(C)C)=N1

>  <Kd (nM)>
20

>  <Assay (Kd)>
Kd was assessed by competition binding assays

>  <Ki (nM)>


>  <Assay (Ki)>


>  <IC50 (nM)>


>  <Assay (IC50)>


>  <EC50 (nM)>


>  <Assay (EC50)>


>  <Article DOI>
10.1038/nbt.1990

>  <Molecular Weight>
614.216

>  <Exact Mass>
613.26018682

>  <XLogP3>
5.67

>  <Heavy Atom Count>
42

>  <Ring Count>
5

>  <Hydrogen Bond Acceptor Count>
10

>  <Hydrogen Bond Donor Count>
2

>  <Rotatable Bond Count>
9

>  <Topological Polar Surface Area>
102.93

>  <Molecular Formula>
C30H40ClN7O3S

>  <InChI>
InChI=1S/C30H40ClN7O3S/c1-21(2)42(39,40)28-8-6-5-7-26(28)33-29-24(31)20-32-30(35-29)34-25-10-9-23(19-27(25)41-4)37-13-11-22(12-14-37)38-17-15-36(3)16-18-38/h5-10,19-22H,11-18H2,1-4H3,(H2,32,33,34,35)

>  <InChI Key>
QQWUGDVOUVUTOY-UHFFFAOYSA-N

>  <BindingDB>
50242742

>  <PubChem>
16038120

>  <ChEMBL>
CHEMBL509032

$$$$
Compound 207
Actelion Java MolfileCreator 2.0

  0  0  0  0  0  0              0 V3000
M  V30 BEGIN CTAB
M  V30 COUNTS 42 46 0 0 0
M  V30 BEGIN ATOM
M  V30 1 Cl 0.0 0.0 0.0 0
M  V30 2 C -0.9222 1.1907 0.0 0
M  V30 3 C -0.3618 2.5916 0.0 0
M  V30 4 C -2.4165 1.0039 0.0 0
M  V30 5 N -1.2841 3.7823 0.0 0
M  V30 6 N 1.109 2.8017 0.0 0
M  V30 7 N -3.3387 2.1947 0.0 0
M  V30 8 C -2.7783 3.5955 0.0 0
M  V30 9 C 1.6693 4.2026 0.0 0
M  V30 10 N -3.7006 4.7863 0.0 0
M  V30 11 C 3.1402 4.4127 0.0 0
M  V30 12 C 0.7471 5.3933 0.0 0
M  V30 13 C -5.1949 4.5995 0.0 0
M  V30 14 S 4.0391 3.2453 0.0 0
M  V30 15 C 3.7006 5.8136 0.0 0
M  V30 16 C 1.3074 6.7942 0.0 0
M  V30 17 C -5.7786 3.222 0.0 0
M  V30 18 C -6.1171 5.7902 0.0 0
M  V30 19 O 2.8484 2.3464 0.0 0
M  V30 20 O 5.2065 4.1675 0.0 0
M  V30 21 C 4.938 2.0779 0.0 0
M  V30 22 C 2.7783 7.0043 0.0 0
M  V30 23 O -4.8797 2.0546 0.0 0
M  V30 24 C -7.2728 3.0352 0.0 0
M  V30 25 C -7.6114 5.6034 0.0 0
M  V30 26 C 6.4089 2.288 0.0 0
M  V30 27 C 4.3543 0.7004 0.0 0
M  V30 28 C -5.4634 0.677 0.0 0
M  V30 29 C -8.1951 4.2259 0.0 0
M  V30 30 N -9.6893 4.0391 0.0 0
M  V30 31 C -10.6116 5.2299 0.0 0
M  V30 32 C -10.273 2.6616 0.0 0
M  V30 33 C -12.1058 5.0431 0.0 0
M  V30 34 C -11.7673 2.4748 0.0 0
M  V30 35 C -12.6895 3.6656 0.0 0
M  V30 36 N -14.1838 3.4788 0.0 0
M  V30 37 C -15.106 4.6695 0.0 0
M  V30 38 C -14.7675 2.1013 0.0 0
M  V30 39 C -16.6003 4.4827 0.0 0
M  V30 40 C -16.2618 1.9145 0.0 0
M  V30 41 N -17.184 3.1052 0.0 0
M  V30 42 C -18.6783 2.9184 0.0 0
M  V30 END ATOM
M  V30 BEGIN BOND
M  V30 1 1 1 2
M  V30 2 2 2 3
M  V30 3 1 2 4
M  V30 4 1 3 5
M  V30 5 1 3 6
M  V30 6 2 4 7
M  V30 7 2 5 8
M  V30 8 1 6 9
M  V30 9 1 8 10
M  V30 10 2 9 11
M  V30 11 1 9 12
M  V30 12 1 10 13
M  V30 13 1 11 14
M  V30 14 1 11 15
M  V30 15 2 12 16
M  V30 16 2 13 17
M  V30 17 1 13 18
M  V30 18 2 14 19
M  V30 19 2 14 20
M  V30 20 1 14 21
M  V30 21 2 15 22
M  V30 22 1 17 23
M  V30 23 1 17 24
M  V30 24 2 18 25
M  V30 25 1 21 26
M  V30 26 1 21 27
M  V30 27 1 23 28
M  V30 28 2 24 29
M  V30 29 1 29 30
M  V30 30 1 30 31
M  V30 31 1 30 32
M  V30 32 1 31 33
M  V30 33 1 32 34
M  V30 34 1 33 35
M  V30 35 1 35 36
M  V30 36 1 36 37
M  V30 37 1 36 38
M  V30 38 1 37 39
M  V30 39 1 38 40
M  V30 40 1 39 41
M  V30 41 1 41 42
M  V30 42 1 7 8
M  V30 43 1 16 22
M  V30 44 1 25 29
M  V30 45 1 34 35
M  V30 46 1 40 41
M  V30 END BOND
M  V30 END CTAB
M  END
>  <Compound ID>
67

>  <Name>
TAE684

>  <Uniprot>
O00444

>  <Target>
PLK4

>  <Smiles>
COC1=CC(N2CCC(N3CCN(C)CC3)CC2)=CC=C1NC1=NC=C(Cl)C(NC2=CC=CC=C2S(=O)(=O)C(C)C)=N1

>  <Kd (nM)>
0.93

>  <Assay (Kd)>
Kd was assessed by competition binding assays

>  <Ki (nM)>


>  <Assay (Ki)>


>  <IC50 (nM)>


>  <Assay (IC50)>


>  <EC50 (nM)>


>  <Assay (EC50)>


>  <Article DOI>
10.1038/nbt.1990

>  <Molecular Weight>
614.216

>  <Exact Mass>
613.26018682

>  <XLogP3>
5.67

>  <Heavy Atom Count>
42

>  <Ring Count>
5

>  <Hydrogen Bond Acceptor Count>
10

>  <Hydrogen Bond Donor Count>
2

>  <Rotatable Bond Count>
9

>  <Topological Polar Surface Area>
102.93

>  <Molecular Formula>
C30H40ClN7O3S

>  <InChI>
InChI=1S/C30H40ClN7O3S/c1-21(2)42(39,40)28-8-6-5-7-26(28)33-29-24(31)20-32-30(35-29)34-25-10-9-23(19-27(25)41-4)37-13-11-22(12-14-37)38-17-15-36(3)16-18-38/h5-10,19-22H,11-18H2,1-4H3,(H2,32,33,34,35)

>  <InChI Key>
QQWUGDVOUVUTOY-UHFFFAOYSA-N

>  <BindingDB>
50242742

>  <PubChem>
16038120

>  <ChEMBL>
CHEMBL509032

$$$$
Compound 208
Actelion Java MolfileCreator 2.0

  0  0  0  0  0  0              0 V3000
M  V30 BEGIN CTAB
M  V30 COUNTS 42 46 0 0 0
M  V30 BEGIN ATOM
M  V30 1 Cl 0.0 0.0 0.0 0
M  V30 2 C -0.9222 1.1907 0.0 0
M  V30 3 C -0.3618 2.5916 0.0 0
M  V30 4 C -2.4165 1.0039 0.0 0
M  V30 5 N -1.2841 3.7823 0.0 0
M  V30 6 N 1.109 2.8017 0.0 0
M  V30 7 N -3.3387 2.1947 0.0 0
M  V30 8 C -2.7783 3.5955 0.0 0
M  V30 9 C 1.6693 4.2026 0.0 0
M  V30 10 N -3.7006 4.7863 0.0 0
M  V30 11 C 3.1402 4.4127 0.0 0
M  V30 12 C 0.7471 5.3933 0.0 0
M  V30 13 C -5.1949 4.5995 0.0 0
M  V30 14 S 4.0391 3.2453 0.0 0
M  V30 15 C 3.7006 5.8136 0.0 0
M  V30 16 C 1.3074 6.7942 0.0 0
M  V30 17 C -5.7786 3.222 0.0 0
M  V30 18 C -6.1171 5.7902 0.0 0
M  V30 19 O 2.8484 2.3464 0.0 0
M  V30 20 O 5.2065 4.1675 0.0 0
M  V30 21 C 4.938 2.0779 0.0 0
M  V30 22 C 2.7783 7.0043 0.0 0
M  V30 23 O -4.8797 2.0546 0.0 0
M  V30 24 C -7.2728 3.0352 0.0 0
M  V30 25 C -7.6114 5.6034 0.0 0
M  V30 26 C 6.4089 2.288 0.0 0
M  V30 27 C 4.3543 0.7004 0.0 0
M  V30 28 C -5.4634 0.677 0.0 0
M  V30 29 C -8.1951 4.2259 0.0 0
M  V30 30 N -9.6893 4.0391 0.0 0
M  V30 31 C -10.6116 5.2299 0.0 0
M  V30 32 C -10.273 2.6616 0.0 0
M  V30 33 C -12.1058 5.0431 0.0 0
M  V30 34 C -11.7673 2.4748 0.0 0
M  V30 35 C -12.6895 3.6656 0.0 0
M  V30 36 N -14.1838 3.4788 0.0 0
M  V30 37 C -15.106 4.6695 0.0 0
M  V30 38 C -14.7675 2.1013 0.0 0
M  V30 39 C -16.6003 4.4827 0.0 0
M  V30 40 C -16.2618 1.9145 0.0 0
M  V30 41 N -17.184 3.1052 0.0 0
M  V30 42 C -18.6783 2.9184 0.0 0
M  V30 END ATOM
M  V30 BEGIN BOND
M  V30 1 1 1 2
M  V30 2 2 2 3
M  V30 3 1 2 4
M  V30 4 1 3 5
M  V30 5 1 3 6
M  V30 6 2 4 7
M  V30 7 2 5 8
M  V30 8 1 6 9
M  V30 9 1 8 10
M  V30 10 2 9 11
M  V30 11 1 9 12
M  V30 12 1 10 13
M  V30 13 1 11 14
M  V30 14 1 11 15
M  V30 15 2 12 16
M  V30 16 2 13 17
M  V30 17 1 13 18
M  V30 18 2 14 19
M  V30 19 2 14 20
M  V30 20 1 14 21
M  V30 21 2 15 22
M  V30 22 1 17 23
M  V30 23 1 17 24
M  V30 24 2 18 25
M  V30 25 1 21 26
M  V30 26 1 21 27
M  V30 27 1 23 28
M  V30 28 2 24 29
M  V30 29 1 29 30
M  V30 30 1 30 31
M  V30 31 1 30 32
M  V30 32 1 31 33
M  V30 33 1 32 34
M  V30 34 1 33 35
M  V30 35 1 35 36
M  V30 36 1 36 37
M  V30 37 1 36 38
M  V30 38 1 37 39
M  V30 39 1 38 40
M  V30 40 1 39 41
M  V30 41 1 41 42
M  V30 42 1 7 8
M  V30 43 1 16 22
M  V30 44 1 25 29
M  V30 45 1 34 35
M  V30 46 1 40 41
M  V30 END BOND
M  V30 END CTAB
M  END
>  <Compound ID>
67

>  <Name>
TAE684

>  <Uniprot>
Q86YV5

>  <Target>
PRAG1

>  <Smiles>
COC1=CC(N2CCC(N3CCN(C)CC3)CC2)=CC=C1NC1=NC=C(Cl)C(NC2=CC=CC=C2S(=O)(=O)C(C)C)=N1

>  <Kd (nM)>


>  <Assay (Kd)>


>  <Ki (nM)>


>  <Assay (Ki)>


>  <IC50 (nM)>


>  <Assay (IC50)>


>  <EC50 (nM)>


>  <Assay (EC50)>


>  <Article DOI>
10.1016/j.cell.2020.10.038

>  <Molecular Weight>
614.216

>  <Exact Mass>
613.26018682

>  <XLogP3>
5.67

>  <Heavy Atom Count>
42

>  <Ring Count>
5

>  <Hydrogen Bond Acceptor Count>
10

>  <Hydrogen Bond Donor Count>
2

>  <Rotatable Bond Count>
9

>  <Topological Polar Surface Area>
102.93

>  <Molecular Formula>
C30H40ClN7O3S

>  <InChI>
InChI=1S/C30H40ClN7O3S/c1-21(2)42(39,40)28-8-6-5-7-26(28)33-29-24(31)20-32-30(35-29)34-25-10-9-23(19-27(25)41-4)37-13-11-22(12-14-37)38-17-15-36(3)16-18-38/h5-10,19-22H,11-18H2,1-4H3,(H2,32,33,34,35)

>  <InChI Key>
QQWUGDVOUVUTOY-UHFFFAOYSA-N

>  <BindingDB>
50242742

>  <PubChem>
16038120

>  <ChEMBL>
CHEMBL509032

$$$$
Compound 209
Actelion Java MolfileCreator 2.0

  0  0  0  0  0  0              0 V3000
M  V30 BEGIN CTAB
M  V30 COUNTS 42 46 0 0 0
M  V30 BEGIN ATOM
M  V30 1 Cl 0.0 0.0 0.0 0
M  V30 2 C -0.9222 1.1907 0.0 0
M  V30 3 C -0.3618 2.5916 0.0 0
M  V30 4 C -2.4165 1.0039 0.0 0
M  V30 5 N -1.2841 3.7823 0.0 0
M  V30 6 N 1.109 2.8017 0.0 0
M  V30 7 N -3.3387 2.1947 0.0 0
M  V30 8 C -2.7783 3.5955 0.0 0
M  V30 9 C 1.6693 4.2026 0.0 0
M  V30 10 N -3.7006 4.7863 0.0 0
M  V30 11 C 3.1402 4.4127 0.0 0
M  V30 12 C 0.7471 5.3933 0.0 0
M  V30 13 C -5.1949 4.5995 0.0 0
M  V30 14 S 4.0391 3.2453 0.0 0
M  V30 15 C 3.7006 5.8136 0.0 0
M  V30 16 C 1.3074 6.7942 0.0 0
M  V30 17 C -5.7786 3.222 0.0 0
M  V30 18 C -6.1171 5.7902 0.0 0
M  V30 19 O 2.8484 2.3464 0.0 0
M  V30 20 O 5.2065 4.1675 0.0 0
M  V30 21 C 4.938 2.0779 0.0 0
M  V30 22 C 2.7783 7.0043 0.0 0
M  V30 23 O -4.8797 2.0546 0.0 0
M  V30 24 C -7.2728 3.0352 0.0 0
M  V30 25 C -7.6114 5.6034 0.0 0
M  V30 26 C 6.4089 2.288 0.0 0
M  V30 27 C 4.3543 0.7004 0.0 0
M  V30 28 C -5.4634 0.677 0.0 0
M  V30 29 C -8.1951 4.2259 0.0 0
M  V30 30 N -9.6893 4.0391 0.0 0
M  V30 31 C -10.6116 5.2299 0.0 0
M  V30 32 C -10.273 2.6616 0.0 0
M  V30 33 C -12.1058 5.0431 0.0 0
M  V30 34 C -11.7673 2.4748 0.0 0
M  V30 35 C -12.6895 3.6656 0.0 0
M  V30 36 N -14.1838 3.4788 0.0 0
M  V30 37 C -15.106 4.6695 0.0 0
M  V30 38 C -14.7675 2.1013 0.0 0
M  V30 39 C -16.6003 4.4827 0.0 0
M  V30 40 C -16.2618 1.9145 0.0 0
M  V30 41 N -17.184 3.1052 0.0 0
M  V30 42 C -18.6783 2.9184 0.0 0
M  V30 END ATOM
M  V30 BEGIN BOND
M  V30 1 1 1 2
M  V30 2 2 2 3
M  V30 3 1 2 4
M  V30 4 1 3 5
M  V30 5 1 3 6
M  V30 6 2 4 7
M  V30 7 2 5 8
M  V30 8 1 6 9
M  V30 9 1 8 10
M  V30 10 2 9 11
M  V30 11 1 9 12
M  V30 12 1 10 13
M  V30 13 1 11 14
M  V30 14 1 11 15
M  V30 15 2 12 16
M  V30 16 2 13 17
M  V30 17 1 13 18
M  V30 18 2 14 19
M  V30 19 2 14 20
M  V30 20 1 14 21
M  V30 21 2 15 22
M  V30 22 1 17 23
M  V30 23 1 17 24
M  V30 24 2 18 25
M  V30 25 1 21 26
M  V30 26 1 21 27
M  V30 27 1 23 28
M  V30 28 2 24 29
M  V30 29 1 29 30
M  V30 30 1 30 31
M  V30 31 1 30 32
M  V30 32 1 31 33
M  V30 33 1 32 34
M  V30 34 1 33 35
M  V30 35 1 35 36
M  V30 36 1 36 37
M  V30 37 1 36 38
M  V30 38 1 37 39
M  V30 39 1 38 40
M  V30 40 1 39 41
M  V30 41 1 41 42
M  V30 42 1 7 8
M  V30 43 1 16 22
M  V30 44 1 25 29
M  V30 45 1 34 35
M  V30 46 1 40 41
M  V30 END BOND
M  V30 END CTAB
M  END
>  <Compound ID>
67

>  <Name>
TAE684

>  <Uniprot>
Q13131

>  <Target>
PRKAA1

>  <Smiles>
COC1=CC(N2CCC(N3CCN(C)CC3)CC2)=CC=C1NC1=NC=C(Cl)C(NC2=CC=CC=C2S(=O)(=O)C(C)C)=N1

>  <Kd (nM)>


>  <Assay (Kd)>


>  <Ki (nM)>
10

>  <Assay (Ki)>
Ki of PRKAA1

>  <IC50 (nM)>


>  <Assay (IC50)>


>  <EC50 (nM)>


>  <Assay (EC50)>


>  <Article DOI>


>  <Molecular Weight>
614.216

>  <Exact Mass>
613.26018682

>  <XLogP3>
5.67

>  <Heavy Atom Count>
42

>  <Ring Count>
5

>  <Hydrogen Bond Acceptor Count>
10

>  <Hydrogen Bond Donor Count>
2

>  <Rotatable Bond Count>
9

>  <Topological Polar Surface Area>
102.93

>  <Molecular Formula>
C30H40ClN7O3S

>  <InChI>
InChI=1S/C30H40ClN7O3S/c1-21(2)42(39,40)28-8-6-5-7-26(28)33-29-24(31)20-32-30(35-29)34-25-10-9-23(19-27(25)41-4)37-13-11-22(12-14-37)38-17-15-36(3)16-18-38/h5-10,19-22H,11-18H2,1-4H3,(H2,32,33,34,35)

>  <InChI Key>
QQWUGDVOUVUTOY-UHFFFAOYSA-N

>  <BindingDB>
50242742

>  <PubChem>
16038120

>  <ChEMBL>
CHEMBL509032

$$$$
Compound 210
Actelion Java MolfileCreator 2.0

  0  0  0  0  0  0              0 V3000
M  V30 BEGIN CTAB
M  V30 COUNTS 42 46 0 0 0
M  V30 BEGIN ATOM
M  V30 1 Cl 0.0 0.0 0.0 0
M  V30 2 C -0.9222 1.1907 0.0 0
M  V30 3 C -0.3618 2.5916 0.0 0
M  V30 4 C -2.4165 1.0039 0.0 0
M  V30 5 N -1.2841 3.7823 0.0 0
M  V30 6 N 1.109 2.8017 0.0 0
M  V30 7 N -3.3387 2.1947 0.0 0
M  V30 8 C -2.7783 3.5955 0.0 0
M  V30 9 C 1.6693 4.2026 0.0 0
M  V30 10 N -3.7006 4.7863 0.0 0
M  V30 11 C 3.1402 4.4127 0.0 0
M  V30 12 C 0.7471 5.3933 0.0 0
M  V30 13 C -5.1949 4.5995 0.0 0
M  V30 14 S 4.0391 3.2453 0.0 0
M  V30 15 C 3.7006 5.8136 0.0 0
M  V30 16 C 1.3074 6.7942 0.0 0
M  V30 17 C -5.7786 3.222 0.0 0
M  V30 18 C -6.1171 5.7902 0.0 0
M  V30 19 O 2.8484 2.3464 0.0 0
M  V30 20 O 5.2065 4.1675 0.0 0
M  V30 21 C 4.938 2.0779 0.0 0
M  V30 22 C 2.7783 7.0043 0.0 0
M  V30 23 O -4.8797 2.0546 0.0 0
M  V30 24 C -7.2728 3.0352 0.0 0
M  V30 25 C -7.6114 5.6034 0.0 0
M  V30 26 C 6.4089 2.288 0.0 0
M  V30 27 C 4.3543 0.7004 0.0 0
M  V30 28 C -5.4634 0.677 0.0 0
M  V30 29 C -8.1951 4.2259 0.0 0
M  V30 30 N -9.6893 4.0391 0.0 0
M  V30 31 C -10.6116 5.2299 0.0 0
M  V30 32 C -10.273 2.6616 0.0 0
M  V30 33 C -12.1058 5.0431 0.0 0
M  V30 34 C -11.7673 2.4748 0.0 0
M  V30 35 C -12.6895 3.6656 0.0 0
M  V30 36 N -14.1838 3.4788 0.0 0
M  V30 37 C -15.106 4.6695 0.0 0
M  V30 38 C -14.7675 2.1013 0.0 0
M  V30 39 C -16.6003 4.4827 0.0 0
M  V30 40 C -16.2618 1.9145 0.0 0
M  V30 41 N -17.184 3.1052 0.0 0
M  V30 42 C -18.6783 2.9184 0.0 0
M  V30 END ATOM
M  V30 BEGIN BOND
M  V30 1 1 1 2
M  V30 2 2 2 3
M  V30 3 1 2 4
M  V30 4 1 3 5
M  V30 5 1 3 6
M  V30 6 2 4 7
M  V30 7 2 5 8
M  V30 8 1 6 9
M  V30 9 1 8 10
M  V30 10 2 9 11
M  V30 11 1 9 12
M  V30 12 1 10 13
M  V30 13 1 11 14
M  V30 14 1 11 15
M  V30 15 2 12 16
M  V30 16 2 13 17
M  V30 17 1 13 18
M  V30 18 2 14 19
M  V30 19 2 14 20
M  V30 20 1 14 21
M  V30 21 2 15 22
M  V30 22 1 17 23
M  V30 23 1 17 24
M  V30 24 2 18 25
M  V30 25 1 21 26
M  V30 26 1 21 27
M  V30 27 1 23 28
M  V30 28 2 24 29
M  V30 29 1 29 30
M  V30 30 1 30 31
M  V30 31 1 30 32
M  V30 32 1 31 33
M  V30 33 1 32 34
M  V30 34 1 33 35
M  V30 35 1 35 36
M  V30 36 1 36 37
M  V30 37 1 36 38
M  V30 38 1 37 39
M  V30 39 1 38 40
M  V30 40 1 39 41
M  V30 41 1 41 42
M  V30 42 1 7 8
M  V30 43 1 16 22
M  V30 44 1 25 29
M  V30 45 1 34 35
M  V30 46 1 40 41
M  V30 END BOND
M  V30 END CTAB
M  END
>  <Compound ID>
67

>  <Name>
TAE684

>  <Uniprot>
P54646

>  <Target>
PRKAA2

>  <Smiles>
COC1=CC(N2CCC(N3CCN(C)CC3)CC2)=CC=C1NC1=NC=C(Cl)C(NC2=CC=CC=C2S(=O)(=O)C(C)C)=N1

>  <Kd (nM)>
49

>  <Assay (Kd)>
Kd was assessed by competition binding assays

>  <Ki (nM)>


>  <Assay (Ki)>


>  <IC50 (nM)>


>  <Assay (IC50)>


>  <EC50 (nM)>


>  <Assay (EC50)>


>  <Article DOI>
10.1038/nbt.1990

>  <Molecular Weight>
614.216

>  <Exact Mass>
613.26018682

>  <XLogP3>
5.67

>  <Heavy Atom Count>
42

>  <Ring Count>
5

>  <Hydrogen Bond Acceptor Count>
10

>  <Hydrogen Bond Donor Count>
2

>  <Rotatable Bond Count>
9

>  <Topological Polar Surface Area>
102.93

>  <Molecular Formula>
C30H40ClN7O3S

>  <InChI>
InChI=1S/C30H40ClN7O3S/c1-21(2)42(39,40)28-8-6-5-7-26(28)33-29-24(31)20-32-30(35-29)34-25-10-9-23(19-27(25)41-4)37-13-11-22(12-14-37)38-17-15-36(3)16-18-38/h5-10,19-22H,11-18H2,1-4H3,(H2,32,33,34,35)

>  <InChI Key>
QQWUGDVOUVUTOY-UHFFFAOYSA-N

>  <BindingDB>
50242742

>  <PubChem>
16038120

>  <ChEMBL>
CHEMBL509032

$$$$
Compound 211
Actelion Java MolfileCreator 2.0

  0  0  0  0  0  0              0 V3000
M  V30 BEGIN CTAB
M  V30 COUNTS 42 46 0 0 0
M  V30 BEGIN ATOM
M  V30 1 Cl 0.0 0.0 0.0 0
M  V30 2 C -0.9222 1.1907 0.0 0
M  V30 3 C -0.3618 2.5916 0.0 0
M  V30 4 C -2.4165 1.0039 0.0 0
M  V30 5 N -1.2841 3.7823 0.0 0
M  V30 6 N 1.109 2.8017 0.0 0
M  V30 7 N -3.3387 2.1947 0.0 0
M  V30 8 C -2.7783 3.5955 0.0 0
M  V30 9 C 1.6693 4.2026 0.0 0
M  V30 10 N -3.7006 4.7863 0.0 0
M  V30 11 C 3.1402 4.4127 0.0 0
M  V30 12 C 0.7471 5.3933 0.0 0
M  V30 13 C -5.1949 4.5995 0.0 0
M  V30 14 S 4.0391 3.2453 0.0 0
M  V30 15 C 3.7006 5.8136 0.0 0
M  V30 16 C 1.3074 6.7942 0.0 0
M  V30 17 C -5.7786 3.222 0.0 0
M  V30 18 C -6.1171 5.7902 0.0 0
M  V30 19 O 2.8484 2.3464 0.0 0
M  V30 20 O 5.2065 4.1675 0.0 0
M  V30 21 C 4.938 2.0779 0.0 0
M  V30 22 C 2.7783 7.0043 0.0 0
M  V30 23 O -4.8797 2.0546 0.0 0
M  V30 24 C -7.2728 3.0352 0.0 0
M  V30 25 C -7.6114 5.6034 0.0 0
M  V30 26 C 6.4089 2.288 0.0 0
M  V30 27 C 4.3543 0.7004 0.0 0
M  V30 28 C -5.4634 0.677 0.0 0
M  V30 29 C -8.1951 4.2259 0.0 0
M  V30 30 N -9.6893 4.0391 0.0 0
M  V30 31 C -10.6116 5.2299 0.0 0
M  V30 32 C -10.273 2.6616 0.0 0
M  V30 33 C -12.1058 5.0431 0.0 0
M  V30 34 C -11.7673 2.4748 0.0 0
M  V30 35 C -12.6895 3.6656 0.0 0
M  V30 36 N -14.1838 3.4788 0.0 0
M  V30 37 C -15.106 4.6695 0.0 0
M  V30 38 C -14.7675 2.1013 0.0 0
M  V30 39 C -16.6003 4.4827 0.0 0
M  V30 40 C -16.2618 1.9145 0.0 0
M  V30 41 N -17.184 3.1052 0.0 0
M  V30 42 C -18.6783 2.9184 0.0 0
M  V30 END ATOM
M  V30 BEGIN BOND
M  V30 1 1 1 2
M  V30 2 2 2 3
M  V30 3 1 2 4
M  V30 4 1 3 5
M  V30 5 1 3 6
M  V30 6 2 4 7
M  V30 7 2 5 8
M  V30 8 1 6 9
M  V30 9 1 8 10
M  V30 10 2 9 11
M  V30 11 1 9 12
M  V30 12 1 10 13
M  V30 13 1 11 14
M  V30 14 1 11 15
M  V30 15 2 12 16
M  V30 16 2 13 17
M  V30 17 1 13 18
M  V30 18 2 14 19
M  V30 19 2 14 20
M  V30 20 1 14 21
M  V30 21 2 15 22
M  V30 22 1 17 23
M  V30 23 1 17 24
M  V30 24 2 18 25
M  V30 25 1 21 26
M  V30 26 1 21 27
M  V30 27 1 23 28
M  V30 28 2 24 29
M  V30 29 1 29 30
M  V30 30 1 30 31
M  V30 31 1 30 32
M  V30 32 1 31 33
M  V30 33 1 32 34
M  V30 34 1 33 35
M  V30 35 1 35 36
M  V30 36 1 36 37
M  V30 37 1 36 38
M  V30 38 1 37 39
M  V30 39 1 38 40
M  V30 40 1 39 41
M  V30 41 1 41 42
M  V30 42 1 7 8
M  V30 43 1 16 22
M  V30 44 1 25 29
M  V30 45 1 34 35
M  V30 46 1 40 41
M  V30 END BOND
M  V30 END CTAB
M  END
>  <Compound ID>
67

>  <Name>
TAE684

>  <Uniprot>
Q14289

>  <Target>
PTK2B

>  <Smiles>
COC1=CC(N2CCC(N3CCN(C)CC3)CC2)=CC=C1NC1=NC=C(Cl)C(NC2=CC=CC=C2S(=O)(=O)C(C)C)=N1

>  <Kd (nM)>
1.1

>  <Assay (Kd)>
Kd was assessed by competition binding assays

>  <Ki (nM)>


>  <Assay (Ki)>


>  <IC50 (nM)>


>  <Assay (IC50)>


>  <EC50 (nM)>


>  <Assay (EC50)>


>  <Article DOI>
10.1038/nbt.1990

>  <Molecular Weight>
614.216

>  <Exact Mass>
613.26018682

>  <XLogP3>
5.67

>  <Heavy Atom Count>
42

>  <Ring Count>
5

>  <Hydrogen Bond Acceptor Count>
10

>  <Hydrogen Bond Donor Count>
2

>  <Rotatable Bond Count>
9

>  <Topological Polar Surface Area>
102.93

>  <Molecular Formula>
C30H40ClN7O3S

>  <InChI>
InChI=1S/C30H40ClN7O3S/c1-21(2)42(39,40)28-8-6-5-7-26(28)33-29-24(31)20-32-30(35-29)34-25-10-9-23(19-27(25)41-4)37-13-11-22(12-14-37)38-17-15-36(3)16-18-38/h5-10,19-22H,11-18H2,1-4H3,(H2,32,33,34,35)

>  <InChI Key>
QQWUGDVOUVUTOY-UHFFFAOYSA-N

>  <BindingDB>
50242742

>  <PubChem>
16038120

>  <ChEMBL>
CHEMBL509032

$$$$
Compound 212
Actelion Java MolfileCreator 2.0

  0  0  0  0  0  0              0 V3000
M  V30 BEGIN CTAB
M  V30 COUNTS 42 46 0 0 0
M  V30 BEGIN ATOM
M  V30 1 Cl 0.0 0.0 0.0 0
M  V30 2 C -0.9222 1.1907 0.0 0
M  V30 3 C -0.3618 2.5916 0.0 0
M  V30 4 C -2.4165 1.0039 0.0 0
M  V30 5 N -1.2841 3.7823 0.0 0
M  V30 6 N 1.109 2.8017 0.0 0
M  V30 7 N -3.3387 2.1947 0.0 0
M  V30 8 C -2.7783 3.5955 0.0 0
M  V30 9 C 1.6693 4.2026 0.0 0
M  V30 10 N -3.7006 4.7863 0.0 0
M  V30 11 C 3.1402 4.4127 0.0 0
M  V30 12 C 0.7471 5.3933 0.0 0
M  V30 13 C -5.1949 4.5995 0.0 0
M  V30 14 S 4.0391 3.2453 0.0 0
M  V30 15 C 3.7006 5.8136 0.0 0
M  V30 16 C 1.3074 6.7942 0.0 0
M  V30 17 C -5.7786 3.222 0.0 0
M  V30 18 C -6.1171 5.7902 0.0 0
M  V30 19 O 2.8484 2.3464 0.0 0
M  V30 20 O 5.2065 4.1675 0.0 0
M  V30 21 C 4.938 2.0779 0.0 0
M  V30 22 C 2.7783 7.0043 0.0 0
M  V30 23 O -4.8797 2.0546 0.0 0
M  V30 24 C -7.2728 3.0352 0.0 0
M  V30 25 C -7.6114 5.6034 0.0 0
M  V30 26 C 6.4089 2.288 0.0 0
M  V30 27 C 4.3543 0.7004 0.0 0
M  V30 28 C -5.4634 0.677 0.0 0
M  V30 29 C -8.1951 4.2259 0.0 0
M  V30 30 N -9.6893 4.0391 0.0 0
M  V30 31 C -10.6116 5.2299 0.0 0
M  V30 32 C -10.273 2.6616 0.0 0
M  V30 33 C -12.1058 5.0431 0.0 0
M  V30 34 C -11.7673 2.4748 0.0 0
M  V30 35 C -12.6895 3.6656 0.0 0
M  V30 36 N -14.1838 3.4788 0.0 0
M  V30 37 C -15.106 4.6695 0.0 0
M  V30 38 C -14.7675 2.1013 0.0 0
M  V30 39 C -16.6003 4.4827 0.0 0
M  V30 40 C -16.2618 1.9145 0.0 0
M  V30 41 N -17.184 3.1052 0.0 0
M  V30 42 C -18.6783 2.9184 0.0 0
M  V30 END ATOM
M  V30 BEGIN BOND
M  V30 1 1 1 2
M  V30 2 2 2 3
M  V30 3 1 2 4
M  V30 4 1 3 5
M  V30 5 1 3 6
M  V30 6 2 4 7
M  V30 7 2 5 8
M  V30 8 1 6 9
M  V30 9 1 8 10
M  V30 10 2 9 11
M  V30 11 1 9 12
M  V30 12 1 10 13
M  V30 13 1 11 14
M  V30 14 1 11 15
M  V30 15 2 12 16
M  V30 16 2 13 17
M  V30 17 1 13 18
M  V30 18 2 14 19
M  V30 19 2 14 20
M  V30 20 1 14 21
M  V30 21 2 15 22
M  V30 22 1 17 23
M  V30 23 1 17 24
M  V30 24 2 18 25
M  V30 25 1 21 26
M  V30 26 1 21 27
M  V30 27 1 23 28
M  V30 28 2 24 29
M  V30 29 1 29 30
M  V30 30 1 30 31
M  V30 31 1 30 32
M  V30 32 1 31 33
M  V30 33 1 32 34
M  V30 34 1 33 35
M  V30 35 1 35 36
M  V30 36 1 36 37
M  V30 37 1 36 38
M  V30 38 1 37 39
M  V30 39 1 38 40
M  V30 40 1 39 41
M  V30 41 1 41 42
M  V30 42 1 7 8
M  V30 43 1 16 22
M  V30 44 1 25 29
M  V30 45 1 34 35
M  V30 46 1 40 41
M  V30 END BOND
M  V30 END CTAB
M  END
>  <Compound ID>
67

>  <Name>
TAE684

>  <Uniprot>
Q13882

>  <Target>
PTK6

>  <Smiles>
COC1=CC(N2CCC(N3CCN(C)CC3)CC2)=CC=C1NC1=NC=C(Cl)C(NC2=CC=CC=C2S(=O)(=O)C(C)C)=N1

>  <Kd (nM)>


>  <Assay (Kd)>


>  <Ki (nM)>
12.59

>  <Assay (Ki)>
Ki of TNK1

>  <IC50 (nM)>


>  <Assay (IC50)>


>  <EC50 (nM)>


>  <Assay (EC50)>


>  <Article DOI>


>  <Molecular Weight>
614.216

>  <Exact Mass>
613.26018682

>  <XLogP3>
5.67

>  <Heavy Atom Count>
42

>  <Ring Count>
5

>  <Hydrogen Bond Acceptor Count>
10

>  <Hydrogen Bond Donor Count>
2

>  <Rotatable Bond Count>
9

>  <Topological Polar Surface Area>
102.93

>  <Molecular Formula>
C30H40ClN7O3S

>  <InChI>
InChI=1S/C30H40ClN7O3S/c1-21(2)42(39,40)28-8-6-5-7-26(28)33-29-24(31)20-32-30(35-29)34-25-10-9-23(19-27(25)41-4)37-13-11-22(12-14-37)38-17-15-36(3)16-18-38/h5-10,19-22H,11-18H2,1-4H3,(H2,32,33,34,35)

>  <InChI Key>
QQWUGDVOUVUTOY-UHFFFAOYSA-N

>  <BindingDB>
50242742

>  <PubChem>
16038120

>  <ChEMBL>
CHEMBL509032

$$$$
Compound 213
Actelion Java MolfileCreator 2.0

  0  0  0  0  0  0              0 V3000
M  V30 BEGIN CTAB
M  V30 COUNTS 42 46 0 0 0
M  V30 BEGIN ATOM
M  V30 1 Cl 0.0 0.0 0.0 0
M  V30 2 C -0.9222 1.1907 0.0 0
M  V30 3 C -0.3618 2.5916 0.0 0
M  V30 4 C -2.4165 1.0039 0.0 0
M  V30 5 N -1.2841 3.7823 0.0 0
M  V30 6 N 1.109 2.8017 0.0 0
M  V30 7 N -3.3387 2.1947 0.0 0
M  V30 8 C -2.7783 3.5955 0.0 0
M  V30 9 C 1.6693 4.2026 0.0 0
M  V30 10 N -3.7006 4.7863 0.0 0
M  V30 11 C 3.1402 4.4127 0.0 0
M  V30 12 C 0.7471 5.3933 0.0 0
M  V30 13 C -5.1949 4.5995 0.0 0
M  V30 14 S 4.0391 3.2453 0.0 0
M  V30 15 C 3.7006 5.8136 0.0 0
M  V30 16 C 1.3074 6.7942 0.0 0
M  V30 17 C -5.7786 3.222 0.0 0
M  V30 18 C -6.1171 5.7902 0.0 0
M  V30 19 O 2.8484 2.3464 0.0 0
M  V30 20 O 5.2065 4.1675 0.0 0
M  V30 21 C 4.938 2.0779 0.0 0
M  V30 22 C 2.7783 7.0043 0.0 0
M  V30 23 O -4.8797 2.0546 0.0 0
M  V30 24 C -7.2728 3.0352 0.0 0
M  V30 25 C -7.6114 5.6034 0.0 0
M  V30 26 C 6.4089 2.288 0.0 0
M  V30 27 C 4.3543 0.7004 0.0 0
M  V30 28 C -5.4634 0.677 0.0 0
M  V30 29 C -8.1951 4.2259 0.0 0
M  V30 30 N -9.6893 4.0391 0.0 0
M  V30 31 C -10.6116 5.2299 0.0 0
M  V30 32 C -10.273 2.6616 0.0 0
M  V30 33 C -12.1058 5.0431 0.0 0
M  V30 34 C -11.7673 2.4748 0.0 0
M  V30 35 C -12.6895 3.6656 0.0 0
M  V30 36 N -14.1838 3.4788 0.0 0
M  V30 37 C -15.106 4.6695 0.0 0
M  V30 38 C -14.7675 2.1013 0.0 0
M  V30 39 C -16.6003 4.4827 0.0 0
M  V30 40 C -16.2618 1.9145 0.0 0
M  V30 41 N -17.184 3.1052 0.0 0
M  V30 42 C -18.6783 2.9184 0.0 0
M  V30 END ATOM
M  V30 BEGIN BOND
M  V30 1 1 1 2
M  V30 2 2 2 3
M  V30 3 1 2 4
M  V30 4 1 3 5
M  V30 5 1 3 6
M  V30 6 2 4 7
M  V30 7 2 5 8
M  V30 8 1 6 9
M  V30 9 1 8 10
M  V30 10 2 9 11
M  V30 11 1 9 12
M  V30 12 1 10 13
M  V30 13 1 11 14
M  V30 14 1 11 15
M  V30 15 2 12 16
M  V30 16 2 13 17
M  V30 17 1 13 18
M  V30 18 2 14 19
M  V30 19 2 14 20
M  V30 20 1 14 21
M  V30 21 2 15 22
M  V30 22 1 17 23
M  V30 23 1 17 24
M  V30 24 2 18 25
M  V30 25 1 21 26
M  V30 26 1 21 27
M  V30 27 1 23 28
M  V30 28 2 24 29
M  V30 29 1 29 30
M  V30 30 1 30 31
M  V30 31 1 30 32
M  V30 32 1 31 33
M  V30 33 1 32 34
M  V30 34 1 33 35
M  V30 35 1 35 36
M  V30 36 1 36 37
M  V30 37 1 36 38
M  V30 38 1 37 39
M  V30 39 1 38 40
M  V30 40 1 39 41
M  V30 41 1 41 42
M  V30 42 1 7 8
M  V30 43 1 16 22
M  V30 44 1 25 29
M  V30 45 1 34 35
M  V30 46 1 40 41
M  V30 END BOND
M  V30 END CTAB
M  END
>  <Compound ID>
67

>  <Name>
TAE684

>  <Uniprot>
Q9BVS4

>  <Target>
RIOK2

>  <Smiles>
COC1=CC(N2CCC(N3CCN(C)CC3)CC2)=CC=C1NC1=NC=C(Cl)C(NC2=CC=CC=C2S(=O)(=O)C(C)C)=N1

>  <Kd (nM)>
>10000

>  <Assay (Kd)>
Kd was assessed by competition binding assays

>  <Ki (nM)>


>  <Assay (Ki)>


>  <IC50 (nM)>


>  <Assay (IC50)>


>  <EC50 (nM)>


>  <Assay (EC50)>


>  <Article DOI>
10.1038/nbt.1990

>  <Molecular Weight>
614.216

>  <Exact Mass>
613.26018682

>  <XLogP3>
5.67

>  <Heavy Atom Count>
42

>  <Ring Count>
5

>  <Hydrogen Bond Acceptor Count>
10

>  <Hydrogen Bond Donor Count>
2

>  <Rotatable Bond Count>
9

>  <Topological Polar Surface Area>
102.93

>  <Molecular Formula>
C30H40ClN7O3S

>  <InChI>
InChI=1S/C30H40ClN7O3S/c1-21(2)42(39,40)28-8-6-5-7-26(28)33-29-24(31)20-32-30(35-29)34-25-10-9-23(19-27(25)41-4)37-13-11-22(12-14-37)38-17-15-36(3)16-18-38/h5-10,19-22H,11-18H2,1-4H3,(H2,32,33,34,35)

>  <InChI Key>
QQWUGDVOUVUTOY-UHFFFAOYSA-N

>  <BindingDB>
50242742

>  <PubChem>
16038120

>  <ChEMBL>
CHEMBL509032

$$$$
Compound 214
Actelion Java MolfileCreator 2.0

  0  0  0  0  0  0              0 V3000
M  V30 BEGIN CTAB
M  V30 COUNTS 42 46 0 0 0
M  V30 BEGIN ATOM
M  V30 1 Cl 0.0 0.0 0.0 0
M  V30 2 C -0.9222 1.1907 0.0 0
M  V30 3 C -0.3618 2.5916 0.0 0
M  V30 4 C -2.4165 1.0039 0.0 0
M  V30 5 N -1.2841 3.7823 0.0 0
M  V30 6 N 1.109 2.8017 0.0 0
M  V30 7 N -3.3387 2.1947 0.0 0
M  V30 8 C -2.7783 3.5955 0.0 0
M  V30 9 C 1.6693 4.2026 0.0 0
M  V30 10 N -3.7006 4.7863 0.0 0
M  V30 11 C 3.1402 4.4127 0.0 0
M  V30 12 C 0.7471 5.3933 0.0 0
M  V30 13 C -5.1949 4.5995 0.0 0
M  V30 14 S 4.0391 3.2453 0.0 0
M  V30 15 C 3.7006 5.8136 0.0 0
M  V30 16 C 1.3074 6.7942 0.0 0
M  V30 17 C -5.7786 3.222 0.0 0
M  V30 18 C -6.1171 5.7902 0.0 0
M  V30 19 O 2.8484 2.3464 0.0 0
M  V30 20 O 5.2065 4.1675 0.0 0
M  V30 21 C 4.938 2.0779 0.0 0
M  V30 22 C 2.7783 7.0043 0.0 0
M  V30 23 O -4.8797 2.0546 0.0 0
M  V30 24 C -7.2728 3.0352 0.0 0
M  V30 25 C -7.6114 5.6034 0.0 0
M  V30 26 C 6.4089 2.288 0.0 0
M  V30 27 C 4.3543 0.7004 0.0 0
M  V30 28 C -5.4634 0.677 0.0 0
M  V30 29 C -8.1951 4.2259 0.0 0
M  V30 30 N -9.6893 4.0391 0.0 0
M  V30 31 C -10.6116 5.2299 0.0 0
M  V30 32 C -10.273 2.6616 0.0 0
M  V30 33 C -12.1058 5.0431 0.0 0
M  V30 34 C -11.7673 2.4748 0.0 0
M  V30 35 C -12.6895 3.6656 0.0 0
M  V30 36 N -14.1838 3.4788 0.0 0
M  V30 37 C -15.106 4.6695 0.0 0
M  V30 38 C -14.7675 2.1013 0.0 0
M  V30 39 C -16.6003 4.4827 0.0 0
M  V30 40 C -16.2618 1.9145 0.0 0
M  V30 41 N -17.184 3.1052 0.0 0
M  V30 42 C -18.6783 2.9184 0.0 0
M  V30 END ATOM
M  V30 BEGIN BOND
M  V30 1 1 1 2
M  V30 2 2 2 3
M  V30 3 1 2 4
M  V30 4 1 3 5
M  V30 5 1 3 6
M  V30 6 2 4 7
M  V30 7 2 5 8
M  V30 8 1 6 9
M  V30 9 1 8 10
M  V30 10 2 9 11
M  V30 11 1 9 12
M  V30 12 1 10 13
M  V30 13 1 11 14
M  V30 14 1 11 15
M  V30 15 2 12 16
M  V30 16 2 13 17
M  V30 17 1 13 18
M  V30 18 2 14 19
M  V30 19 2 14 20
M  V30 20 1 14 21
M  V30 21 2 15 22
M  V30 22 1 17 23
M  V30 23 1 17 24
M  V30 24 2 18 25
M  V30 25 1 21 26
M  V30 26 1 21 27
M  V30 27 1 23 28
M  V30 28 2 24 29
M  V30 29 1 29 30
M  V30 30 1 30 31
M  V30 31 1 30 32
M  V30 32 1 31 33
M  V30 33 1 32 34
M  V30 34 1 33 35
M  V30 35 1 35 36
M  V30 36 1 36 37
M  V30 37 1 36 38
M  V30 38 1 37 39
M  V30 39 1 38 40
M  V30 40 1 39 41
M  V30 41 1 41 42
M  V30 42 1 7 8
M  V30 43 1 16 22
M  V30 44 1 25 29
M  V30 45 1 34 35
M  V30 46 1 40 41
M  V30 END BOND
M  V30 END CTAB
M  END
>  <Compound ID>
67

>  <Name>
TAE684

>  <Uniprot>
Q15418

>  <Target>
RPS6KA1

>  <Smiles>
COC1=CC(N2CCC(N3CCN(C)CC3)CC2)=CC=C1NC1=NC=C(Cl)C(NC2=CC=CC=C2S(=O)(=O)C(C)C)=N1

>  <Kd (nM)>
160/650

>  <Assay (Kd)>
Kd of RPS6KA1(Kin.Dom.1-N-terminal)/(Kin.Dom.2-C-terminal) was assessed by competition binding assays

>  <Ki (nM)>


>  <Assay (Ki)>


>  <IC50 (nM)>


>  <Assay (IC50)>


>  <EC50 (nM)>


>  <Assay (EC50)>


>  <Article DOI>
10.1038/nbt.1990

>  <Molecular Weight>
614.216

>  <Exact Mass>
613.26018682

>  <XLogP3>
5.67

>  <Heavy Atom Count>
42

>  <Ring Count>
5

>  <Hydrogen Bond Acceptor Count>
10

>  <Hydrogen Bond Donor Count>
2

>  <Rotatable Bond Count>
9

>  <Topological Polar Surface Area>
102.93

>  <Molecular Formula>
C30H40ClN7O3S

>  <InChI>
InChI=1S/C30H40ClN7O3S/c1-21(2)42(39,40)28-8-6-5-7-26(28)33-29-24(31)20-32-30(35-29)34-25-10-9-23(19-27(25)41-4)37-13-11-22(12-14-37)38-17-15-36(3)16-18-38/h5-10,19-22H,11-18H2,1-4H3,(H2,32,33,34,35)

>  <InChI Key>
QQWUGDVOUVUTOY-UHFFFAOYSA-N

>  <BindingDB>
50242742

>  <PubChem>
16038120

>  <ChEMBL>
CHEMBL509032

$$$$
Compound 215
Actelion Java MolfileCreator 2.0

  0  0  0  0  0  0              0 V3000
M  V30 BEGIN CTAB
M  V30 COUNTS 42 46 0 0 0
M  V30 BEGIN ATOM
M  V30 1 Cl 0.0 0.0 0.0 0
M  V30 2 C -0.9222 1.1907 0.0 0
M  V30 3 C -0.3618 2.5916 0.0 0
M  V30 4 C -2.4165 1.0039 0.0 0
M  V30 5 N -1.2841 3.7823 0.0 0
M  V30 6 N 1.109 2.8017 0.0 0
M  V30 7 N -3.3387 2.1947 0.0 0
M  V30 8 C -2.7783 3.5955 0.0 0
M  V30 9 C 1.6693 4.2026 0.0 0
M  V30 10 N -3.7006 4.7863 0.0 0
M  V30 11 C 3.1402 4.4127 0.0 0
M  V30 12 C 0.7471 5.3933 0.0 0
M  V30 13 C -5.1949 4.5995 0.0 0
M  V30 14 S 4.0391 3.2453 0.0 0
M  V30 15 C 3.7006 5.8136 0.0 0
M  V30 16 C 1.3074 6.7942 0.0 0
M  V30 17 C -5.7786 3.222 0.0 0
M  V30 18 C -6.1171 5.7902 0.0 0
M  V30 19 O 2.8484 2.3464 0.0 0
M  V30 20 O 5.2065 4.1675 0.0 0
M  V30 21 C 4.938 2.0779 0.0 0
M  V30 22 C 2.7783 7.0043 0.0 0
M  V30 23 O -4.8797 2.0546 0.0 0
M  V30 24 C -7.2728 3.0352 0.0 0
M  V30 25 C -7.6114 5.6034 0.0 0
M  V30 26 C 6.4089 2.288 0.0 0
M  V30 27 C 4.3543 0.7004 0.0 0
M  V30 28 C -5.4634 0.677 0.0 0
M  V30 29 C -8.1951 4.2259 0.0 0
M  V30 30 N -9.6893 4.0391 0.0 0
M  V30 31 C -10.6116 5.2299 0.0 0
M  V30 32 C -10.273 2.6616 0.0 0
M  V30 33 C -12.1058 5.0431 0.0 0
M  V30 34 C -11.7673 2.4748 0.0 0
M  V30 35 C -12.6895 3.6656 0.0 0
M  V30 36 N -14.1838 3.4788 0.0 0
M  V30 37 C -15.106 4.6695 0.0 0
M  V30 38 C -14.7675 2.1013 0.0 0
M  V30 39 C -16.6003 4.4827 0.0 0
M  V30 40 C -16.2618 1.9145 0.0 0
M  V30 41 N -17.184 3.1052 0.0 0
M  V30 42 C -18.6783 2.9184 0.0 0
M  V30 END ATOM
M  V30 BEGIN BOND
M  V30 1 1 1 2
M  V30 2 2 2 3
M  V30 3 1 2 4
M  V30 4 1 3 5
M  V30 5 1 3 6
M  V30 6 2 4 7
M  V30 7 2 5 8
M  V30 8 1 6 9
M  V30 9 1 8 10
M  V30 10 2 9 11
M  V30 11 1 9 12
M  V30 12 1 10 13
M  V30 13 1 11 14
M  V30 14 1 11 15
M  V30 15 2 12 16
M  V30 16 2 13 17
M  V30 17 1 13 18
M  V30 18 2 14 19
M  V30 19 2 14 20
M  V30 20 1 14 21
M  V30 21 2 15 22
M  V30 22 1 17 23
M  V30 23 1 17 24
M  V30 24 2 18 25
M  V30 25 1 21 26
M  V30 26 1 21 27
M  V30 27 1 23 28
M  V30 28 2 24 29
M  V30 29 1 29 30
M  V30 30 1 30 31
M  V30 31 1 30 32
M  V30 32 1 31 33
M  V30 33 1 32 34
M  V30 34 1 33 35
M  V30 35 1 35 36
M  V30 36 1 36 37
M  V30 37 1 36 38
M  V30 38 1 37 39
M  V30 39 1 38 40
M  V30 40 1 39 41
M  V30 41 1 41 42
M  V30 42 1 7 8
M  V30 43 1 16 22
M  V30 44 1 25 29
M  V30 45 1 34 35
M  V30 46 1 40 41
M  V30 END BOND
M  V30 END CTAB
M  END
>  <Compound ID>
67

>  <Name>
TAE684

>  <Uniprot>
O75676

>  <Target>
RPS6KA4

>  <Smiles>
COC1=CC(N2CCC(N3CCN(C)CC3)CC2)=CC=C1NC1=NC=C(Cl)C(NC2=CC=CC=C2S(=O)(=O)C(C)C)=N1

>  <Kd (nM)>
2500

>  <Assay (Kd)>
Kd was assessed by competition binding assays

>  <Ki (nM)>


>  <Assay (Ki)>


>  <IC50 (nM)>


>  <Assay (IC50)>


>  <EC50 (nM)>


>  <Assay (EC50)>


>  <Article DOI>
10.1038/nbt.1990

>  <Molecular Weight>
614.216

>  <Exact Mass>
613.26018682

>  <XLogP3>
5.67

>  <Heavy Atom Count>
42

>  <Ring Count>
5

>  <Hydrogen Bond Acceptor Count>
10

>  <Hydrogen Bond Donor Count>
2

>  <Rotatable Bond Count>
9

>  <Topological Polar Surface Area>
102.93

>  <Molecular Formula>
C30H40ClN7O3S

>  <InChI>
InChI=1S/C30H40ClN7O3S/c1-21(2)42(39,40)28-8-6-5-7-26(28)33-29-24(31)20-32-30(35-29)34-25-10-9-23(19-27(25)41-4)37-13-11-22(12-14-37)38-17-15-36(3)16-18-38/h5-10,19-22H,11-18H2,1-4H3,(H2,32,33,34,35)

>  <InChI Key>
QQWUGDVOUVUTOY-UHFFFAOYSA-N

>  <BindingDB>
50242742

>  <PubChem>
16038120

>  <ChEMBL>
CHEMBL509032

$$$$
Compound 216
Actelion Java MolfileCreator 2.0

  0  0  0  0  0  0              0 V3000
M  V30 BEGIN CTAB
M  V30 COUNTS 42 46 0 0 0
M  V30 BEGIN ATOM
M  V30 1 Cl 0.0 0.0 0.0 0
M  V30 2 C -0.9222 1.1907 0.0 0
M  V30 3 C -0.3618 2.5916 0.0 0
M  V30 4 C -2.4165 1.0039 0.0 0
M  V30 5 N -1.2841 3.7823 0.0 0
M  V30 6 N 1.109 2.8017 0.0 0
M  V30 7 N -3.3387 2.1947 0.0 0
M  V30 8 C -2.7783 3.5955 0.0 0
M  V30 9 C 1.6693 4.2026 0.0 0
M  V30 10 N -3.7006 4.7863 0.0 0
M  V30 11 C 3.1402 4.4127 0.0 0
M  V30 12 C 0.7471 5.3933 0.0 0
M  V30 13 C -5.1949 4.5995 0.0 0
M  V30 14 S 4.0391 3.2453 0.0 0
M  V30 15 C 3.7006 5.8136 0.0 0
M  V30 16 C 1.3074 6.7942 0.0 0
M  V30 17 C -5.7786 3.222 0.0 0
M  V30 18 C -6.1171 5.7902 0.0 0
M  V30 19 O 2.8484 2.3464 0.0 0
M  V30 20 O 5.2065 4.1675 0.0 0
M  V30 21 C 4.938 2.0779 0.0 0
M  V30 22 C 2.7783 7.0043 0.0 0
M  V30 23 O -4.8797 2.0546 0.0 0
M  V30 24 C -7.2728 3.0352 0.0 0
M  V30 25 C -7.6114 5.6034 0.0 0
M  V30 26 C 6.4089 2.288 0.0 0
M  V30 27 C 4.3543 0.7004 0.0 0
M  V30 28 C -5.4634 0.677 0.0 0
M  V30 29 C -8.1951 4.2259 0.0 0
M  V30 30 N -9.6893 4.0391 0.0 0
M  V30 31 C -10.6116 5.2299 0.0 0
M  V30 32 C -10.273 2.6616 0.0 0
M  V30 33 C -12.1058 5.0431 0.0 0
M  V30 34 C -11.7673 2.4748 0.0 0
M  V30 35 C -12.6895 3.6656 0.0 0
M  V30 36 N -14.1838 3.4788 0.0 0
M  V30 37 C -15.106 4.6695 0.0 0
M  V30 38 C -14.7675 2.1013 0.0 0
M  V30 39 C -16.6003 4.4827 0.0 0
M  V30 40 C -16.2618 1.9145 0.0 0
M  V30 41 N -17.184 3.1052 0.0 0
M  V30 42 C -18.6783 2.9184 0.0 0
M  V30 END ATOM
M  V30 BEGIN BOND
M  V30 1 1 1 2
M  V30 2 2 2 3
M  V30 3 1 2 4
M  V30 4 1 3 5
M  V30 5 1 3 6
M  V30 6 2 4 7
M  V30 7 2 5 8
M  V30 8 1 6 9
M  V30 9 1 8 10
M  V30 10 2 9 11
M  V30 11 1 9 12
M  V30 12 1 10 13
M  V30 13 1 11 14
M  V30 14 1 11 15
M  V30 15 2 12 16
M  V30 16 2 13 17
M  V30 17 1 13 18
M  V30 18 2 14 19
M  V30 19 2 14 20
M  V30 20 1 14 21
M  V30 21 2 15 22
M  V30 22 1 17 23
M  V30 23 1 17 24
M  V30 24 2 18 25
M  V30 25 1 21 26
M  V30 26 1 21 27
M  V30 27 1 23 28
M  V30 28 2 24 29
M  V30 29 1 29 30
M  V30 30 1 30 31
M  V30 31 1 30 32
M  V30 32 1 31 33
M  V30 33 1 32 34
M  V30 34 1 33 35
M  V30 35 1 35 36
M  V30 36 1 36 37
M  V30 37 1 36 38
M  V30 38 1 37 39
M  V30 39 1 38 40
M  V30 40 1 39 41
M  V30 41 1 41 42
M  V30 42 1 7 8
M  V30 43 1 16 22
M  V30 44 1 25 29
M  V30 45 1 34 35
M  V30 46 1 40 41
M  V30 END BOND
M  V30 END CTAB
M  END
>  <Compound ID>
67

>  <Name>
TAE684

>  <Uniprot>
Q9UK32

>  <Target>
RPS6KA6

>  <Smiles>
COC1=CC(N2CCC(N3CCN(C)CC3)CC2)=CC=C1NC1=NC=C(Cl)C(NC2=CC=CC=C2S(=O)(=O)C(C)C)=N1

>  <Kd (nM)>
27/160

>  <Assay (Kd)>
Kd of RPS6KA6(Kin.Dom.1-N-terminal)/(Kin.Dom.2-C-terminal) was assessed by competition binding assays

>  <Ki (nM)>


>  <Assay (Ki)>


>  <IC50 (nM)>


>  <Assay (IC50)>


>  <EC50 (nM)>


>  <Assay (EC50)>


>  <Article DOI>
10.1038/nbt.1990

>  <Molecular Weight>
614.216

>  <Exact Mass>
613.26018682

>  <XLogP3>
5.67

>  <Heavy Atom Count>
42

>  <Ring Count>
5

>  <Hydrogen Bond Acceptor Count>
10

>  <Hydrogen Bond Donor Count>
2

>  <Rotatable Bond Count>
9

>  <Topological Polar Surface Area>
102.93

>  <Molecular Formula>
C30H40ClN7O3S

>  <InChI>
InChI=1S/C30H40ClN7O3S/c1-21(2)42(39,40)28-8-6-5-7-26(28)33-29-24(31)20-32-30(35-29)34-25-10-9-23(19-27(25)41-4)37-13-11-22(12-14-37)38-17-15-36(3)16-18-38/h5-10,19-22H,11-18H2,1-4H3,(H2,32,33,34,35)

>  <InChI Key>
QQWUGDVOUVUTOY-UHFFFAOYSA-N

>  <BindingDB>
50242742

>  <PubChem>
16038120

>  <ChEMBL>
CHEMBL509032

$$$$
Compound 217
Actelion Java MolfileCreator 2.0

  0  0  0  0  0  0              0 V3000
M  V30 BEGIN CTAB
M  V30 COUNTS 42 46 0 0 0
M  V30 BEGIN ATOM
M  V30 1 Cl 0.0 0.0 0.0 0
M  V30 2 C -0.9222 1.1907 0.0 0
M  V30 3 C -0.3618 2.5916 0.0 0
M  V30 4 C -2.4165 1.0039 0.0 0
M  V30 5 N -1.2841 3.7823 0.0 0
M  V30 6 N 1.109 2.8017 0.0 0
M  V30 7 N -3.3387 2.1947 0.0 0
M  V30 8 C -2.7783 3.5955 0.0 0
M  V30 9 C 1.6693 4.2026 0.0 0
M  V30 10 N -3.7006 4.7863 0.0 0
M  V30 11 C 3.1402 4.4127 0.0 0
M  V30 12 C 0.7471 5.3933 0.0 0
M  V30 13 C -5.1949 4.5995 0.0 0
M  V30 14 S 4.0391 3.2453 0.0 0
M  V30 15 C 3.7006 5.8136 0.0 0
M  V30 16 C 1.3074 6.7942 0.0 0
M  V30 17 C -5.7786 3.222 0.0 0
M  V30 18 C -6.1171 5.7902 0.0 0
M  V30 19 O 2.8484 2.3464 0.0 0
M  V30 20 O 5.2065 4.1675 0.0 0
M  V30 21 C 4.938 2.0779 0.0 0
M  V30 22 C 2.7783 7.0043 0.0 0
M  V30 23 O -4.8797 2.0546 0.0 0
M  V30 24 C -7.2728 3.0352 0.0 0
M  V30 25 C -7.6114 5.6034 0.0 0
M  V30 26 C 6.4089 2.288 0.0 0
M  V30 27 C 4.3543 0.7004 0.0 0
M  V30 28 C -5.4634 0.677 0.0 0
M  V30 29 C -8.1951 4.2259 0.0 0
M  V30 30 N -9.6893 4.0391 0.0 0
M  V30 31 C -10.6116 5.2299 0.0 0
M  V30 32 C -10.273 2.6616 0.0 0
M  V30 33 C -12.1058 5.0431 0.0 0
M  V30 34 C -11.7673 2.4748 0.0 0
M  V30 35 C -12.6895 3.6656 0.0 0
M  V30 36 N -14.1838 3.4788 0.0 0
M  V30 37 C -15.106 4.6695 0.0 0
M  V30 38 C -14.7675 2.1013 0.0 0
M  V30 39 C -16.6003 4.4827 0.0 0
M  V30 40 C -16.2618 1.9145 0.0 0
M  V30 41 N -17.184 3.1052 0.0 0
M  V30 42 C -18.6783 2.9184 0.0 0
M  V30 END ATOM
M  V30 BEGIN BOND
M  V30 1 1 1 2
M  V30 2 2 2 3
M  V30 3 1 2 4
M  V30 4 1 3 5
M  V30 5 1 3 6
M  V30 6 2 4 7
M  V30 7 2 5 8
M  V30 8 1 6 9
M  V30 9 1 8 10
M  V30 10 2 9 11
M  V30 11 1 9 12
M  V30 12 1 10 13
M  V30 13 1 11 14
M  V30 14 1 11 15
M  V30 15 2 12 16
M  V30 16 2 13 17
M  V30 17 1 13 18
M  V30 18 2 14 19
M  V30 19 2 14 20
M  V30 20 1 14 21
M  V30 21 2 15 22
M  V30 22 1 17 23
M  V30 23 1 17 24
M  V30 24 2 18 25
M  V30 25 1 21 26
M  V30 26 1 21 27
M  V30 27 1 23 28
M  V30 28 2 24 29
M  V30 29 1 29 30
M  V30 30 1 30 31
M  V30 31 1 30 32
M  V30 32 1 31 33
M  V30 33 1 32 34
M  V30 34 1 33 35
M  V30 35 1 35 36
M  V30 36 1 36 37
M  V30 37 1 36 38
M  V30 38 1 37 39
M  V30 39 1 38 40
M  V30 40 1 39 41
M  V30 41 1 41 42
M  V30 42 1 7 8
M  V30 43 1 16 22
M  V30 44 1 25 29
M  V30 45 1 34 35
M  V30 46 1 40 41
M  V30 END BOND
M  V30 END CTAB
M  END
>  <Compound ID>
67

>  <Name>
TAE684

>  <Uniprot>
P23443

>  <Target>
RPS6KB1

>  <Smiles>
COC1=CC(N2CCC(N3CCN(C)CC3)CC2)=CC=C1NC1=NC=C(Cl)C(NC2=CC=CC=C2S(=O)(=O)C(C)C)=N1

>  <Kd (nM)>


>  <Assay (Kd)>


>  <Ki (nM)>
1000

>  <Assay (Ki)>
Ki of RPS6KB1

>  <IC50 (nM)>


>  <Assay (IC50)>


>  <EC50 (nM)>


>  <Assay (EC50)>


>  <Article DOI>


>  <Molecular Weight>
614.216

>  <Exact Mass>
613.26018682

>  <XLogP3>
5.67

>  <Heavy Atom Count>
42

>  <Ring Count>
5

>  <Hydrogen Bond Acceptor Count>
10

>  <Hydrogen Bond Donor Count>
2

>  <Rotatable Bond Count>
9

>  <Topological Polar Surface Area>
102.93

>  <Molecular Formula>
C30H40ClN7O3S

>  <InChI>
InChI=1S/C30H40ClN7O3S/c1-21(2)42(39,40)28-8-6-5-7-26(28)33-29-24(31)20-32-30(35-29)34-25-10-9-23(19-27(25)41-4)37-13-11-22(12-14-37)38-17-15-36(3)16-18-38/h5-10,19-22H,11-18H2,1-4H3,(H2,32,33,34,35)

>  <InChI Key>
QQWUGDVOUVUTOY-UHFFFAOYSA-N

>  <BindingDB>
50242742

>  <PubChem>
16038120

>  <ChEMBL>
CHEMBL509032

$$$$
Compound 218
Actelion Java MolfileCreator 2.0

  0  0  0  0  0  0              0 V3000
M  V30 BEGIN CTAB
M  V30 COUNTS 42 46 0 0 0
M  V30 BEGIN ATOM
M  V30 1 Cl 0.0 0.0 0.0 0
M  V30 2 C -0.9222 1.1907 0.0 0
M  V30 3 C -0.3618 2.5916 0.0 0
M  V30 4 C -2.4165 1.0039 0.0 0
M  V30 5 N -1.2841 3.7823 0.0 0
M  V30 6 N 1.109 2.8017 0.0 0
M  V30 7 N -3.3387 2.1947 0.0 0
M  V30 8 C -2.7783 3.5955 0.0 0
M  V30 9 C 1.6693 4.2026 0.0 0
M  V30 10 N -3.7006 4.7863 0.0 0
M  V30 11 C 3.1402 4.4127 0.0 0
M  V30 12 C 0.7471 5.3933 0.0 0
M  V30 13 C -5.1949 4.5995 0.0 0
M  V30 14 S 4.0391 3.2453 0.0 0
M  V30 15 C 3.7006 5.8136 0.0 0
M  V30 16 C 1.3074 6.7942 0.0 0
M  V30 17 C -5.7786 3.222 0.0 0
M  V30 18 C -6.1171 5.7902 0.0 0
M  V30 19 O 2.8484 2.3464 0.0 0
M  V30 20 O 5.2065 4.1675 0.0 0
M  V30 21 C 4.938 2.0779 0.0 0
M  V30 22 C 2.7783 7.0043 0.0 0
M  V30 23 O -4.8797 2.0546 0.0 0
M  V30 24 C -7.2728 3.0352 0.0 0
M  V30 25 C -7.6114 5.6034 0.0 0
M  V30 26 C 6.4089 2.288 0.0 0
M  V30 27 C 4.3543 0.7004 0.0 0
M  V30 28 C -5.4634 0.677 0.0 0
M  V30 29 C -8.1951 4.2259 0.0 0
M  V30 30 N -9.6893 4.0391 0.0 0
M  V30 31 C -10.6116 5.2299 0.0 0
M  V30 32 C -10.273 2.6616 0.0 0
M  V30 33 C -12.1058 5.0431 0.0 0
M  V30 34 C -11.7673 2.4748 0.0 0
M  V30 35 C -12.6895 3.6656 0.0 0
M  V30 36 N -14.1838 3.4788 0.0 0
M  V30 37 C -15.106 4.6695 0.0 0
M  V30 38 C -14.7675 2.1013 0.0 0
M  V30 39 C -16.6003 4.4827 0.0 0
M  V30 40 C -16.2618 1.9145 0.0 0
M  V30 41 N -17.184 3.1052 0.0 0
M  V30 42 C -18.6783 2.9184 0.0 0
M  V30 END ATOM
M  V30 BEGIN BOND
M  V30 1 1 1 2
M  V30 2 2 2 3
M  V30 3 1 2 4
M  V30 4 1 3 5
M  V30 5 1 3 6
M  V30 6 2 4 7
M  V30 7 2 5 8
M  V30 8 1 6 9
M  V30 9 1 8 10
M  V30 10 2 9 11
M  V30 11 1 9 12
M  V30 12 1 10 13
M  V30 13 1 11 14
M  V30 14 1 11 15
M  V30 15 2 12 16
M  V30 16 2 13 17
M  V30 17 1 13 18
M  V30 18 2 14 19
M  V30 19 2 14 20
M  V30 20 1 14 21
M  V30 21 2 15 22
M  V30 22 1 17 23
M  V30 23 1 17 24
M  V30 24 2 18 25
M  V30 25 1 21 26
M  V30 26 1 21 27
M  V30 27 1 23 28
M  V30 28 2 24 29
M  V30 29 1 29 30
M  V30 30 1 30 31
M  V30 31 1 30 32
M  V30 32 1 31 33
M  V30 33 1 32 34
M  V30 34 1 33 35
M  V30 35 1 35 36
M  V30 36 1 36 37
M  V30 37 1 36 38
M  V30 38 1 37 39
M  V30 39 1 38 40
M  V30 40 1 39 41
M  V30 41 1 41 42
M  V30 42 1 7 8
M  V30 43 1 16 22
M  V30 44 1 25 29
M  V30 45 1 34 35
M  V30 46 1 40 41
M  V30 END BOND
M  V30 END CTAB
M  END
>  <Compound ID>
67

>  <Name>
TAE684

>  <Uniprot>
Q96S38

>  <Target>
RPS6KC1

>  <Smiles>
COC1=CC(N2CCC(N3CCN(C)CC3)CC2)=CC=C1NC1=NC=C(Cl)C(NC2=CC=CC=C2S(=O)(=O)C(C)C)=N1

>  <Kd (nM)>


>  <Assay (Kd)>


>  <Ki (nM)>


>  <Assay (Ki)>


>  <IC50 (nM)>


>  <Assay (IC50)>


>  <EC50 (nM)>


>  <Assay (EC50)>


>  <Article DOI>
10.1016/j.cell.2020.10.038

>  <Molecular Weight>
614.216

>  <Exact Mass>
613.26018682

>  <XLogP3>
5.67

>  <Heavy Atom Count>
42

>  <Ring Count>
5

>  <Hydrogen Bond Acceptor Count>
10

>  <Hydrogen Bond Donor Count>
2

>  <Rotatable Bond Count>
9

>  <Topological Polar Surface Area>
102.93

>  <Molecular Formula>
C30H40ClN7O3S

>  <InChI>
InChI=1S/C30H40ClN7O3S/c1-21(2)42(39,40)28-8-6-5-7-26(28)33-29-24(31)20-32-30(35-29)34-25-10-9-23(19-27(25)41-4)37-13-11-22(12-14-37)38-17-15-36(3)16-18-38/h5-10,19-22H,11-18H2,1-4H3,(H2,32,33,34,35)

>  <InChI Key>
QQWUGDVOUVUTOY-UHFFFAOYSA-N

>  <BindingDB>
50242742

>  <PubChem>
16038120

>  <ChEMBL>
CHEMBL509032

$$$$
Compound 219
Actelion Java MolfileCreator 2.0

  0  0  0  0  0  0              0 V3000
M  V30 BEGIN CTAB
M  V30 COUNTS 42 46 0 0 0
M  V30 BEGIN ATOM
M  V30 1 Cl 0.0 0.0 0.0 0
M  V30 2 C -0.9222 1.1907 0.0 0
M  V30 3 C -0.3618 2.5916 0.0 0
M  V30 4 C -2.4165 1.0039 0.0 0
M  V30 5 N -1.2841 3.7823 0.0 0
M  V30 6 N 1.109 2.8017 0.0 0
M  V30 7 N -3.3387 2.1947 0.0 0
M  V30 8 C -2.7783 3.5955 0.0 0
M  V30 9 C 1.6693 4.2026 0.0 0
M  V30 10 N -3.7006 4.7863 0.0 0
M  V30 11 C 3.1402 4.4127 0.0 0
M  V30 12 C 0.7471 5.3933 0.0 0
M  V30 13 C -5.1949 4.5995 0.0 0
M  V30 14 S 4.0391 3.2453 0.0 0
M  V30 15 C 3.7006 5.8136 0.0 0
M  V30 16 C 1.3074 6.7942 0.0 0
M  V30 17 C -5.7786 3.222 0.0 0
M  V30 18 C -6.1171 5.7902 0.0 0
M  V30 19 O 2.8484 2.3464 0.0 0
M  V30 20 O 5.2065 4.1675 0.0 0
M  V30 21 C 4.938 2.0779 0.0 0
M  V30 22 C 2.7783 7.0043 0.0 0
M  V30 23 O -4.8797 2.0546 0.0 0
M  V30 24 C -7.2728 3.0352 0.0 0
M  V30 25 C -7.6114 5.6034 0.0 0
M  V30 26 C 6.4089 2.288 0.0 0
M  V30 27 C 4.3543 0.7004 0.0 0
M  V30 28 C -5.4634 0.677 0.0 0
M  V30 29 C -8.1951 4.2259 0.0 0
M  V30 30 N -9.6893 4.0391 0.0 0
M  V30 31 C -10.6116 5.2299 0.0 0
M  V30 32 C -10.273 2.6616 0.0 0
M  V30 33 C -12.1058 5.0431 0.0 0
M  V30 34 C -11.7673 2.4748 0.0 0
M  V30 35 C -12.6895 3.6656 0.0 0
M  V30 36 N -14.1838 3.4788 0.0 0
M  V30 37 C -15.106 4.6695 0.0 0
M  V30 38 C -14.7675 2.1013 0.0 0
M  V30 39 C -16.6003 4.4827 0.0 0
M  V30 40 C -16.2618 1.9145 0.0 0
M  V30 41 N -17.184 3.1052 0.0 0
M  V30 42 C -18.6783 2.9184 0.0 0
M  V30 END ATOM
M  V30 BEGIN BOND
M  V30 1 1 1 2
M  V30 2 2 2 3
M  V30 3 1 2 4
M  V30 4 1 3 5
M  V30 5 1 3 6
M  V30 6 2 4 7
M  V30 7 2 5 8
M  V30 8 1 6 9
M  V30 9 1 8 10
M  V30 10 2 9 11
M  V30 11 1 9 12
M  V30 12 1 10 13
M  V30 13 1 11 14
M  V30 14 1 11 15
M  V30 15 2 12 16
M  V30 16 2 13 17
M  V30 17 1 13 18
M  V30 18 2 14 19
M  V30 19 2 14 20
M  V30 20 1 14 21
M  V30 21 2 15 22
M  V30 22 1 17 23
M  V30 23 1 17 24
M  V30 24 2 18 25
M  V30 25 1 21 26
M  V30 26 1 21 27
M  V30 27 1 23 28
M  V30 28 2 24 29
M  V30 29 1 29 30
M  V30 30 1 30 31
M  V30 31 1 30 32
M  V30 32 1 31 33
M  V30 33 1 32 34
M  V30 34 1 33 35
M  V30 35 1 35 36
M  V30 36 1 36 37
M  V30 37 1 36 38
M  V30 38 1 37 39
M  V30 39 1 38 40
M  V30 40 1 39 41
M  V30 41 1 41 42
M  V30 42 1 7 8
M  V30 43 1 16 22
M  V30 44 1 25 29
M  V30 45 1 34 35
M  V30 46 1 40 41
M  V30 END BOND
M  V30 END CTAB
M  END
>  <Compound ID>
67

>  <Name>
TAE684

>  <Uniprot>
Q52WX2

>  <Target>
SBK1

>  <Smiles>
COC1=CC(N2CCC(N3CCN(C)CC3)CC2)=CC=C1NC1=NC=C(Cl)C(NC2=CC=CC=C2S(=O)(=O)C(C)C)=N1

>  <Kd (nM)>
21

>  <Assay (Kd)>
Kd was assessed by competition binding assays

>  <Ki (nM)>


>  <Assay (Ki)>


>  <IC50 (nM)>


>  <Assay (IC50)>


>  <EC50 (nM)>


>  <Assay (EC50)>


>  <Article DOI>
10.1038/nbt.1990

>  <Molecular Weight>
614.216

>  <Exact Mass>
613.26018682

>  <XLogP3>
5.67

>  <Heavy Atom Count>
42

>  <Ring Count>
5

>  <Hydrogen Bond Acceptor Count>
10

>  <Hydrogen Bond Donor Count>
2

>  <Rotatable Bond Count>
9

>  <Topological Polar Surface Area>
102.93

>  <Molecular Formula>
C30H40ClN7O3S

>  <InChI>
InChI=1S/C30H40ClN7O3S/c1-21(2)42(39,40)28-8-6-5-7-26(28)33-29-24(31)20-32-30(35-29)34-25-10-9-23(19-27(25)41-4)37-13-11-22(12-14-37)38-17-15-36(3)16-18-38/h5-10,19-22H,11-18H2,1-4H3,(H2,32,33,34,35)

>  <InChI Key>
QQWUGDVOUVUTOY-UHFFFAOYSA-N

>  <BindingDB>
50242742

>  <PubChem>
16038120

>  <ChEMBL>
CHEMBL509032

$$$$
Compound 220
Actelion Java MolfileCreator 2.0

  0  0  0  0  0  0              0 V3000
M  V30 BEGIN CTAB
M  V30 COUNTS 42 46 0 0 0
M  V30 BEGIN ATOM
M  V30 1 Cl 0.0 0.0 0.0 0
M  V30 2 C -0.9222 1.1907 0.0 0
M  V30 3 C -0.3618 2.5916 0.0 0
M  V30 4 C -2.4165 1.0039 0.0 0
M  V30 5 N -1.2841 3.7823 0.0 0
M  V30 6 N 1.109 2.8017 0.0 0
M  V30 7 N -3.3387 2.1947 0.0 0
M  V30 8 C -2.7783 3.5955 0.0 0
M  V30 9 C 1.6693 4.2026 0.0 0
M  V30 10 N -3.7006 4.7863 0.0 0
M  V30 11 C 3.1402 4.4127 0.0 0
M  V30 12 C 0.7471 5.3933 0.0 0
M  V30 13 C -5.1949 4.5995 0.0 0
M  V30 14 S 4.0391 3.2453 0.0 0
M  V30 15 C 3.7006 5.8136 0.0 0
M  V30 16 C 1.3074 6.7942 0.0 0
M  V30 17 C -5.7786 3.222 0.0 0
M  V30 18 C -6.1171 5.7902 0.0 0
M  V30 19 O 2.8484 2.3464 0.0 0
M  V30 20 O 5.2065 4.1675 0.0 0
M  V30 21 C 4.938 2.0779 0.0 0
M  V30 22 C 2.7783 7.0043 0.0 0
M  V30 23 O -4.8797 2.0546 0.0 0
M  V30 24 C -7.2728 3.0352 0.0 0
M  V30 25 C -7.6114 5.6034 0.0 0
M  V30 26 C 6.4089 2.288 0.0 0
M  V30 27 C 4.3543 0.7004 0.0 0
M  V30 28 C -5.4634 0.677 0.0 0
M  V30 29 C -8.1951 4.2259 0.0 0
M  V30 30 N -9.6893 4.0391 0.0 0
M  V30 31 C -10.6116 5.2299 0.0 0
M  V30 32 C -10.273 2.6616 0.0 0
M  V30 33 C -12.1058 5.0431 0.0 0
M  V30 34 C -11.7673 2.4748 0.0 0
M  V30 35 C -12.6895 3.6656 0.0 0
M  V30 36 N -14.1838 3.4788 0.0 0
M  V30 37 C -15.106 4.6695 0.0 0
M  V30 38 C -14.7675 2.1013 0.0 0
M  V30 39 C -16.6003 4.4827 0.0 0
M  V30 40 C -16.2618 1.9145 0.0 0
M  V30 41 N -17.184 3.1052 0.0 0
M  V30 42 C -18.6783 2.9184 0.0 0
M  V30 END ATOM
M  V30 BEGIN BOND
M  V30 1 1 1 2
M  V30 2 2 2 3
M  V30 3 1 2 4
M  V30 4 1 3 5
M  V30 5 1 3 6
M  V30 6 2 4 7
M  V30 7 2 5 8
M  V30 8 1 6 9
M  V30 9 1 8 10
M  V30 10 2 9 11
M  V30 11 1 9 12
M  V30 12 1 10 13
M  V30 13 1 11 14
M  V30 14 1 11 15
M  V30 15 2 12 16
M  V30 16 2 13 17
M  V30 17 1 13 18
M  V30 18 2 14 19
M  V30 19 2 14 20
M  V30 20 1 14 21
M  V30 21 2 15 22
M  V30 22 1 17 23
M  V30 23 1 17 24
M  V30 24 2 18 25
M  V30 25 1 21 26
M  V30 26 1 21 27
M  V30 27 1 23 28
M  V30 28 2 24 29
M  V30 29 1 29 30
M  V30 30 1 30 31
M  V30 31 1 30 32
M  V30 32 1 31 33
M  V30 33 1 32 34
M  V30 34 1 33 35
M  V30 35 1 35 36
M  V30 36 1 36 37
M  V30 37 1 36 38
M  V30 38 1 37 39
M  V30 39 1 38 40
M  V30 40 1 39 41
M  V30 41 1 41 42
M  V30 42 1 7 8
M  V30 43 1 16 22
M  V30 44 1 25 29
M  V30 45 1 34 35
M  V30 46 1 40 41
M  V30 END BOND
M  V30 END CTAB
M  END
>  <Compound ID>
67

>  <Name>
TAE684

>  <Uniprot>
Q9H0K1

>  <Target>
SIK2

>  <Smiles>
COC1=CC(N2CCC(N3CCN(C)CC3)CC2)=CC=C1NC1=NC=C(Cl)C(NC2=CC=CC=C2S(=O)(=O)C(C)C)=N1

>  <Kd (nM)>
17

>  <Assay (Kd)>
Kd was assessed by competition binding assays

>  <Ki (nM)>


>  <Assay (Ki)>


>  <IC50 (nM)>


>  <Assay (IC50)>


>  <EC50 (nM)>


>  <Assay (EC50)>


>  <Article DOI>
10.1038/nbt.1990

>  <Molecular Weight>
614.216

>  <Exact Mass>
613.26018682

>  <XLogP3>
5.67

>  <Heavy Atom Count>
42

>  <Ring Count>
5

>  <Hydrogen Bond Acceptor Count>
10

>  <Hydrogen Bond Donor Count>
2

>  <Rotatable Bond Count>
9

>  <Topological Polar Surface Area>
102.93

>  <Molecular Formula>
C30H40ClN7O3S

>  <InChI>
InChI=1S/C30H40ClN7O3S/c1-21(2)42(39,40)28-8-6-5-7-26(28)33-29-24(31)20-32-30(35-29)34-25-10-9-23(19-27(25)41-4)37-13-11-22(12-14-37)38-17-15-36(3)16-18-38/h5-10,19-22H,11-18H2,1-4H3,(H2,32,33,34,35)

>  <InChI Key>
QQWUGDVOUVUTOY-UHFFFAOYSA-N

>  <BindingDB>
50242742

>  <PubChem>
16038120

>  <ChEMBL>
CHEMBL509032

$$$$
Compound 221
Actelion Java MolfileCreator 2.0

  0  0  0  0  0  0              0 V3000
M  V30 BEGIN CTAB
M  V30 COUNTS 42 46 0 0 0
M  V30 BEGIN ATOM
M  V30 1 Cl 0.0 0.0 0.0 0
M  V30 2 C -0.9222 1.1907 0.0 0
M  V30 3 C -0.3618 2.5916 0.0 0
M  V30 4 C -2.4165 1.0039 0.0 0
M  V30 5 N -1.2841 3.7823 0.0 0
M  V30 6 N 1.109 2.8017 0.0 0
M  V30 7 N -3.3387 2.1947 0.0 0
M  V30 8 C -2.7783 3.5955 0.0 0
M  V30 9 C 1.6693 4.2026 0.0 0
M  V30 10 N -3.7006 4.7863 0.0 0
M  V30 11 C 3.1402 4.4127 0.0 0
M  V30 12 C 0.7471 5.3933 0.0 0
M  V30 13 C -5.1949 4.5995 0.0 0
M  V30 14 S 4.0391 3.2453 0.0 0
M  V30 15 C 3.7006 5.8136 0.0 0
M  V30 16 C 1.3074 6.7942 0.0 0
M  V30 17 C -5.7786 3.222 0.0 0
M  V30 18 C -6.1171 5.7902 0.0 0
M  V30 19 O 2.8484 2.3464 0.0 0
M  V30 20 O 5.2065 4.1675 0.0 0
M  V30 21 C 4.938 2.0779 0.0 0
M  V30 22 C 2.7783 7.0043 0.0 0
M  V30 23 O -4.8797 2.0546 0.0 0
M  V30 24 C -7.2728 3.0352 0.0 0
M  V30 25 C -7.6114 5.6034 0.0 0
M  V30 26 C 6.4089 2.288 0.0 0
M  V30 27 C 4.3543 0.7004 0.0 0
M  V30 28 C -5.4634 0.677 0.0 0
M  V30 29 C -8.1951 4.2259 0.0 0
M  V30 30 N -9.6893 4.0391 0.0 0
M  V30 31 C -10.6116 5.2299 0.0 0
M  V30 32 C -10.273 2.6616 0.0 0
M  V30 33 C -12.1058 5.0431 0.0 0
M  V30 34 C -11.7673 2.4748 0.0 0
M  V30 35 C -12.6895 3.6656 0.0 0
M  V30 36 N -14.1838 3.4788 0.0 0
M  V30 37 C -15.106 4.6695 0.0 0
M  V30 38 C -14.7675 2.1013 0.0 0
M  V30 39 C -16.6003 4.4827 0.0 0
M  V30 40 C -16.2618 1.9145 0.0 0
M  V30 41 N -17.184 3.1052 0.0 0
M  V30 42 C -18.6783 2.9184 0.0 0
M  V30 END ATOM
M  V30 BEGIN BOND
M  V30 1 1 1 2
M  V30 2 2 2 3
M  V30 3 1 2 4
M  V30 4 1 3 5
M  V30 5 1 3 6
M  V30 6 2 4 7
M  V30 7 2 5 8
M  V30 8 1 6 9
M  V30 9 1 8 10
M  V30 10 2 9 11
M  V30 11 1 9 12
M  V30 12 1 10 13
M  V30 13 1 11 14
M  V30 14 1 11 15
M  V30 15 2 12 16
M  V30 16 2 13 17
M  V30 17 1 13 18
M  V30 18 2 14 19
M  V30 19 2 14 20
M  V30 20 1 14 21
M  V30 21 2 15 22
M  V30 22 1 17 23
M  V30 23 1 17 24
M  V30 24 2 18 25
M  V30 25 1 21 26
M  V30 26 1 21 27
M  V30 27 1 23 28
M  V30 28 2 24 29
M  V30 29 1 29 30
M  V30 30 1 30 31
M  V30 31 1 30 32
M  V30 32 1 31 33
M  V30 33 1 32 34
M  V30 34 1 33 35
M  V30 35 1 35 36
M  V30 36 1 36 37
M  V30 37 1 36 38
M  V30 38 1 37 39
M  V30 39 1 38 40
M  V30 40 1 39 41
M  V30 41 1 41 42
M  V30 42 1 7 8
M  V30 43 1 16 22
M  V30 44 1 25 29
M  V30 45 1 34 35
M  V30 46 1 40 41
M  V30 END BOND
M  V30 END CTAB
M  END
>  <Compound ID>
67

>  <Name>
TAE684

>  <Uniprot>
P12931

>  <Target>
Src

>  <Smiles>
COC1=CC(N2CCC(N3CCN(C)CC3)CC2)=CC=C1NC1=NC=C(Cl)C(NC2=CC=CC=C2S(=O)(=O)C(C)C)=N1

>  <Kd (nM)>
280

>  <Assay (Kd)>
Kd was assessed by competition binding assays

>  <Ki (nM)>


>  <Assay (Ki)>


>  <IC50 (nM)>


>  <Assay (IC50)>


>  <EC50 (nM)>


>  <Assay (EC50)>


>  <Article DOI>
10.1038/nbt.1990

>  <Molecular Weight>
614.216

>  <Exact Mass>
613.26018682

>  <XLogP3>
5.67

>  <Heavy Atom Count>
42

>  <Ring Count>
5

>  <Hydrogen Bond Acceptor Count>
10

>  <Hydrogen Bond Donor Count>
2

>  <Rotatable Bond Count>
9

>  <Topological Polar Surface Area>
102.93

>  <Molecular Formula>
C30H40ClN7O3S

>  <InChI>
InChI=1S/C30H40ClN7O3S/c1-21(2)42(39,40)28-8-6-5-7-26(28)33-29-24(31)20-32-30(35-29)34-25-10-9-23(19-27(25)41-4)37-13-11-22(12-14-37)38-17-15-36(3)16-18-38/h5-10,19-22H,11-18H2,1-4H3,(H2,32,33,34,35)

>  <InChI Key>
QQWUGDVOUVUTOY-UHFFFAOYSA-N

>  <BindingDB>
50242742

>  <PubChem>
16038120

>  <ChEMBL>
CHEMBL509032

$$$$
Compound 222
Actelion Java MolfileCreator 2.0

  0  0  0  0  0  0              0 V3000
M  V30 BEGIN CTAB
M  V30 COUNTS 42 46 0 0 0
M  V30 BEGIN ATOM
M  V30 1 Cl 0.0 0.0 0.0 0
M  V30 2 C -0.9222 1.1907 0.0 0
M  V30 3 C -0.3618 2.5916 0.0 0
M  V30 4 C -2.4165 1.0039 0.0 0
M  V30 5 N -1.2841 3.7823 0.0 0
M  V30 6 N 1.109 2.8017 0.0 0
M  V30 7 N -3.3387 2.1947 0.0 0
M  V30 8 C -2.7783 3.5955 0.0 0
M  V30 9 C 1.6693 4.2026 0.0 0
M  V30 10 N -3.7006 4.7863 0.0 0
M  V30 11 C 3.1402 4.4127 0.0 0
M  V30 12 C 0.7471 5.3933 0.0 0
M  V30 13 C -5.1949 4.5995 0.0 0
M  V30 14 S 4.0391 3.2453 0.0 0
M  V30 15 C 3.7006 5.8136 0.0 0
M  V30 16 C 1.3074 6.7942 0.0 0
M  V30 17 C -5.7786 3.222 0.0 0
M  V30 18 C -6.1171 5.7902 0.0 0
M  V30 19 O 2.8484 2.3464 0.0 0
M  V30 20 O 5.2065 4.1675 0.0 0
M  V30 21 C 4.938 2.0779 0.0 0
M  V30 22 C 2.7783 7.0043 0.0 0
M  V30 23 O -4.8797 2.0546 0.0 0
M  V30 24 C -7.2728 3.0352 0.0 0
M  V30 25 C -7.6114 5.6034 0.0 0
M  V30 26 C 6.4089 2.288 0.0 0
M  V30 27 C 4.3543 0.7004 0.0 0
M  V30 28 C -5.4634 0.677 0.0 0
M  V30 29 C -8.1951 4.2259 0.0 0
M  V30 30 N -9.6893 4.0391 0.0 0
M  V30 31 C -10.6116 5.2299 0.0 0
M  V30 32 C -10.273 2.6616 0.0 0
M  V30 33 C -12.1058 5.0431 0.0 0
M  V30 34 C -11.7673 2.4748 0.0 0
M  V30 35 C -12.6895 3.6656 0.0 0
M  V30 36 N -14.1838 3.4788 0.0 0
M  V30 37 C -15.106 4.6695 0.0 0
M  V30 38 C -14.7675 2.1013 0.0 0
M  V30 39 C -16.6003 4.4827 0.0 0
M  V30 40 C -16.2618 1.9145 0.0 0
M  V30 41 N -17.184 3.1052 0.0 0
M  V30 42 C -18.6783 2.9184 0.0 0
M  V30 END ATOM
M  V30 BEGIN BOND
M  V30 1 1 1 2
M  V30 2 2 2 3
M  V30 3 1 2 4
M  V30 4 1 3 5
M  V30 5 1 3 6
M  V30 6 2 4 7
M  V30 7 2 5 8
M  V30 8 1 6 9
M  V30 9 1 8 10
M  V30 10 2 9 11
M  V30 11 1 9 12
M  V30 12 1 10 13
M  V30 13 1 11 14
M  V30 14 1 11 15
M  V30 15 2 12 16
M  V30 16 2 13 17
M  V30 17 1 13 18
M  V30 18 2 14 19
M  V30 19 2 14 20
M  V30 20 1 14 21
M  V30 21 2 15 22
M  V30 22 1 17 23
M  V30 23 1 17 24
M  V30 24 2 18 25
M  V30 25 1 21 26
M  V30 26 1 21 27
M  V30 27 1 23 28
M  V30 28 2 24 29
M  V30 29 1 29 30
M  V30 30 1 30 31
M  V30 31 1 30 32
M  V30 32 1 31 33
M  V30 33 1 32 34
M  V30 34 1 33 35
M  V30 35 1 35 36
M  V30 36 1 36 37
M  V30 37 1 36 38
M  V30 38 1 37 39
M  V30 39 1 38 40
M  V30 40 1 39 41
M  V30 41 1 41 42
M  V30 42 1 7 8
M  V30 43 1 16 22
M  V30 44 1 25 29
M  V30 45 1 34 35
M  V30 46 1 40 41
M  V30 END BOND
M  V30 END CTAB
M  END
>  <Compound ID>
67

>  <Name>
TAE684

>  <Uniprot>
O94804

>  <Target>
STK10

>  <Smiles>
COC1=CC(N2CCC(N3CCN(C)CC3)CC2)=CC=C1NC1=NC=C(Cl)C(NC2=CC=CC=C2S(=O)(=O)C(C)C)=N1

>  <Kd (nM)>
82

>  <Assay (Kd)>
Kd was assessed by competition binding assays

>  <Ki (nM)>


>  <Assay (Ki)>


>  <IC50 (nM)>


>  <Assay (IC50)>


>  <EC50 (nM)>


>  <Assay (EC50)>


>  <Article DOI>
10.1038/nbt.1990

>  <Molecular Weight>
614.216

>  <Exact Mass>
613.26018682

>  <XLogP3>
5.67

>  <Heavy Atom Count>
42

>  <Ring Count>
5

>  <Hydrogen Bond Acceptor Count>
10

>  <Hydrogen Bond Donor Count>
2

>  <Rotatable Bond Count>
9

>  <Topological Polar Surface Area>
102.93

>  <Molecular Formula>
C30H40ClN7O3S

>  <InChI>
InChI=1S/C30H40ClN7O3S/c1-21(2)42(39,40)28-8-6-5-7-26(28)33-29-24(31)20-32-30(35-29)34-25-10-9-23(19-27(25)41-4)37-13-11-22(12-14-37)38-17-15-36(3)16-18-38/h5-10,19-22H,11-18H2,1-4H3,(H2,32,33,34,35)

>  <InChI Key>
QQWUGDVOUVUTOY-UHFFFAOYSA-N

>  <BindingDB>
50242742

>  <PubChem>
16038120

>  <ChEMBL>
CHEMBL509032

$$$$
Compound 223
Actelion Java MolfileCreator 2.0

  0  0  0  0  0  0              0 V3000
M  V30 BEGIN CTAB
M  V30 COUNTS 42 46 0 0 0
M  V30 BEGIN ATOM
M  V30 1 Cl 0.0 0.0 0.0 0
M  V30 2 C -0.9222 1.1907 0.0 0
M  V30 3 C -0.3618 2.5916 0.0 0
M  V30 4 C -2.4165 1.0039 0.0 0
M  V30 5 N -1.2841 3.7823 0.0 0
M  V30 6 N 1.109 2.8017 0.0 0
M  V30 7 N -3.3387 2.1947 0.0 0
M  V30 8 C -2.7783 3.5955 0.0 0
M  V30 9 C 1.6693 4.2026 0.0 0
M  V30 10 N -3.7006 4.7863 0.0 0
M  V30 11 C 3.1402 4.4127 0.0 0
M  V30 12 C 0.7471 5.3933 0.0 0
M  V30 13 C -5.1949 4.5995 0.0 0
M  V30 14 S 4.0391 3.2453 0.0 0
M  V30 15 C 3.7006 5.8136 0.0 0
M  V30 16 C 1.3074 6.7942 0.0 0
M  V30 17 C -5.7786 3.222 0.0 0
M  V30 18 C -6.1171 5.7902 0.0 0
M  V30 19 O 2.8484 2.3464 0.0 0
M  V30 20 O 5.2065 4.1675 0.0 0
M  V30 21 C 4.938 2.0779 0.0 0
M  V30 22 C 2.7783 7.0043 0.0 0
M  V30 23 O -4.8797 2.0546 0.0 0
M  V30 24 C -7.2728 3.0352 0.0 0
M  V30 25 C -7.6114 5.6034 0.0 0
M  V30 26 C 6.4089 2.288 0.0 0
M  V30 27 C 4.3543 0.7004 0.0 0
M  V30 28 C -5.4634 0.677 0.0 0
M  V30 29 C -8.1951 4.2259 0.0 0
M  V30 30 N -9.6893 4.0391 0.0 0
M  V30 31 C -10.6116 5.2299 0.0 0
M  V30 32 C -10.273 2.6616 0.0 0
M  V30 33 C -12.1058 5.0431 0.0 0
M  V30 34 C -11.7673 2.4748 0.0 0
M  V30 35 C -12.6895 3.6656 0.0 0
M  V30 36 N -14.1838 3.4788 0.0 0
M  V30 37 C -15.106 4.6695 0.0 0
M  V30 38 C -14.7675 2.1013 0.0 0
M  V30 39 C -16.6003 4.4827 0.0 0
M  V30 40 C -16.2618 1.9145 0.0 0
M  V30 41 N -17.184 3.1052 0.0 0
M  V30 42 C -18.6783 2.9184 0.0 0
M  V30 END ATOM
M  V30 BEGIN BOND
M  V30 1 1 1 2
M  V30 2 2 2 3
M  V30 3 1 2 4
M  V30 4 1 3 5
M  V30 5 1 3 6
M  V30 6 2 4 7
M  V30 7 2 5 8
M  V30 8 1 6 9
M  V30 9 1 8 10
M  V30 10 2 9 11
M  V30 11 1 9 12
M  V30 12 1 10 13
M  V30 13 1 11 14
M  V30 14 1 11 15
M  V30 15 2 12 16
M  V30 16 2 13 17
M  V30 17 1 13 18
M  V30 18 2 14 19
M  V30 19 2 14 20
M  V30 20 1 14 21
M  V30 21 2 15 22
M  V30 22 1 17 23
M  V30 23 1 17 24
M  V30 24 2 18 25
M  V30 25 1 21 26
M  V30 26 1 21 27
M  V30 27 1 23 28
M  V30 28 2 24 29
M  V30 29 1 29 30
M  V30 30 1 30 31
M  V30 31 1 30 32
M  V30 32 1 31 33
M  V30 33 1 32 34
M  V30 34 1 33 35
M  V30 35 1 35 36
M  V30 36 1 36 37
M  V30 37 1 36 38
M  V30 38 1 37 39
M  V30 39 1 38 40
M  V30 40 1 39 41
M  V30 41 1 41 42
M  V30 42 1 7 8
M  V30 43 1 16 22
M  V30 44 1 25 29
M  V30 45 1 34 35
M  V30 46 1 40 41
M  V30 END BOND
M  V30 END CTAB
M  END
>  <Compound ID>
67

>  <Name>
TAE684

>  <Uniprot>
Q9UEE5

>  <Target>
STK17A

>  <Smiles>
COC1=CC(N2CCC(N3CCN(C)CC3)CC2)=CC=C1NC1=NC=C(Cl)C(NC2=CC=CC=C2S(=O)(=O)C(C)C)=N1

>  <Kd (nM)>
2900

>  <Assay (Kd)>
Kd was assessed by competition binding assays

>  <Ki (nM)>


>  <Assay (Ki)>


>  <IC50 (nM)>


>  <Assay (IC50)>


>  <EC50 (nM)>


>  <Assay (EC50)>


>  <Article DOI>
10.1038/nbt.1990

>  <Molecular Weight>
614.216

>  <Exact Mass>
613.26018682

>  <XLogP3>
5.67

>  <Heavy Atom Count>
42

>  <Ring Count>
5

>  <Hydrogen Bond Acceptor Count>
10

>  <Hydrogen Bond Donor Count>
2

>  <Rotatable Bond Count>
9

>  <Topological Polar Surface Area>
102.93

>  <Molecular Formula>
C30H40ClN7O3S

>  <InChI>
InChI=1S/C30H40ClN7O3S/c1-21(2)42(39,40)28-8-6-5-7-26(28)33-29-24(31)20-32-30(35-29)34-25-10-9-23(19-27(25)41-4)37-13-11-22(12-14-37)38-17-15-36(3)16-18-38/h5-10,19-22H,11-18H2,1-4H3,(H2,32,33,34,35)

>  <InChI Key>
QQWUGDVOUVUTOY-UHFFFAOYSA-N

>  <BindingDB>
50242742

>  <PubChem>
16038120

>  <ChEMBL>
CHEMBL509032

$$$$
Compound 224
Actelion Java MolfileCreator 2.0

  0  0  0  0  0  0              0 V3000
M  V30 BEGIN CTAB
M  V30 COUNTS 42 46 0 0 0
M  V30 BEGIN ATOM
M  V30 1 Cl 0.0 0.0 0.0 0
M  V30 2 C -0.9222 1.1907 0.0 0
M  V30 3 C -0.3618 2.5916 0.0 0
M  V30 4 C -2.4165 1.0039 0.0 0
M  V30 5 N -1.2841 3.7823 0.0 0
M  V30 6 N 1.109 2.8017 0.0 0
M  V30 7 N -3.3387 2.1947 0.0 0
M  V30 8 C -2.7783 3.5955 0.0 0
M  V30 9 C 1.6693 4.2026 0.0 0
M  V30 10 N -3.7006 4.7863 0.0 0
M  V30 11 C 3.1402 4.4127 0.0 0
M  V30 12 C 0.7471 5.3933 0.0 0
M  V30 13 C -5.1949 4.5995 0.0 0
M  V30 14 S 4.0391 3.2453 0.0 0
M  V30 15 C 3.7006 5.8136 0.0 0
M  V30 16 C 1.3074 6.7942 0.0 0
M  V30 17 C -5.7786 3.222 0.0 0
M  V30 18 C -6.1171 5.7902 0.0 0
M  V30 19 O 2.8484 2.3464 0.0 0
M  V30 20 O 5.2065 4.1675 0.0 0
M  V30 21 C 4.938 2.0779 0.0 0
M  V30 22 C 2.7783 7.0043 0.0 0
M  V30 23 O -4.8797 2.0546 0.0 0
M  V30 24 C -7.2728 3.0352 0.0 0
M  V30 25 C -7.6114 5.6034 0.0 0
M  V30 26 C 6.4089 2.288 0.0 0
M  V30 27 C 4.3543 0.7004 0.0 0
M  V30 28 C -5.4634 0.677 0.0 0
M  V30 29 C -8.1951 4.2259 0.0 0
M  V30 30 N -9.6893 4.0391 0.0 0
M  V30 31 C -10.6116 5.2299 0.0 0
M  V30 32 C -10.273 2.6616 0.0 0
M  V30 33 C -12.1058 5.0431 0.0 0
M  V30 34 C -11.7673 2.4748 0.0 0
M  V30 35 C -12.6895 3.6656 0.0 0
M  V30 36 N -14.1838 3.4788 0.0 0
M  V30 37 C -15.106 4.6695 0.0 0
M  V30 38 C -14.7675 2.1013 0.0 0
M  V30 39 C -16.6003 4.4827 0.0 0
M  V30 40 C -16.2618 1.9145 0.0 0
M  V30 41 N -17.184 3.1052 0.0 0
M  V30 42 C -18.6783 2.9184 0.0 0
M  V30 END ATOM
M  V30 BEGIN BOND
M  V30 1 1 1 2
M  V30 2 2 2 3
M  V30 3 1 2 4
M  V30 4 1 3 5
M  V30 5 1 3 6
M  V30 6 2 4 7
M  V30 7 2 5 8
M  V30 8 1 6 9
M  V30 9 1 8 10
M  V30 10 2 9 11
M  V30 11 1 9 12
M  V30 12 1 10 13
M  V30 13 1 11 14
M  V30 14 1 11 15
M  V30 15 2 12 16
M  V30 16 2 13 17
M  V30 17 1 13 18
M  V30 18 2 14 19
M  V30 19 2 14 20
M  V30 20 1 14 21
M  V30 21 2 15 22
M  V30 22 1 17 23
M  V30 23 1 17 24
M  V30 24 2 18 25
M  V30 25 1 21 26
M  V30 26 1 21 27
M  V30 27 1 23 28
M  V30 28 2 24 29
M  V30 29 1 29 30
M  V30 30 1 30 31
M  V30 31 1 30 32
M  V30 32 1 31 33
M  V30 33 1 32 34
M  V30 34 1 33 35
M  V30 35 1 35 36
M  V30 36 1 36 37
M  V30 37 1 36 38
M  V30 38 1 37 39
M  V30 39 1 38 40
M  V30 40 1 39 41
M  V30 41 1 41 42
M  V30 42 1 7 8
M  V30 43 1 16 22
M  V30 44 1 25 29
M  V30 45 1 34 35
M  V30 46 1 40 41
M  V30 END BOND
M  V30 END CTAB
M  END
>  <Compound ID>
67

>  <Name>
TAE684

>  <Uniprot>
O94768

>  <Target>
STK17B

>  <Smiles>
COC1=CC(N2CCC(N3CCN(C)CC3)CC2)=CC=C1NC1=NC=C(Cl)C(NC2=CC=CC=C2S(=O)(=O)C(C)C)=N1

>  <Kd (nM)>
7100

>  <Assay (Kd)>
Kd was assessed by competition binding assays

>  <Ki (nM)>


>  <Assay (Ki)>


>  <IC50 (nM)>


>  <Assay (IC50)>


>  <EC50 (nM)>


>  <Assay (EC50)>


>  <Article DOI>
10.1038/nbt.1990

>  <Molecular Weight>
614.216

>  <Exact Mass>
613.26018682

>  <XLogP3>
5.67

>  <Heavy Atom Count>
42

>  <Ring Count>
5

>  <Hydrogen Bond Acceptor Count>
10

>  <Hydrogen Bond Donor Count>
2

>  <Rotatable Bond Count>
9

>  <Topological Polar Surface Area>
102.93

>  <Molecular Formula>
C30H40ClN7O3S

>  <InChI>
InChI=1S/C30H40ClN7O3S/c1-21(2)42(39,40)28-8-6-5-7-26(28)33-29-24(31)20-32-30(35-29)34-25-10-9-23(19-27(25)41-4)37-13-11-22(12-14-37)38-17-15-36(3)16-18-38/h5-10,19-22H,11-18H2,1-4H3,(H2,32,33,34,35)

>  <InChI Key>
QQWUGDVOUVUTOY-UHFFFAOYSA-N

>  <BindingDB>
50242742

>  <PubChem>
16038120

>  <ChEMBL>
CHEMBL509032

$$$$
Compound 225
Actelion Java MolfileCreator 2.0

  0  0  0  0  0  0              0 V3000
M  V30 BEGIN CTAB
M  V30 COUNTS 42 46 0 0 0
M  V30 BEGIN ATOM
M  V30 1 Cl 0.0 0.0 0.0 0
M  V30 2 C -0.9222 1.1907 0.0 0
M  V30 3 C -0.3618 2.5916 0.0 0
M  V30 4 C -2.4165 1.0039 0.0 0
M  V30 5 N -1.2841 3.7823 0.0 0
M  V30 6 N 1.109 2.8017 0.0 0
M  V30 7 N -3.3387 2.1947 0.0 0
M  V30 8 C -2.7783 3.5955 0.0 0
M  V30 9 C 1.6693 4.2026 0.0 0
M  V30 10 N -3.7006 4.7863 0.0 0
M  V30 11 C 3.1402 4.4127 0.0 0
M  V30 12 C 0.7471 5.3933 0.0 0
M  V30 13 C -5.1949 4.5995 0.0 0
M  V30 14 S 4.0391 3.2453 0.0 0
M  V30 15 C 3.7006 5.8136 0.0 0
M  V30 16 C 1.3074 6.7942 0.0 0
M  V30 17 C -5.7786 3.222 0.0 0
M  V30 18 C -6.1171 5.7902 0.0 0
M  V30 19 O 2.8484 2.3464 0.0 0
M  V30 20 O 5.2065 4.1675 0.0 0
M  V30 21 C 4.938 2.0779 0.0 0
M  V30 22 C 2.7783 7.0043 0.0 0
M  V30 23 O -4.8797 2.0546 0.0 0
M  V30 24 C -7.2728 3.0352 0.0 0
M  V30 25 C -7.6114 5.6034 0.0 0
M  V30 26 C 6.4089 2.288 0.0 0
M  V30 27 C 4.3543 0.7004 0.0 0
M  V30 28 C -5.4634 0.677 0.0 0
M  V30 29 C -8.1951 4.2259 0.0 0
M  V30 30 N -9.6893 4.0391 0.0 0
M  V30 31 C -10.6116 5.2299 0.0 0
M  V30 32 C -10.273 2.6616 0.0 0
M  V30 33 C -12.1058 5.0431 0.0 0
M  V30 34 C -11.7673 2.4748 0.0 0
M  V30 35 C -12.6895 3.6656 0.0 0
M  V30 36 N -14.1838 3.4788 0.0 0
M  V30 37 C -15.106 4.6695 0.0 0
M  V30 38 C -14.7675 2.1013 0.0 0
M  V30 39 C -16.6003 4.4827 0.0 0
M  V30 40 C -16.2618 1.9145 0.0 0
M  V30 41 N -17.184 3.1052 0.0 0
M  V30 42 C -18.6783 2.9184 0.0 0
M  V30 END ATOM
M  V30 BEGIN BOND
M  V30 1 1 1 2
M  V30 2 2 2 3
M  V30 3 1 2 4
M  V30 4 1 3 5
M  V30 5 1 3 6
M  V30 6 2 4 7
M  V30 7 2 5 8
M  V30 8 1 6 9
M  V30 9 1 8 10
M  V30 10 2 9 11
M  V30 11 1 9 12
M  V30 12 1 10 13
M  V30 13 1 11 14
M  V30 14 1 11 15
M  V30 15 2 12 16
M  V30 16 2 13 17
M  V30 17 1 13 18
M  V30 18 2 14 19
M  V30 19 2 14 20
M  V30 20 1 14 21
M  V30 21 2 15 22
M  V30 22 1 17 23
M  V30 23 1 17 24
M  V30 24 2 18 25
M  V30 25 1 21 26
M  V30 26 1 21 27
M  V30 27 1 23 28
M  V30 28 2 24 29
M  V30 29 1 29 30
M  V30 30 1 30 31
M  V30 31 1 30 32
M  V30 32 1 31 33
M  V30 33 1 32 34
M  V30 34 1 33 35
M  V30 35 1 35 36
M  V30 36 1 36 37
M  V30 37 1 36 38
M  V30 38 1 37 39
M  V30 39 1 38 40
M  V30 40 1 39 41
M  V30 41 1 41 42
M  V30 42 1 7 8
M  V30 43 1 16 22
M  V30 44 1 25 29
M  V30 45 1 34 35
M  V30 46 1 40 41
M  V30 END BOND
M  V30 END CTAB
M  END
>  <Compound ID>
67

>  <Name>
TAE684

>  <Uniprot>
Q86UX6

>  <Target>
STK32C

>  <Smiles>
COC1=CC(N2CCC(N3CCN(C)CC3)CC2)=CC=C1NC1=NC=C(Cl)C(NC2=CC=CC=C2S(=O)(=O)C(C)C)=N1

>  <Kd (nM)>
55

>  <Assay (Kd)>
Kd was assessed by competition binding assays

>  <Ki (nM)>


>  <Assay (Ki)>


>  <IC50 (nM)>


>  <Assay (IC50)>


>  <EC50 (nM)>


>  <Assay (EC50)>


>  <Article DOI>
10.1038/nbt.1990

>  <Molecular Weight>
614.216

>  <Exact Mass>
613.26018682

>  <XLogP3>
5.67

>  <Heavy Atom Count>
42

>  <Ring Count>
5

>  <Hydrogen Bond Acceptor Count>
10

>  <Hydrogen Bond Donor Count>
2

>  <Rotatable Bond Count>
9

>  <Topological Polar Surface Area>
102.93

>  <Molecular Formula>
C30H40ClN7O3S

>  <InChI>
InChI=1S/C30H40ClN7O3S/c1-21(2)42(39,40)28-8-6-5-7-26(28)33-29-24(31)20-32-30(35-29)34-25-10-9-23(19-27(25)41-4)37-13-11-22(12-14-37)38-17-15-36(3)16-18-38/h5-10,19-22H,11-18H2,1-4H3,(H2,32,33,34,35)

>  <InChI Key>
QQWUGDVOUVUTOY-UHFFFAOYSA-N

>  <BindingDB>
50242742

>  <PubChem>
16038120

>  <ChEMBL>
CHEMBL509032

$$$$
Compound 226
Actelion Java MolfileCreator 2.0

  0  0  0  0  0  0              0 V3000
M  V30 BEGIN CTAB
M  V30 COUNTS 42 46 0 0 0
M  V30 BEGIN ATOM
M  V30 1 Cl 0.0 0.0 0.0 0
M  V30 2 C -0.9222 1.1907 0.0 0
M  V30 3 C -0.3618 2.5916 0.0 0
M  V30 4 C -2.4165 1.0039 0.0 0
M  V30 5 N -1.2841 3.7823 0.0 0
M  V30 6 N 1.109 2.8017 0.0 0
M  V30 7 N -3.3387 2.1947 0.0 0
M  V30 8 C -2.7783 3.5955 0.0 0
M  V30 9 C 1.6693 4.2026 0.0 0
M  V30 10 N -3.7006 4.7863 0.0 0
M  V30 11 C 3.1402 4.4127 0.0 0
M  V30 12 C 0.7471 5.3933 0.0 0
M  V30 13 C -5.1949 4.5995 0.0 0
M  V30 14 S 4.0391 3.2453 0.0 0
M  V30 15 C 3.7006 5.8136 0.0 0
M  V30 16 C 1.3074 6.7942 0.0 0
M  V30 17 C -5.7786 3.222 0.0 0
M  V30 18 C -6.1171 5.7902 0.0 0
M  V30 19 O 2.8484 2.3464 0.0 0
M  V30 20 O 5.2065 4.1675 0.0 0
M  V30 21 C 4.938 2.0779 0.0 0
M  V30 22 C 2.7783 7.0043 0.0 0
M  V30 23 O -4.8797 2.0546 0.0 0
M  V30 24 C -7.2728 3.0352 0.0 0
M  V30 25 C -7.6114 5.6034 0.0 0
M  V30 26 C 6.4089 2.288 0.0 0
M  V30 27 C 4.3543 0.7004 0.0 0
M  V30 28 C -5.4634 0.677 0.0 0
M  V30 29 C -8.1951 4.2259 0.0 0
M  V30 30 N -9.6893 4.0391 0.0 0
M  V30 31 C -10.6116 5.2299 0.0 0
M  V30 32 C -10.273 2.6616 0.0 0
M  V30 33 C -12.1058 5.0431 0.0 0
M  V30 34 C -11.7673 2.4748 0.0 0
M  V30 35 C -12.6895 3.6656 0.0 0
M  V30 36 N -14.1838 3.4788 0.0 0
M  V30 37 C -15.106 4.6695 0.0 0
M  V30 38 C -14.7675 2.1013 0.0 0
M  V30 39 C -16.6003 4.4827 0.0 0
M  V30 40 C -16.2618 1.9145 0.0 0
M  V30 41 N -17.184 3.1052 0.0 0
M  V30 42 C -18.6783 2.9184 0.0 0
M  V30 END ATOM
M  V30 BEGIN BOND
M  V30 1 1 1 2
M  V30 2 2 2 3
M  V30 3 1 2 4
M  V30 4 1 3 5
M  V30 5 1 3 6
M  V30 6 2 4 7
M  V30 7 2 5 8
M  V30 8 1 6 9
M  V30 9 1 8 10
M  V30 10 2 9 11
M  V30 11 1 9 12
M  V30 12 1 10 13
M  V30 13 1 11 14
M  V30 14 1 11 15
M  V30 15 2 12 16
M  V30 16 2 13 17
M  V30 17 1 13 18
M  V30 18 2 14 19
M  V30 19 2 14 20
M  V30 20 1 14 21
M  V30 21 2 15 22
M  V30 22 1 17 23
M  V30 23 1 17 24
M  V30 24 2 18 25
M  V30 25 1 21 26
M  V30 26 1 21 27
M  V30 27 1 23 28
M  V30 28 2 24 29
M  V30 29 1 29 30
M  V30 30 1 30 31
M  V30 31 1 30 32
M  V30 32 1 31 33
M  V30 33 1 32 34
M  V30 34 1 33 35
M  V30 35 1 35 36
M  V30 36 1 36 37
M  V30 37 1 36 38
M  V30 38 1 37 39
M  V30 39 1 38 40
M  V30 40 1 39 41
M  V30 41 1 41 42
M  V30 42 1 7 8
M  V30 43 1 16 22
M  V30 44 1 25 29
M  V30 45 1 34 35
M  V30 46 1 40 41
M  V30 END BOND
M  V30 END CTAB
M  END
>  <Compound ID>
67

>  <Name>
TAE684

>  <Uniprot>
Q9BYT3

>  <Target>
STK33

>  <Smiles>
COC1=CC(N2CCC(N3CCN(C)CC3)CC2)=CC=C1NC1=NC=C(Cl)C(NC2=CC=CC=C2S(=O)(=O)C(C)C)=N1

>  <Kd (nM)>
3.2

>  <Assay (Kd)>
Kd was assessed by competition binding assays

>  <Ki (nM)>


>  <Assay (Ki)>


>  <IC50 (nM)>


>  <Assay (IC50)>


>  <EC50 (nM)>


>  <Assay (EC50)>


>  <Article DOI>
10.1038/nbt.1990

>  <Molecular Weight>
614.216

>  <Exact Mass>
613.26018682

>  <XLogP3>
5.67

>  <Heavy Atom Count>
42

>  <Ring Count>
5

>  <Hydrogen Bond Acceptor Count>
10

>  <Hydrogen Bond Donor Count>
2

>  <Rotatable Bond Count>
9

>  <Topological Polar Surface Area>
102.93

>  <Molecular Formula>
C30H40ClN7O3S

>  <InChI>
InChI=1S/C30H40ClN7O3S/c1-21(2)42(39,40)28-8-6-5-7-26(28)33-29-24(31)20-32-30(35-29)34-25-10-9-23(19-27(25)41-4)37-13-11-22(12-14-37)38-17-15-36(3)16-18-38/h5-10,19-22H,11-18H2,1-4H3,(H2,32,33,34,35)

>  <InChI Key>
QQWUGDVOUVUTOY-UHFFFAOYSA-N

>  <BindingDB>
50242742

>  <PubChem>
16038120

>  <ChEMBL>
CHEMBL509032

$$$$
Compound 227
Actelion Java MolfileCreator 2.0

  0  0  0  0  0  0              0 V3000
M  V30 BEGIN CTAB
M  V30 COUNTS 42 46 0 0 0
M  V30 BEGIN ATOM
M  V30 1 Cl 0.0 0.0 0.0 0
M  V30 2 C -0.9222 1.1907 0.0 0
M  V30 3 C -0.3618 2.5916 0.0 0
M  V30 4 C -2.4165 1.0039 0.0 0
M  V30 5 N -1.2841 3.7823 0.0 0
M  V30 6 N 1.109 2.8017 0.0 0
M  V30 7 N -3.3387 2.1947 0.0 0
M  V30 8 C -2.7783 3.5955 0.0 0
M  V30 9 C 1.6693 4.2026 0.0 0
M  V30 10 N -3.7006 4.7863 0.0 0
M  V30 11 C 3.1402 4.4127 0.0 0
M  V30 12 C 0.7471 5.3933 0.0 0
M  V30 13 C -5.1949 4.5995 0.0 0
M  V30 14 S 4.0391 3.2453 0.0 0
M  V30 15 C 3.7006 5.8136 0.0 0
M  V30 16 C 1.3074 6.7942 0.0 0
M  V30 17 C -5.7786 3.222 0.0 0
M  V30 18 C -6.1171 5.7902 0.0 0
M  V30 19 O 2.8484 2.3464 0.0 0
M  V30 20 O 5.2065 4.1675 0.0 0
M  V30 21 C 4.938 2.0779 0.0 0
M  V30 22 C 2.7783 7.0043 0.0 0
M  V30 23 O -4.8797 2.0546 0.0 0
M  V30 24 C -7.2728 3.0352 0.0 0
M  V30 25 C -7.6114 5.6034 0.0 0
M  V30 26 C 6.4089 2.288 0.0 0
M  V30 27 C 4.3543 0.7004 0.0 0
M  V30 28 C -5.4634 0.677 0.0 0
M  V30 29 C -8.1951 4.2259 0.0 0
M  V30 30 N -9.6893 4.0391 0.0 0
M  V30 31 C -10.6116 5.2299 0.0 0
M  V30 32 C -10.273 2.6616 0.0 0
M  V30 33 C -12.1058 5.0431 0.0 0
M  V30 34 C -11.7673 2.4748 0.0 0
M  V30 35 C -12.6895 3.6656 0.0 0
M  V30 36 N -14.1838 3.4788 0.0 0
M  V30 37 C -15.106 4.6695 0.0 0
M  V30 38 C -14.7675 2.1013 0.0 0
M  V30 39 C -16.6003 4.4827 0.0 0
M  V30 40 C -16.2618 1.9145 0.0 0
M  V30 41 N -17.184 3.1052 0.0 0
M  V30 42 C -18.6783 2.9184 0.0 0
M  V30 END ATOM
M  V30 BEGIN BOND
M  V30 1 1 1 2
M  V30 2 2 2 3
M  V30 3 1 2 4
M  V30 4 1 3 5
M  V30 5 1 3 6
M  V30 6 2 4 7
M  V30 7 2 5 8
M  V30 8 1 6 9
M  V30 9 1 8 10
M  V30 10 2 9 11
M  V30 11 1 9 12
M  V30 12 1 10 13
M  V30 13 1 11 14
M  V30 14 1 11 15
M  V30 15 2 12 16
M  V30 16 2 13 17
M  V30 17 1 13 18
M  V30 18 2 14 19
M  V30 19 2 14 20
M  V30 20 1 14 21
M  V30 21 2 15 22
M  V30 22 1 17 23
M  V30 23 1 17 24
M  V30 24 2 18 25
M  V30 25 1 21 26
M  V30 26 1 21 27
M  V30 27 1 23 28
M  V30 28 2 24 29
M  V30 29 1 29 30
M  V30 30 1 30 31
M  V30 31 1 30 32
M  V30 32 1 31 33
M  V30 33 1 32 34
M  V30 34 1 33 35
M  V30 35 1 35 36
M  V30 36 1 36 37
M  V30 37 1 36 38
M  V30 38 1 37 39
M  V30 39 1 38 40
M  V30 40 1 39 41
M  V30 41 1 41 42
M  V30 42 1 7 8
M  V30 43 1 16 22
M  V30 44 1 25 29
M  V30 45 1 34 35
M  V30 46 1 40 41
M  V30 END BOND
M  V30 END CTAB
M  END
>  <Compound ID>
67

>  <Name>
TAE684

>  <Uniprot>
Q8TDR2

>  <Target>
STK35

>  <Smiles>
COC1=CC(N2CCC(N3CCN(C)CC3)CC2)=CC=C1NC1=NC=C(Cl)C(NC2=CC=CC=C2S(=O)(=O)C(C)C)=N1

>  <Kd (nM)>
260

>  <Assay (Kd)>
Kd was assessed by competition binding assays

>  <Ki (nM)>


>  <Assay (Ki)>


>  <IC50 (nM)>


>  <Assay (IC50)>


>  <EC50 (nM)>


>  <Assay (EC50)>


>  <Article DOI>
10.1038/nbt.1990

>  <Molecular Weight>
614.216

>  <Exact Mass>
613.26018682

>  <XLogP3>
5.67

>  <Heavy Atom Count>
42

>  <Ring Count>
5

>  <Hydrogen Bond Acceptor Count>
10

>  <Hydrogen Bond Donor Count>
2

>  <Rotatable Bond Count>
9

>  <Topological Polar Surface Area>
102.93

>  <Molecular Formula>
C30H40ClN7O3S

>  <InChI>
InChI=1S/C30H40ClN7O3S/c1-21(2)42(39,40)28-8-6-5-7-26(28)33-29-24(31)20-32-30(35-29)34-25-10-9-23(19-27(25)41-4)37-13-11-22(12-14-37)38-17-15-36(3)16-18-38/h5-10,19-22H,11-18H2,1-4H3,(H2,32,33,34,35)

>  <InChI Key>
QQWUGDVOUVUTOY-UHFFFAOYSA-N

>  <BindingDB>
50242742

>  <PubChem>
16038120

>  <ChEMBL>
CHEMBL509032

$$$$
Compound 228
Actelion Java MolfileCreator 2.0

  0  0  0  0  0  0              0 V3000
M  V30 BEGIN CTAB
M  V30 COUNTS 42 46 0 0 0
M  V30 BEGIN ATOM
M  V30 1 Cl 0.0 0.0 0.0 0
M  V30 2 C -0.9222 1.1907 0.0 0
M  V30 3 C -0.3618 2.5916 0.0 0
M  V30 4 C -2.4165 1.0039 0.0 0
M  V30 5 N -1.2841 3.7823 0.0 0
M  V30 6 N 1.109 2.8017 0.0 0
M  V30 7 N -3.3387 2.1947 0.0 0
M  V30 8 C -2.7783 3.5955 0.0 0
M  V30 9 C 1.6693 4.2026 0.0 0
M  V30 10 N -3.7006 4.7863 0.0 0
M  V30 11 C 3.1402 4.4127 0.0 0
M  V30 12 C 0.7471 5.3933 0.0 0
M  V30 13 C -5.1949 4.5995 0.0 0
M  V30 14 S 4.0391 3.2453 0.0 0
M  V30 15 C 3.7006 5.8136 0.0 0
M  V30 16 C 1.3074 6.7942 0.0 0
M  V30 17 C -5.7786 3.222 0.0 0
M  V30 18 C -6.1171 5.7902 0.0 0
M  V30 19 O 2.8484 2.3464 0.0 0
M  V30 20 O 5.2065 4.1675 0.0 0
M  V30 21 C 4.938 2.0779 0.0 0
M  V30 22 C 2.7783 7.0043 0.0 0
M  V30 23 O -4.8797 2.0546 0.0 0
M  V30 24 C -7.2728 3.0352 0.0 0
M  V30 25 C -7.6114 5.6034 0.0 0
M  V30 26 C 6.4089 2.288 0.0 0
M  V30 27 C 4.3543 0.7004 0.0 0
M  V30 28 C -5.4634 0.677 0.0 0
M  V30 29 C -8.1951 4.2259 0.0 0
M  V30 30 N -9.6893 4.0391 0.0 0
M  V30 31 C -10.6116 5.2299 0.0 0
M  V30 32 C -10.273 2.6616 0.0 0
M  V30 33 C -12.1058 5.0431 0.0 0
M  V30 34 C -11.7673 2.4748 0.0 0
M  V30 35 C -12.6895 3.6656 0.0 0
M  V30 36 N -14.1838 3.4788 0.0 0
M  V30 37 C -15.106 4.6695 0.0 0
M  V30 38 C -14.7675 2.1013 0.0 0
M  V30 39 C -16.6003 4.4827 0.0 0
M  V30 40 C -16.2618 1.9145 0.0 0
M  V30 41 N -17.184 3.1052 0.0 0
M  V30 42 C -18.6783 2.9184 0.0 0
M  V30 END ATOM
M  V30 BEGIN BOND
M  V30 1 1 1 2
M  V30 2 2 2 3
M  V30 3 1 2 4
M  V30 4 1 3 5
M  V30 5 1 3 6
M  V30 6 2 4 7
M  V30 7 2 5 8
M  V30 8 1 6 9
M  V30 9 1 8 10
M  V30 10 2 9 11
M  V30 11 1 9 12
M  V30 12 1 10 13
M  V30 13 1 11 14
M  V30 14 1 11 15
M  V30 15 2 12 16
M  V30 16 2 13 17
M  V30 17 1 13 18
M  V30 18 2 14 19
M  V30 19 2 14 20
M  V30 20 1 14 21
M  V30 21 2 15 22
M  V30 22 1 17 23
M  V30 23 1 17 24
M  V30 24 2 18 25
M  V30 25 1 21 26
M  V30 26 1 21 27
M  V30 27 1 23 28
M  V30 28 2 24 29
M  V30 29 1 29 30
M  V30 30 1 30 31
M  V30 31 1 30 32
M  V30 32 1 31 33
M  V30 33 1 32 34
M  V30 34 1 33 35
M  V30 35 1 35 36
M  V30 36 1 36 37
M  V30 37 1 36 38
M  V30 38 1 37 39
M  V30 39 1 38 40
M  V30 40 1 39 41
M  V30 41 1 41 42
M  V30 42 1 7 8
M  V30 43 1 16 22
M  V30 44 1 25 29
M  V30 45 1 34 35
M  V30 46 1 40 41
M  V30 END BOND
M  V30 END CTAB
M  END
>  <Compound ID>
67

>  <Name>
TAE684

>  <Uniprot>
Q8N2I9

>  <Target>
STK40

>  <Smiles>
COC1=CC(N2CCC(N3CCN(C)CC3)CC2)=CC=C1NC1=NC=C(Cl)C(NC2=CC=CC=C2S(=O)(=O)C(C)C)=N1

>  <Kd (nM)>


>  <Assay (Kd)>


>  <Ki (nM)>


>  <Assay (Ki)>


>  <IC50 (nM)>


>  <Assay (IC50)>


>  <EC50 (nM)>


>  <Assay (EC50)>


>  <Article DOI>
10.1016/j.cell.2020.10.038

>  <Molecular Weight>
614.216

>  <Exact Mass>
613.26018682

>  <XLogP3>
5.67

>  <Heavy Atom Count>
42

>  <Ring Count>
5

>  <Hydrogen Bond Acceptor Count>
10

>  <Hydrogen Bond Donor Count>
2

>  <Rotatable Bond Count>
9

>  <Topological Polar Surface Area>
102.93

>  <Molecular Formula>
C30H40ClN7O3S

>  <InChI>
InChI=1S/C30H40ClN7O3S/c1-21(2)42(39,40)28-8-6-5-7-26(28)33-29-24(31)20-32-30(35-29)34-25-10-9-23(19-27(25)41-4)37-13-11-22(12-14-37)38-17-15-36(3)16-18-38/h5-10,19-22H,11-18H2,1-4H3,(H2,32,33,34,35)

>  <InChI Key>
QQWUGDVOUVUTOY-UHFFFAOYSA-N

>  <BindingDB>
50242742

>  <PubChem>
16038120

>  <ChEMBL>
CHEMBL509032

$$$$
Compound 229
Actelion Java MolfileCreator 2.0

  0  0  0  0  0  0              0 V3000
M  V30 BEGIN CTAB
M  V30 COUNTS 42 46 0 0 0
M  V30 BEGIN ATOM
M  V30 1 Cl 0.0 0.0 0.0 0
M  V30 2 C -0.9222 1.1907 0.0 0
M  V30 3 C -0.3618 2.5916 0.0 0
M  V30 4 C -2.4165 1.0039 0.0 0
M  V30 5 N -1.2841 3.7823 0.0 0
M  V30 6 N 1.109 2.8017 0.0 0
M  V30 7 N -3.3387 2.1947 0.0 0
M  V30 8 C -2.7783 3.5955 0.0 0
M  V30 9 C 1.6693 4.2026 0.0 0
M  V30 10 N -3.7006 4.7863 0.0 0
M  V30 11 C 3.1402 4.4127 0.0 0
M  V30 12 C 0.7471 5.3933 0.0 0
M  V30 13 C -5.1949 4.5995 0.0 0
M  V30 14 S 4.0391 3.2453 0.0 0
M  V30 15 C 3.7006 5.8136 0.0 0
M  V30 16 C 1.3074 6.7942 0.0 0
M  V30 17 C -5.7786 3.222 0.0 0
M  V30 18 C -6.1171 5.7902 0.0 0
M  V30 19 O 2.8484 2.3464 0.0 0
M  V30 20 O 5.2065 4.1675 0.0 0
M  V30 21 C 4.938 2.0779 0.0 0
M  V30 22 C 2.7783 7.0043 0.0 0
M  V30 23 O -4.8797 2.0546 0.0 0
M  V30 24 C -7.2728 3.0352 0.0 0
M  V30 25 C -7.6114 5.6034 0.0 0
M  V30 26 C 6.4089 2.288 0.0 0
M  V30 27 C 4.3543 0.7004 0.0 0
M  V30 28 C -5.4634 0.677 0.0 0
M  V30 29 C -8.1951 4.2259 0.0 0
M  V30 30 N -9.6893 4.0391 0.0 0
M  V30 31 C -10.6116 5.2299 0.0 0
M  V30 32 C -10.273 2.6616 0.0 0
M  V30 33 C -12.1058 5.0431 0.0 0
M  V30 34 C -11.7673 2.4748 0.0 0
M  V30 35 C -12.6895 3.6656 0.0 0
M  V30 36 N -14.1838 3.4788 0.0 0
M  V30 37 C -15.106 4.6695 0.0 0
M  V30 38 C -14.7675 2.1013 0.0 0
M  V30 39 C -16.6003 4.4827 0.0 0
M  V30 40 C -16.2618 1.9145 0.0 0
M  V30 41 N -17.184 3.1052 0.0 0
M  V30 42 C -18.6783 2.9184 0.0 0
M  V30 END ATOM
M  V30 BEGIN BOND
M  V30 1 1 1 2
M  V30 2 2 2 3
M  V30 3 1 2 4
M  V30 4 1 3 5
M  V30 5 1 3 6
M  V30 6 2 4 7
M  V30 7 2 5 8
M  V30 8 1 6 9
M  V30 9 1 8 10
M  V30 10 2 9 11
M  V30 11 1 9 12
M  V30 12 1 10 13
M  V30 13 1 11 14
M  V30 14 1 11 15
M  V30 15 2 12 16
M  V30 16 2 13 17
M  V30 17 1 13 18
M  V30 18 2 14 19
M  V30 19 2 14 20
M  V30 20 1 14 21
M  V30 21 2 15 22
M  V30 22 1 17 23
M  V30 23 1 17 24
M  V30 24 2 18 25
M  V30 25 1 21 26
M  V30 26 1 21 27
M  V30 27 1 23 28
M  V30 28 2 24 29
M  V30 29 1 29 30
M  V30 30 1 30 31
M  V30 31 1 30 32
M  V30 32 1 31 33
M  V30 33 1 32 34
M  V30 34 1 33 35
M  V30 35 1 35 36
M  V30 36 1 36 37
M  V30 37 1 36 38
M  V30 38 1 37 39
M  V30 39 1 38 40
M  V30 40 1 39 41
M  V30 41 1 41 42
M  V30 42 1 7 8
M  V30 43 1 16 22
M  V30 44 1 25 29
M  V30 45 1 34 35
M  V30 46 1 40 41
M  V30 END BOND
M  V30 END CTAB
M  END
>  <Compound ID>
67

>  <Name>
TAE684

>  <Uniprot>
P42680

>  <Target>
TEC

>  <Smiles>
COC1=CC(N2CCC(N3CCN(C)CC3)CC2)=CC=C1NC1=NC=C(Cl)C(NC2=CC=CC=C2S(=O)(=O)C(C)C)=N1

>  <Kd (nM)>
180

>  <Assay (Kd)>
Kd was assessed by competition binding assays

>  <Ki (nM)>


>  <Assay (Ki)>


>  <IC50 (nM)>


>  <Assay (IC50)>


>  <EC50 (nM)>


>  <Assay (EC50)>


>  <Article DOI>
10.1038/nbt.1990

>  <Molecular Weight>
614.216

>  <Exact Mass>
613.26018682

>  <XLogP3>
5.67

>  <Heavy Atom Count>
42

>  <Ring Count>
5

>  <Hydrogen Bond Acceptor Count>
10

>  <Hydrogen Bond Donor Count>
2

>  <Rotatable Bond Count>
9

>  <Topological Polar Surface Area>
102.93

>  <Molecular Formula>
C30H40ClN7O3S

>  <InChI>
InChI=1S/C30H40ClN7O3S/c1-21(2)42(39,40)28-8-6-5-7-26(28)33-29-24(31)20-32-30(35-29)34-25-10-9-23(19-27(25)41-4)37-13-11-22(12-14-37)38-17-15-36(3)16-18-38/h5-10,19-22H,11-18H2,1-4H3,(H2,32,33,34,35)

>  <InChI Key>
QQWUGDVOUVUTOY-UHFFFAOYSA-N

>  <BindingDB>
50242742

>  <PubChem>
16038120

>  <ChEMBL>
CHEMBL509032

$$$$
Compound 230
Actelion Java MolfileCreator 2.0

  0  0  0  0  0  0              0 V3000
M  V30 BEGIN CTAB
M  V30 COUNTS 42 46 0 0 0
M  V30 BEGIN ATOM
M  V30 1 Cl 0.0 0.0 0.0 0
M  V30 2 C -0.9222 1.1907 0.0 0
M  V30 3 C -0.3618 2.5916 0.0 0
M  V30 4 C -2.4165 1.0039 0.0 0
M  V30 5 N -1.2841 3.7823 0.0 0
M  V30 6 N 1.109 2.8017 0.0 0
M  V30 7 N -3.3387 2.1947 0.0 0
M  V30 8 C -2.7783 3.5955 0.0 0
M  V30 9 C 1.6693 4.2026 0.0 0
M  V30 10 N -3.7006 4.7863 0.0 0
M  V30 11 C 3.1402 4.4127 0.0 0
M  V30 12 C 0.7471 5.3933 0.0 0
M  V30 13 C -5.1949 4.5995 0.0 0
M  V30 14 S 4.0391 3.2453 0.0 0
M  V30 15 C 3.7006 5.8136 0.0 0
M  V30 16 C 1.3074 6.7942 0.0 0
M  V30 17 C -5.7786 3.222 0.0 0
M  V30 18 C -6.1171 5.7902 0.0 0
M  V30 19 O 2.8484 2.3464 0.0 0
M  V30 20 O 5.2065 4.1675 0.0 0
M  V30 21 C 4.938 2.0779 0.0 0
M  V30 22 C 2.7783 7.0043 0.0 0
M  V30 23 O -4.8797 2.0546 0.0 0
M  V30 24 C -7.2728 3.0352 0.0 0
M  V30 25 C -7.6114 5.6034 0.0 0
M  V30 26 C 6.4089 2.288 0.0 0
M  V30 27 C 4.3543 0.7004 0.0 0
M  V30 28 C -5.4634 0.677 0.0 0
M  V30 29 C -8.1951 4.2259 0.0 0
M  V30 30 N -9.6893 4.0391 0.0 0
M  V30 31 C -10.6116 5.2299 0.0 0
M  V30 32 C -10.273 2.6616 0.0 0
M  V30 33 C -12.1058 5.0431 0.0 0
M  V30 34 C -11.7673 2.4748 0.0 0
M  V30 35 C -12.6895 3.6656 0.0 0
M  V30 36 N -14.1838 3.4788 0.0 0
M  V30 37 C -15.106 4.6695 0.0 0
M  V30 38 C -14.7675 2.1013 0.0 0
M  V30 39 C -16.6003 4.4827 0.0 0
M  V30 40 C -16.2618 1.9145 0.0 0
M  V30 41 N -17.184 3.1052 0.0 0
M  V30 42 C -18.6783 2.9184 0.0 0
M  V30 END ATOM
M  V30 BEGIN BOND
M  V30 1 1 1 2
M  V30 2 2 2 3
M  V30 3 1 2 4
M  V30 4 1 3 5
M  V30 5 1 3 6
M  V30 6 2 4 7
M  V30 7 2 5 8
M  V30 8 1 6 9
M  V30 9 1 8 10
M  V30 10 2 9 11
M  V30 11 1 9 12
M  V30 12 1 10 13
M  V30 13 1 11 14
M  V30 14 1 11 15
M  V30 15 2 12 16
M  V30 16 2 13 17
M  V30 17 1 13 18
M  V30 18 2 14 19
M  V30 19 2 14 20
M  V30 20 1 14 21
M  V30 21 2 15 22
M  V30 22 1 17 23
M  V30 23 1 17 24
M  V30 24 2 18 25
M  V30 25 1 21 26
M  V30 26 1 21 27
M  V30 27 1 23 28
M  V30 28 2 24 29
M  V30 29 1 29 30
M  V30 30 1 30 31
M  V30 31 1 30 32
M  V30 32 1 31 33
M  V30 33 1 32 34
M  V30 34 1 33 35
M  V30 35 1 35 36
M  V30 36 1 36 37
M  V30 37 1 36 38
M  V30 38 1 37 39
M  V30 39 1 38 40
M  V30 40 1 39 41
M  V30 41 1 41 42
M  V30 42 1 7 8
M  V30 43 1 16 22
M  V30 44 1 25 29
M  V30 45 1 34 35
M  V30 46 1 40 41
M  V30 END BOND
M  V30 END CTAB
M  END
>  <Compound ID>
67

>  <Name>
TAE684

>  <Uniprot>
P36897

>  <Target>
TGFBR1

>  <Smiles>
COC1=CC(N2CCC(N3CCN(C)CC3)CC2)=CC=C1NC1=NC=C(Cl)C(NC2=CC=CC=C2S(=O)(=O)C(C)C)=N1

>  <Kd (nM)>
190

>  <Assay (Kd)>
Kd was assessed by competition binding assays

>  <Ki (nM)>


>  <Assay (Ki)>


>  <IC50 (nM)>


>  <Assay (IC50)>


>  <EC50 (nM)>


>  <Assay (EC50)>


>  <Article DOI>
10.1038/nbt.1990

>  <Molecular Weight>
614.216

>  <Exact Mass>
613.26018682

>  <XLogP3>
5.67

>  <Heavy Atom Count>
42

>  <Ring Count>
5

>  <Hydrogen Bond Acceptor Count>
10

>  <Hydrogen Bond Donor Count>
2

>  <Rotatable Bond Count>
9

>  <Topological Polar Surface Area>
102.93

>  <Molecular Formula>
C30H40ClN7O3S

>  <InChI>
InChI=1S/C30H40ClN7O3S/c1-21(2)42(39,40)28-8-6-5-7-26(28)33-29-24(31)20-32-30(35-29)34-25-10-9-23(19-27(25)41-4)37-13-11-22(12-14-37)38-17-15-36(3)16-18-38/h5-10,19-22H,11-18H2,1-4H3,(H2,32,33,34,35)

>  <InChI Key>
QQWUGDVOUVUTOY-UHFFFAOYSA-N

>  <BindingDB>
50242742

>  <PubChem>
16038120

>  <ChEMBL>
CHEMBL509032

$$$$
Compound 231
Actelion Java MolfileCreator 2.0

  0  0  0  0  0  0              0 V3000
M  V30 BEGIN CTAB
M  V30 COUNTS 42 46 0 0 0
M  V30 BEGIN ATOM
M  V30 1 Cl 0.0 0.0 0.0 0
M  V30 2 C -0.9222 1.1907 0.0 0
M  V30 3 C -0.3618 2.5916 0.0 0
M  V30 4 C -2.4165 1.0039 0.0 0
M  V30 5 N -1.2841 3.7823 0.0 0
M  V30 6 N 1.109 2.8017 0.0 0
M  V30 7 N -3.3387 2.1947 0.0 0
M  V30 8 C -2.7783 3.5955 0.0 0
M  V30 9 C 1.6693 4.2026 0.0 0
M  V30 10 N -3.7006 4.7863 0.0 0
M  V30 11 C 3.1402 4.4127 0.0 0
M  V30 12 C 0.7471 5.3933 0.0 0
M  V30 13 C -5.1949 4.5995 0.0 0
M  V30 14 S 4.0391 3.2453 0.0 0
M  V30 15 C 3.7006 5.8136 0.0 0
M  V30 16 C 1.3074 6.7942 0.0 0
M  V30 17 C -5.7786 3.222 0.0 0
M  V30 18 C -6.1171 5.7902 0.0 0
M  V30 19 O 2.8484 2.3464 0.0 0
M  V30 20 O 5.2065 4.1675 0.0 0
M  V30 21 C 4.938 2.0779 0.0 0
M  V30 22 C 2.7783 7.0043 0.0 0
M  V30 23 O -4.8797 2.0546 0.0 0
M  V30 24 C -7.2728 3.0352 0.0 0
M  V30 25 C -7.6114 5.6034 0.0 0
M  V30 26 C 6.4089 2.288 0.0 0
M  V30 27 C 4.3543 0.7004 0.0 0
M  V30 28 C -5.4634 0.677 0.0 0
M  V30 29 C -8.1951 4.2259 0.0 0
M  V30 30 N -9.6893 4.0391 0.0 0
M  V30 31 C -10.6116 5.2299 0.0 0
M  V30 32 C -10.273 2.6616 0.0 0
M  V30 33 C -12.1058 5.0431 0.0 0
M  V30 34 C -11.7673 2.4748 0.0 0
M  V30 35 C -12.6895 3.6656 0.0 0
M  V30 36 N -14.1838 3.4788 0.0 0
M  V30 37 C -15.106 4.6695 0.0 0
M  V30 38 C -14.7675 2.1013 0.0 0
M  V30 39 C -16.6003 4.4827 0.0 0
M  V30 40 C -16.2618 1.9145 0.0 0
M  V30 41 N -17.184 3.1052 0.0 0
M  V30 42 C -18.6783 2.9184 0.0 0
M  V30 END ATOM
M  V30 BEGIN BOND
M  V30 1 1 1 2
M  V30 2 2 2 3
M  V30 3 1 2 4
M  V30 4 1 3 5
M  V30 5 1 3 6
M  V30 6 2 4 7
M  V30 7 2 5 8
M  V30 8 1 6 9
M  V30 9 1 8 10
M  V30 10 2 9 11
M  V30 11 1 9 12
M  V30 12 1 10 13
M  V30 13 1 11 14
M  V30 14 1 11 15
M  V30 15 2 12 16
M  V30 16 2 13 17
M  V30 17 1 13 18
M  V30 18 2 14 19
M  V30 19 2 14 20
M  V30 20 1 14 21
M  V30 21 2 15 22
M  V30 22 1 17 23
M  V30 23 1 17 24
M  V30 24 2 18 25
M  V30 25 1 21 26
M  V30 26 1 21 27
M  V30 27 1 23 28
M  V30 28 2 24 29
M  V30 29 1 29 30
M  V30 30 1 30 31
M  V30 31 1 30 32
M  V30 32 1 31 33
M  V30 33 1 32 34
M  V30 34 1 33 35
M  V30 35 1 35 36
M  V30 36 1 36 37
M  V30 37 1 36 38
M  V30 38 1 37 39
M  V30 39 1 38 40
M  V30 40 1 39 41
M  V30 41 1 41 42
M  V30 42 1 7 8
M  V30 43 1 16 22
M  V30 44 1 25 29
M  V30 45 1 34 35
M  V30 46 1 40 41
M  V30 END BOND
M  V30 END CTAB
M  END
>  <Compound ID>
67

>  <Name>
TAE684

>  <Uniprot>
Q13470

>  <Target>
TNK1

>  <Smiles>
COC1=CC(N2CCC(N3CCN(C)CC3)CC2)=CC=C1NC1=NC=C(Cl)C(NC2=CC=CC=C2S(=O)(=O)C(C)C)=N1

>  <Kd (nM)>
1.8

>  <Assay (Kd)>
Kd was assessed by competition binding assays

>  <Ki (nM)>


>  <Assay (Ki)>


>  <IC50 (nM)>


>  <Assay (IC50)>


>  <EC50 (nM)>


>  <Assay (EC50)>


>  <Article DOI>
10.1038/nbt.1990

>  <Molecular Weight>
614.216

>  <Exact Mass>
613.26018682

>  <XLogP3>
5.67

>  <Heavy Atom Count>
42

>  <Ring Count>
5

>  <Hydrogen Bond Acceptor Count>
10

>  <Hydrogen Bond Donor Count>
2

>  <Rotatable Bond Count>
9

>  <Topological Polar Surface Area>
102.93

>  <Molecular Formula>
C30H40ClN7O3S

>  <InChI>
InChI=1S/C30H40ClN7O3S/c1-21(2)42(39,40)28-8-6-5-7-26(28)33-29-24(31)20-32-30(35-29)34-25-10-9-23(19-27(25)41-4)37-13-11-22(12-14-37)38-17-15-36(3)16-18-38/h5-10,19-22H,11-18H2,1-4H3,(H2,32,33,34,35)

>  <InChI Key>
QQWUGDVOUVUTOY-UHFFFAOYSA-N

>  <BindingDB>
50242742

>  <PubChem>
16038120

>  <ChEMBL>
CHEMBL509032

$$$$
Compound 232
Actelion Java MolfileCreator 2.0

  0  0  0  0  0  0              0 V3000
M  V30 BEGIN CTAB
M  V30 COUNTS 42 46 0 0 0
M  V30 BEGIN ATOM
M  V30 1 Cl 0.0 0.0 0.0 0
M  V30 2 C -0.9222 1.1907 0.0 0
M  V30 3 C -0.3618 2.5916 0.0 0
M  V30 4 C -2.4165 1.0039 0.0 0
M  V30 5 N -1.2841 3.7823 0.0 0
M  V30 6 N 1.109 2.8017 0.0 0
M  V30 7 N -3.3387 2.1947 0.0 0
M  V30 8 C -2.7783 3.5955 0.0 0
M  V30 9 C 1.6693 4.2026 0.0 0
M  V30 10 N -3.7006 4.7863 0.0 0
M  V30 11 C 3.1402 4.4127 0.0 0
M  V30 12 C 0.7471 5.3933 0.0 0
M  V30 13 C -5.1949 4.5995 0.0 0
M  V30 14 S 4.0391 3.2453 0.0 0
M  V30 15 C 3.7006 5.8136 0.0 0
M  V30 16 C 1.3074 6.7942 0.0 0
M  V30 17 C -5.7786 3.222 0.0 0
M  V30 18 C -6.1171 5.7902 0.0 0
M  V30 19 O 2.8484 2.3464 0.0 0
M  V30 20 O 5.2065 4.1675 0.0 0
M  V30 21 C 4.938 2.0779 0.0 0
M  V30 22 C 2.7783 7.0043 0.0 0
M  V30 23 O -4.8797 2.0546 0.0 0
M  V30 24 C -7.2728 3.0352 0.0 0
M  V30 25 C -7.6114 5.6034 0.0 0
M  V30 26 C 6.4089 2.288 0.0 0
M  V30 27 C 4.3543 0.7004 0.0 0
M  V30 28 C -5.4634 0.677 0.0 0
M  V30 29 C -8.1951 4.2259 0.0 0
M  V30 30 N -9.6893 4.0391 0.0 0
M  V30 31 C -10.6116 5.2299 0.0 0
M  V30 32 C -10.273 2.6616 0.0 0
M  V30 33 C -12.1058 5.0431 0.0 0
M  V30 34 C -11.7673 2.4748 0.0 0
M  V30 35 C -12.6895 3.6656 0.0 0
M  V30 36 N -14.1838 3.4788 0.0 0
M  V30 37 C -15.106 4.6695 0.0 0
M  V30 38 C -14.7675 2.1013 0.0 0
M  V30 39 C -16.6003 4.4827 0.0 0
M  V30 40 C -16.2618 1.9145 0.0 0
M  V30 41 N -17.184 3.1052 0.0 0
M  V30 42 C -18.6783 2.9184 0.0 0
M  V30 END ATOM
M  V30 BEGIN BOND
M  V30 1 1 1 2
M  V30 2 2 2 3
M  V30 3 1 2 4
M  V30 4 1 3 5
M  V30 5 1 3 6
M  V30 6 2 4 7
M  V30 7 2 5 8
M  V30 8 1 6 9
M  V30 9 1 8 10
M  V30 10 2 9 11
M  V30 11 1 9 12
M  V30 12 1 10 13
M  V30 13 1 11 14
M  V30 14 1 11 15
M  V30 15 2 12 16
M  V30 16 2 13 17
M  V30 17 1 13 18
M  V30 18 2 14 19
M  V30 19 2 14 20
M  V30 20 1 14 21
M  V30 21 2 15 22
M  V30 22 1 17 23
M  V30 23 1 17 24
M  V30 24 2 18 25
M  V30 25 1 21 26
M  V30 26 1 21 27
M  V30 27 1 23 28
M  V30 28 2 24 29
M  V30 29 1 29 30
M  V30 30 1 30 31
M  V30 31 1 30 32
M  V30 32 1 31 33
M  V30 33 1 32 34
M  V30 34 1 33 35
M  V30 35 1 35 36
M  V30 36 1 36 37
M  V30 37 1 36 38
M  V30 38 1 37 39
M  V30 39 1 38 40
M  V30 40 1 39 41
M  V30 41 1 41 42
M  V30 42 1 7 8
M  V30 43 1 16 22
M  V30 44 1 25 29
M  V30 45 1 34 35
M  V30 46 1 40 41
M  V30 END BOND
M  V30 END CTAB
M  END
>  <Compound ID>
67

>  <Name>
TAE684

>  <Uniprot>
Q07912

>  <Target>
TNK2

>  <Smiles>
COC1=CC(N2CCC(N3CCN(C)CC3)CC2)=CC=C1NC1=NC=C(Cl)C(NC2=CC=CC=C2S(=O)(=O)C(C)C)=N1

>  <Kd (nM)>
2

>  <Assay (Kd)>
Kd was assessed by competition binding assays

>  <Ki (nM)>


>  <Assay (Ki)>


>  <IC50 (nM)>


>  <Assay (IC50)>


>  <EC50 (nM)>


>  <Assay (EC50)>


>  <Article DOI>
10.1038/nbt.1990

>  <Molecular Weight>
614.216

>  <Exact Mass>
613.26018682

>  <XLogP3>
5.67

>  <Heavy Atom Count>
42

>  <Ring Count>
5

>  <Hydrogen Bond Acceptor Count>
10

>  <Hydrogen Bond Donor Count>
2

>  <Rotatable Bond Count>
9

>  <Topological Polar Surface Area>
102.93

>  <Molecular Formula>
C30H40ClN7O3S

>  <InChI>
InChI=1S/C30H40ClN7O3S/c1-21(2)42(39,40)28-8-6-5-7-26(28)33-29-24(31)20-32-30(35-29)34-25-10-9-23(19-27(25)41-4)37-13-11-22(12-14-37)38-17-15-36(3)16-18-38/h5-10,19-22H,11-18H2,1-4H3,(H2,32,33,34,35)

>  <InChI Key>
QQWUGDVOUVUTOY-UHFFFAOYSA-N

>  <BindingDB>
50242742

>  <PubChem>
16038120

>  <ChEMBL>
CHEMBL509032

$$$$
Compound 233
Actelion Java MolfileCreator 2.0

  0  0  0  0  0  0              0 V3000
M  V30 BEGIN CTAB
M  V30 COUNTS 42 46 0 0 0
M  V30 BEGIN ATOM
M  V30 1 Cl 0.0 0.0 0.0 0
M  V30 2 C -0.9222 1.1907 0.0 0
M  V30 3 C -0.3618 2.5916 0.0 0
M  V30 4 C -2.4165 1.0039 0.0 0
M  V30 5 N -1.2841 3.7823 0.0 0
M  V30 6 N 1.109 2.8017 0.0 0
M  V30 7 N -3.3387 2.1947 0.0 0
M  V30 8 C -2.7783 3.5955 0.0 0
M  V30 9 C 1.6693 4.2026 0.0 0
M  V30 10 N -3.7006 4.7863 0.0 0
M  V30 11 C 3.1402 4.4127 0.0 0
M  V30 12 C 0.7471 5.3933 0.0 0
M  V30 13 C -5.1949 4.5995 0.0 0
M  V30 14 S 4.0391 3.2453 0.0 0
M  V30 15 C 3.7006 5.8136 0.0 0
M  V30 16 C 1.3074 6.7942 0.0 0
M  V30 17 C -5.7786 3.222 0.0 0
M  V30 18 C -6.1171 5.7902 0.0 0
M  V30 19 O 2.8484 2.3464 0.0 0
M  V30 20 O 5.2065 4.1675 0.0 0
M  V30 21 C 4.938 2.0779 0.0 0
M  V30 22 C 2.7783 7.0043 0.0 0
M  V30 23 O -4.8797 2.0546 0.0 0
M  V30 24 C -7.2728 3.0352 0.0 0
M  V30 25 C -7.6114 5.6034 0.0 0
M  V30 26 C 6.4089 2.288 0.0 0
M  V30 27 C 4.3543 0.7004 0.0 0
M  V30 28 C -5.4634 0.677 0.0 0
M  V30 29 C -8.1951 4.2259 0.0 0
M  V30 30 N -9.6893 4.0391 0.0 0
M  V30 31 C -10.6116 5.2299 0.0 0
M  V30 32 C -10.273 2.6616 0.0 0
M  V30 33 C -12.1058 5.0431 0.0 0
M  V30 34 C -11.7673 2.4748 0.0 0
M  V30 35 C -12.6895 3.6656 0.0 0
M  V30 36 N -14.1838 3.4788 0.0 0
M  V30 37 C -15.106 4.6695 0.0 0
M  V30 38 C -14.7675 2.1013 0.0 0
M  V30 39 C -16.6003 4.4827 0.0 0
M  V30 40 C -16.2618 1.9145 0.0 0
M  V30 41 N -17.184 3.1052 0.0 0
M  V30 42 C -18.6783 2.9184 0.0 0
M  V30 END ATOM
M  V30 BEGIN BOND
M  V30 1 1 1 2
M  V30 2 2 2 3
M  V30 3 1 2 4
M  V30 4 1 3 5
M  V30 5 1 3 6
M  V30 6 2 4 7
M  V30 7 2 5 8
M  V30 8 1 6 9
M  V30 9 1 8 10
M  V30 10 2 9 11
M  V30 11 1 9 12
M  V30 12 1 10 13
M  V30 13 1 11 14
M  V30 14 1 11 15
M  V30 15 2 12 16
M  V30 16 2 13 17
M  V30 17 1 13 18
M  V30 18 2 14 19
M  V30 19 2 14 20
M  V30 20 1 14 21
M  V30 21 2 15 22
M  V30 22 1 17 23
M  V30 23 1 17 24
M  V30 24 2 18 25
M  V30 25 1 21 26
M  V30 26 1 21 27
M  V30 27 1 23 28
M  V30 28 2 24 29
M  V30 29 1 29 30
M  V30 30 1 30 31
M  V30 31 1 30 32
M  V30 32 1 31 33
M  V30 33 1 32 34
M  V30 34 1 33 35
M  V30 35 1 35 36
M  V30 36 1 36 37
M  V30 37 1 36 38
M  V30 38 1 37 39
M  V30 39 1 38 40
M  V30 40 1 39 41
M  V30 41 1 41 42
M  V30 42 1 7 8
M  V30 43 1 16 22
M  V30 44 1 25 29
M  V30 45 1 34 35
M  V30 46 1 40 41
M  V30 END BOND
M  V30 END CTAB
M  END
>  <Compound ID>
67

>  <Name>
TAE684

>  <Uniprot>
Q96RU7

>  <Target>
TRIB3

>  <Smiles>
COC1=CC(N2CCC(N3CCN(C)CC3)CC2)=CC=C1NC1=NC=C(Cl)C(NC2=CC=CC=C2S(=O)(=O)C(C)C)=N1

>  <Kd (nM)>


>  <Assay (Kd)>


>  <Ki (nM)>


>  <Assay (Ki)>


>  <IC50 (nM)>


>  <Assay (IC50)>


>  <EC50 (nM)>


>  <Assay (EC50)>


>  <Article DOI>
10.1016/j.cell.2020.10.038

>  <Molecular Weight>
614.216

>  <Exact Mass>
613.26018682

>  <XLogP3>
5.67

>  <Heavy Atom Count>
42

>  <Ring Count>
5

>  <Hydrogen Bond Acceptor Count>
10

>  <Hydrogen Bond Donor Count>
2

>  <Rotatable Bond Count>
9

>  <Topological Polar Surface Area>
102.93

>  <Molecular Formula>
C30H40ClN7O3S

>  <InChI>
InChI=1S/C30H40ClN7O3S/c1-21(2)42(39,40)28-8-6-5-7-26(28)33-29-24(31)20-32-30(35-29)34-25-10-9-23(19-27(25)41-4)37-13-11-22(12-14-37)38-17-15-36(3)16-18-38/h5-10,19-22H,11-18H2,1-4H3,(H2,32,33,34,35)

>  <InChI Key>
QQWUGDVOUVUTOY-UHFFFAOYSA-N

>  <BindingDB>
50242742

>  <PubChem>
16038120

>  <ChEMBL>
CHEMBL509032

$$$$
Compound 234
Actelion Java MolfileCreator 2.0

  0  0  0  0  0  0              0 V3000
M  V30 BEGIN CTAB
M  V30 COUNTS 42 46 0 0 0
M  V30 BEGIN ATOM
M  V30 1 Cl 0.0 0.0 0.0 0
M  V30 2 C -0.9222 1.1907 0.0 0
M  V30 3 C -0.3618 2.5916 0.0 0
M  V30 4 C -2.4165 1.0039 0.0 0
M  V30 5 N -1.2841 3.7823 0.0 0
M  V30 6 N 1.109 2.8017 0.0 0
M  V30 7 N -3.3387 2.1947 0.0 0
M  V30 8 C -2.7783 3.5955 0.0 0
M  V30 9 C 1.6693 4.2026 0.0 0
M  V30 10 N -3.7006 4.7863 0.0 0
M  V30 11 C 3.1402 4.4127 0.0 0
M  V30 12 C 0.7471 5.3933 0.0 0
M  V30 13 C -5.1949 4.5995 0.0 0
M  V30 14 S 4.0391 3.2453 0.0 0
M  V30 15 C 3.7006 5.8136 0.0 0
M  V30 16 C 1.3074 6.7942 0.0 0
M  V30 17 C -5.7786 3.222 0.0 0
M  V30 18 C -6.1171 5.7902 0.0 0
M  V30 19 O 2.8484 2.3464 0.0 0
M  V30 20 O 5.2065 4.1675 0.0 0
M  V30 21 C 4.938 2.0779 0.0 0
M  V30 22 C 2.7783 7.0043 0.0 0
M  V30 23 O -4.8797 2.0546 0.0 0
M  V30 24 C -7.2728 3.0352 0.0 0
M  V30 25 C -7.6114 5.6034 0.0 0
M  V30 26 C 6.4089 2.288 0.0 0
M  V30 27 C 4.3543 0.7004 0.0 0
M  V30 28 C -5.4634 0.677 0.0 0
M  V30 29 C -8.1951 4.2259 0.0 0
M  V30 30 N -9.6893 4.0391 0.0 0
M  V30 31 C -10.6116 5.2299 0.0 0
M  V30 32 C -10.273 2.6616 0.0 0
M  V30 33 C -12.1058 5.0431 0.0 0
M  V30 34 C -11.7673 2.4748 0.0 0
M  V30 35 C -12.6895 3.6656 0.0 0
M  V30 36 N -14.1838 3.4788 0.0 0
M  V30 37 C -15.106 4.6695 0.0 0
M  V30 38 C -14.7675 2.1013 0.0 0
M  V30 39 C -16.6003 4.4827 0.0 0
M  V30 40 C -16.2618 1.9145 0.0 0
M  V30 41 N -17.184 3.1052 0.0 0
M  V30 42 C -18.6783 2.9184 0.0 0
M  V30 END ATOM
M  V30 BEGIN BOND
M  V30 1 1 1 2
M  V30 2 2 2 3
M  V30 3 1 2 4
M  V30 4 1 3 5
M  V30 5 1 3 6
M  V30 6 2 4 7
M  V30 7 2 5 8
M  V30 8 1 6 9
M  V30 9 1 8 10
M  V30 10 2 9 11
M  V30 11 1 9 12
M  V30 12 1 10 13
M  V30 13 1 11 14
M  V30 14 1 11 15
M  V30 15 2 12 16
M  V30 16 2 13 17
M  V30 17 1 13 18
M  V30 18 2 14 19
M  V30 19 2 14 20
M  V30 20 1 14 21
M  V30 21 2 15 22
M  V30 22 1 17 23
M  V30 23 1 17 24
M  V30 24 2 18 25
M  V30 25 1 21 26
M  V30 26 1 21 27
M  V30 27 1 23 28
M  V30 28 2 24 29
M  V30 29 1 29 30
M  V30 30 1 30 31
M  V30 31 1 30 32
M  V30 32 1 31 33
M  V30 33 1 32 34
M  V30 34 1 33 35
M  V30 35 1 35 36
M  V30 36 1 36 37
M  V30 37 1 36 38
M  V30 38 1 37 39
M  V30 39 1 38 40
M  V30 40 1 39 41
M  V30 41 1 41 42
M  V30 42 1 7 8
M  V30 43 1 16 22
M  V30 44 1 25 29
M  V30 45 1 34 35
M  V30 46 1 40 41
M  V30 END BOND
M  V30 END CTAB
M  END
>  <Compound ID>
67

>  <Name>
TAE684

>  <Uniprot>
Q96QT4

>  <Target>
TRPM7

>  <Smiles>
COC1=CC(N2CCC(N3CCN(C)CC3)CC2)=CC=C1NC1=NC=C(Cl)C(NC2=CC=CC=C2S(=O)(=O)C(C)C)=N1

>  <Kd (nM)>


>  <Assay (Kd)>


>  <Ki (nM)>


>  <Assay (Ki)>


>  <IC50 (nM)>


>  <Assay (IC50)>


>  <EC50 (nM)>


>  <Assay (EC50)>


>  <Article DOI>
10.1016/j.cell.2020.10.038

>  <Molecular Weight>
614.216

>  <Exact Mass>
613.26018682

>  <XLogP3>
5.67

>  <Heavy Atom Count>
42

>  <Ring Count>
5

>  <Hydrogen Bond Acceptor Count>
10

>  <Hydrogen Bond Donor Count>
2

>  <Rotatable Bond Count>
9

>  <Topological Polar Surface Area>
102.93

>  <Molecular Formula>
C30H40ClN7O3S

>  <InChI>
InChI=1S/C30H40ClN7O3S/c1-21(2)42(39,40)28-8-6-5-7-26(28)33-29-24(31)20-32-30(35-29)34-25-10-9-23(19-27(25)41-4)37-13-11-22(12-14-37)38-17-15-36(3)16-18-38/h5-10,19-22H,11-18H2,1-4H3,(H2,32,33,34,35)

>  <InChI Key>
QQWUGDVOUVUTOY-UHFFFAOYSA-N

>  <BindingDB>
50242742

>  <PubChem>
16038120

>  <ChEMBL>
CHEMBL509032

$$$$
Compound 235
Actelion Java MolfileCreator 2.0

  0  0  0  0  0  0              0 V3000
M  V30 BEGIN CTAB
M  V30 COUNTS 42 46 0 0 0
M  V30 BEGIN ATOM
M  V30 1 Cl 0.0 0.0 0.0 0
M  V30 2 C -0.9222 1.1907 0.0 0
M  V30 3 C -0.3618 2.5916 0.0 0
M  V30 4 C -2.4165 1.0039 0.0 0
M  V30 5 N -1.2841 3.7823 0.0 0
M  V30 6 N 1.109 2.8017 0.0 0
M  V30 7 N -3.3387 2.1947 0.0 0
M  V30 8 C -2.7783 3.5955 0.0 0
M  V30 9 C 1.6693 4.2026 0.0 0
M  V30 10 N -3.7006 4.7863 0.0 0
M  V30 11 C 3.1402 4.4127 0.0 0
M  V30 12 C 0.7471 5.3933 0.0 0
M  V30 13 C -5.1949 4.5995 0.0 0
M  V30 14 S 4.0391 3.2453 0.0 0
M  V30 15 C 3.7006 5.8136 0.0 0
M  V30 16 C 1.3074 6.7942 0.0 0
M  V30 17 C -5.7786 3.222 0.0 0
M  V30 18 C -6.1171 5.7902 0.0 0
M  V30 19 O 2.8484 2.3464 0.0 0
M  V30 20 O 5.2065 4.1675 0.0 0
M  V30 21 C 4.938 2.0779 0.0 0
M  V30 22 C 2.7783 7.0043 0.0 0
M  V30 23 O -4.8797 2.0546 0.0 0
M  V30 24 C -7.2728 3.0352 0.0 0
M  V30 25 C -7.6114 5.6034 0.0 0
M  V30 26 C 6.4089 2.288 0.0 0
M  V30 27 C 4.3543 0.7004 0.0 0
M  V30 28 C -5.4634 0.677 0.0 0
M  V30 29 C -8.1951 4.2259 0.0 0
M  V30 30 N -9.6893 4.0391 0.0 0
M  V30 31 C -10.6116 5.2299 0.0 0
M  V30 32 C -10.273 2.6616 0.0 0
M  V30 33 C -12.1058 5.0431 0.0 0
M  V30 34 C -11.7673 2.4748 0.0 0
M  V30 35 C -12.6895 3.6656 0.0 0
M  V30 36 N -14.1838 3.4788 0.0 0
M  V30 37 C -15.106 4.6695 0.0 0
M  V30 38 C -14.7675 2.1013 0.0 0
M  V30 39 C -16.6003 4.4827 0.0 0
M  V30 40 C -16.2618 1.9145 0.0 0
M  V30 41 N -17.184 3.1052 0.0 0
M  V30 42 C -18.6783 2.9184 0.0 0
M  V30 END ATOM
M  V30 BEGIN BOND
M  V30 1 1 1 2
M  V30 2 2 2 3
M  V30 3 1 2 4
M  V30 4 1 3 5
M  V30 5 1 3 6
M  V30 6 2 4 7
M  V30 7 2 5 8
M  V30 8 1 6 9
M  V30 9 1 8 10
M  V30 10 2 9 11
M  V30 11 1 9 12
M  V30 12 1 10 13
M  V30 13 1 11 14
M  V30 14 1 11 15
M  V30 15 2 12 16
M  V30 16 2 13 17
M  V30 17 1 13 18
M  V30 18 2 14 19
M  V30 19 2 14 20
M  V30 20 1 14 21
M  V30 21 2 15 22
M  V30 22 1 17 23
M  V30 23 1 17 24
M  V30 24 2 18 25
M  V30 25 1 21 26
M  V30 26 1 21 27
M  V30 27 1 23 28
M  V30 28 2 24 29
M  V30 29 1 29 30
M  V30 30 1 30 31
M  V30 31 1 30 32
M  V30 32 1 31 33
M  V30 33 1 32 34
M  V30 34 1 33 35
M  V30 35 1 35 36
M  V30 36 1 36 37
M  V30 37 1 36 38
M  V30 38 1 37 39
M  V30 39 1 38 40
M  V30 40 1 39 41
M  V30 41 1 41 42
M  V30 42 1 7 8
M  V30 43 1 16 22
M  V30 44 1 25 29
M  V30 45 1 34 35
M  V30 46 1 40 41
M  V30 END BOND
M  V30 END CTAB
M  END
>  <Compound ID>
67

>  <Name>
TAE684

>  <Uniprot>
P33981

>  <Target>
TTK

>  <Smiles>
COC1=CC(N2CCC(N3CCN(C)CC3)CC2)=CC=C1NC1=NC=C(Cl)C(NC2=CC=CC=C2S(=O)(=O)C(C)C)=N1

>  <Kd (nM)>
50

>  <Assay (Kd)>
Kd was assessed by competition binding assays

>  <Ki (nM)>


>  <Assay (Ki)>


>  <IC50 (nM)>


>  <Assay (IC50)>


>  <EC50 (nM)>


>  <Assay (EC50)>


>  <Article DOI>
10.1038/nbt.1990

>  <Molecular Weight>
614.216

>  <Exact Mass>
613.26018682

>  <XLogP3>
5.67

>  <Heavy Atom Count>
42

>  <Ring Count>
5

>  <Hydrogen Bond Acceptor Count>
10

>  <Hydrogen Bond Donor Count>
2

>  <Rotatable Bond Count>
9

>  <Topological Polar Surface Area>
102.93

>  <Molecular Formula>
C30H40ClN7O3S

>  <InChI>
InChI=1S/C30H40ClN7O3S/c1-21(2)42(39,40)28-8-6-5-7-26(28)33-29-24(31)20-32-30(35-29)34-25-10-9-23(19-27(25)41-4)37-13-11-22(12-14-37)38-17-15-36(3)16-18-38/h5-10,19-22H,11-18H2,1-4H3,(H2,32,33,34,35)

>  <InChI Key>
QQWUGDVOUVUTOY-UHFFFAOYSA-N

>  <BindingDB>
50242742

>  <PubChem>
16038120

>  <ChEMBL>
CHEMBL509032

$$$$
Compound 236
Actelion Java MolfileCreator 2.0

  0  0  0  0  0  0              0 V3000
M  V30 BEGIN CTAB
M  V30 COUNTS 42 46 0 0 0
M  V30 BEGIN ATOM
M  V30 1 Cl 0.0 0.0 0.0 0
M  V30 2 C -0.9222 1.1907 0.0 0
M  V30 3 C -0.3618 2.5916 0.0 0
M  V30 4 C -2.4165 1.0039 0.0 0
M  V30 5 N -1.2841 3.7823 0.0 0
M  V30 6 N 1.109 2.8017 0.0 0
M  V30 7 N -3.3387 2.1947 0.0 0
M  V30 8 C -2.7783 3.5955 0.0 0
M  V30 9 C 1.6693 4.2026 0.0 0
M  V30 10 N -3.7006 4.7863 0.0 0
M  V30 11 C 3.1402 4.4127 0.0 0
M  V30 12 C 0.7471 5.3933 0.0 0
M  V30 13 C -5.1949 4.5995 0.0 0
M  V30 14 S 4.0391 3.2453 0.0 0
M  V30 15 C 3.7006 5.8136 0.0 0
M  V30 16 C 1.3074 6.7942 0.0 0
M  V30 17 C -5.7786 3.222 0.0 0
M  V30 18 C -6.1171 5.7902 0.0 0
M  V30 19 O 2.8484 2.3464 0.0 0
M  V30 20 O 5.2065 4.1675 0.0 0
M  V30 21 C 4.938 2.0779 0.0 0
M  V30 22 C 2.7783 7.0043 0.0 0
M  V30 23 O -4.8797 2.0546 0.0 0
M  V30 24 C -7.2728 3.0352 0.0 0
M  V30 25 C -7.6114 5.6034 0.0 0
M  V30 26 C 6.4089 2.288 0.0 0
M  V30 27 C 4.3543 0.7004 0.0 0
M  V30 28 C -5.4634 0.677 0.0 0
M  V30 29 C -8.1951 4.2259 0.0 0
M  V30 30 N -9.6893 4.0391 0.0 0
M  V30 31 C -10.6116 5.2299 0.0 0
M  V30 32 C -10.273 2.6616 0.0 0
M  V30 33 C -12.1058 5.0431 0.0 0
M  V30 34 C -11.7673 2.4748 0.0 0
M  V30 35 C -12.6895 3.6656 0.0 0
M  V30 36 N -14.1838 3.4788 0.0 0
M  V30 37 C -15.106 4.6695 0.0 0
M  V30 38 C -14.7675 2.1013 0.0 0
M  V30 39 C -16.6003 4.4827 0.0 0
M  V30 40 C -16.2618 1.9145 0.0 0
M  V30 41 N -17.184 3.1052 0.0 0
M  V30 42 C -18.6783 2.9184 0.0 0
M  V30 END ATOM
M  V30 BEGIN BOND
M  V30 1 1 1 2
M  V30 2 2 2 3
M  V30 3 1 2 4
M  V30 4 1 3 5
M  V30 5 1 3 6
M  V30 6 2 4 7
M  V30 7 2 5 8
M  V30 8 1 6 9
M  V30 9 1 8 10
M  V30 10 2 9 11
M  V30 11 1 9 12
M  V30 12 1 10 13
M  V30 13 1 11 14
M  V30 14 1 11 15
M  V30 15 2 12 16
M  V30 16 2 13 17
M  V30 17 1 13 18
M  V30 18 2 14 19
M  V30 19 2 14 20
M  V30 20 1 14 21
M  V30 21 2 15 22
M  V30 22 1 17 23
M  V30 23 1 17 24
M  V30 24 2 18 25
M  V30 25 1 21 26
M  V30 26 1 21 27
M  V30 27 1 23 28
M  V30 28 2 24 29
M  V30 29 1 29 30
M  V30 30 1 30 31
M  V30 31 1 30 32
M  V30 32 1 31 33
M  V30 33 1 32 34
M  V30 34 1 33 35
M  V30 35 1 35 36
M  V30 36 1 36 37
M  V30 37 1 36 38
M  V30 38 1 37 39
M  V30 39 1 38 40
M  V30 40 1 39 41
M  V30 41 1 41 42
M  V30 42 1 7 8
M  V30 43 1 16 22
M  V30 44 1 25 29
M  V30 45 1 34 35
M  V30 46 1 40 41
M  V30 END BOND
M  V30 END CTAB
M  END
>  <Compound ID>
67

>  <Name>
TAE684

>  <Uniprot>
Q8TAS1

>  <Target>
UHMK1

>  <Smiles>
COC1=CC(N2CCC(N3CCN(C)CC3)CC2)=CC=C1NC1=NC=C(Cl)C(NC2=CC=CC=C2S(=O)(=O)C(C)C)=N1

>  <Kd (nM)>


>  <Assay (Kd)>


>  <Ki (nM)>


>  <Assay (Ki)>


>  <IC50 (nM)>


>  <Assay (IC50)>


>  <EC50 (nM)>


>  <Assay (EC50)>


>  <Article DOI>
10.1016/j.cell.2020.10.038

>  <Molecular Weight>
614.216

>  <Exact Mass>
613.26018682

>  <XLogP3>
5.67

>  <Heavy Atom Count>
42

>  <Ring Count>
5

>  <Hydrogen Bond Acceptor Count>
10

>  <Hydrogen Bond Donor Count>
2

>  <Rotatable Bond Count>
9

>  <Topological Polar Surface Area>
102.93

>  <Molecular Formula>
C30H40ClN7O3S

>  <InChI>
InChI=1S/C30H40ClN7O3S/c1-21(2)42(39,40)28-8-6-5-7-26(28)33-29-24(31)20-32-30(35-29)34-25-10-9-23(19-27(25)41-4)37-13-11-22(12-14-37)38-17-15-36(3)16-18-38/h5-10,19-22H,11-18H2,1-4H3,(H2,32,33,34,35)

>  <InChI Key>
QQWUGDVOUVUTOY-UHFFFAOYSA-N

>  <BindingDB>
50242742

>  <PubChem>
16038120

>  <ChEMBL>
CHEMBL509032

$$$$
Compound 237
Actelion Java MolfileCreator 2.0

  0  0  0  0  0  0              0 V3000
M  V30 BEGIN CTAB
M  V30 COUNTS 42 46 0 0 0
M  V30 BEGIN ATOM
M  V30 1 Cl 0.0 0.0 0.0 0
M  V30 2 C -0.9222 1.1907 0.0 0
M  V30 3 C -0.3618 2.5916 0.0 0
M  V30 4 C -2.4165 1.0039 0.0 0
M  V30 5 N -1.2841 3.7823 0.0 0
M  V30 6 N 1.109 2.8017 0.0 0
M  V30 7 N -3.3387 2.1947 0.0 0
M  V30 8 C -2.7783 3.5955 0.0 0
M  V30 9 C 1.6693 4.2026 0.0 0
M  V30 10 N -3.7006 4.7863 0.0 0
M  V30 11 C 3.1402 4.4127 0.0 0
M  V30 12 C 0.7471 5.3933 0.0 0
M  V30 13 C -5.1949 4.5995 0.0 0
M  V30 14 S 4.0391 3.2453 0.0 0
M  V30 15 C 3.7006 5.8136 0.0 0
M  V30 16 C 1.3074 6.7942 0.0 0
M  V30 17 C -5.7786 3.222 0.0 0
M  V30 18 C -6.1171 5.7902 0.0 0
M  V30 19 O 2.8484 2.3464 0.0 0
M  V30 20 O 5.2065 4.1675 0.0 0
M  V30 21 C 4.938 2.0779 0.0 0
M  V30 22 C 2.7783 7.0043 0.0 0
M  V30 23 O -4.8797 2.0546 0.0 0
M  V30 24 C -7.2728 3.0352 0.0 0
M  V30 25 C -7.6114 5.6034 0.0 0
M  V30 26 C 6.4089 2.288 0.0 0
M  V30 27 C 4.3543 0.7004 0.0 0
M  V30 28 C -5.4634 0.677 0.0 0
M  V30 29 C -8.1951 4.2259 0.0 0
M  V30 30 N -9.6893 4.0391 0.0 0
M  V30 31 C -10.6116 5.2299 0.0 0
M  V30 32 C -10.273 2.6616 0.0 0
M  V30 33 C -12.1058 5.0431 0.0 0
M  V30 34 C -11.7673 2.4748 0.0 0
M  V30 35 C -12.6895 3.6656 0.0 0
M  V30 36 N -14.1838 3.4788 0.0 0
M  V30 37 C -15.106 4.6695 0.0 0
M  V30 38 C -14.7675 2.1013 0.0 0
M  V30 39 C -16.6003 4.4827 0.0 0
M  V30 40 C -16.2618 1.9145 0.0 0
M  V30 41 N -17.184 3.1052 0.0 0
M  V30 42 C -18.6783 2.9184 0.0 0
M  V30 END ATOM
M  V30 BEGIN BOND
M  V30 1 1 1 2
M  V30 2 2 2 3
M  V30 3 1 2 4
M  V30 4 1 3 5
M  V30 5 1 3 6
M  V30 6 2 4 7
M  V30 7 2 5 8
M  V30 8 1 6 9
M  V30 9 1 8 10
M  V30 10 2 9 11
M  V30 11 1 9 12
M  V30 12 1 10 13
M  V30 13 1 11 14
M  V30 14 1 11 15
M  V30 15 2 12 16
M  V30 16 2 13 17
M  V30 17 1 13 18
M  V30 18 2 14 19
M  V30 19 2 14 20
M  V30 20 1 14 21
M  V30 21 2 15 22
M  V30 22 1 17 23
M  V30 23 1 17 24
M  V30 24 2 18 25
M  V30 25 1 21 26
M  V30 26 1 21 27
M  V30 27 1 23 28
M  V30 28 2 24 29
M  V30 29 1 29 30
M  V30 30 1 30 31
M  V30 31 1 30 32
M  V30 32 1 31 33
M  V30 33 1 32 34
M  V30 34 1 33 35
M  V30 35 1 35 36
M  V30 36 1 36 37
M  V30 37 1 36 38
M  V30 38 1 37 39
M  V30 39 1 38 40
M  V30 40 1 39 41
M  V30 41 1 41 42
M  V30 42 1 7 8
M  V30 43 1 16 22
M  V30 44 1 25 29
M  V30 45 1 34 35
M  V30 46 1 40 41
M  V30 END BOND
M  V30 END CTAB
M  END
>  <Compound ID>
67

>  <Name>
TAE684

>  <Uniprot>
O75385

>  <Target>
ULK1

>  <Smiles>
COC1=CC(N2CCC(N3CCN(C)CC3)CC2)=CC=C1NC1=NC=C(Cl)C(NC2=CC=CC=C2S(=O)(=O)C(C)C)=N1

>  <Kd (nM)>
0.83

>  <Assay (Kd)>
Kd was assessed by competition binding assays

>  <Ki (nM)>


>  <Assay (Ki)>


>  <IC50 (nM)>


>  <Assay (IC50)>


>  <EC50 (nM)>


>  <Assay (EC50)>


>  <Article DOI>
10.1038/nbt.1990

>  <Molecular Weight>
614.216

>  <Exact Mass>
613.26018682

>  <XLogP3>
5.67

>  <Heavy Atom Count>
42

>  <Ring Count>
5

>  <Hydrogen Bond Acceptor Count>
10

>  <Hydrogen Bond Donor Count>
2

>  <Rotatable Bond Count>
9

>  <Topological Polar Surface Area>
102.93

>  <Molecular Formula>
C30H40ClN7O3S

>  <InChI>
InChI=1S/C30H40ClN7O3S/c1-21(2)42(39,40)28-8-6-5-7-26(28)33-29-24(31)20-32-30(35-29)34-25-10-9-23(19-27(25)41-4)37-13-11-22(12-14-37)38-17-15-36(3)16-18-38/h5-10,19-22H,11-18H2,1-4H3,(H2,32,33,34,35)

>  <InChI Key>
QQWUGDVOUVUTOY-UHFFFAOYSA-N

>  <BindingDB>
50242742

>  <PubChem>
16038120

>  <ChEMBL>
CHEMBL509032

$$$$
Compound 238
Actelion Java MolfileCreator 2.0

  0  0  0  0  0  0              0 V3000
M  V30 BEGIN CTAB
M  V30 COUNTS 42 46 0 0 0
M  V30 BEGIN ATOM
M  V30 1 Cl 0.0 0.0 0.0 0
M  V30 2 C -0.9222 1.1907 0.0 0
M  V30 3 C -0.3618 2.5916 0.0 0
M  V30 4 C -2.4165 1.0039 0.0 0
M  V30 5 N -1.2841 3.7823 0.0 0
M  V30 6 N 1.109 2.8017 0.0 0
M  V30 7 N -3.3387 2.1947 0.0 0
M  V30 8 C -2.7783 3.5955 0.0 0
M  V30 9 C 1.6693 4.2026 0.0 0
M  V30 10 N -3.7006 4.7863 0.0 0
M  V30 11 C 3.1402 4.4127 0.0 0
M  V30 12 C 0.7471 5.3933 0.0 0
M  V30 13 C -5.1949 4.5995 0.0 0
M  V30 14 S 4.0391 3.2453 0.0 0
M  V30 15 C 3.7006 5.8136 0.0 0
M  V30 16 C 1.3074 6.7942 0.0 0
M  V30 17 C -5.7786 3.222 0.0 0
M  V30 18 C -6.1171 5.7902 0.0 0
M  V30 19 O 2.8484 2.3464 0.0 0
M  V30 20 O 5.2065 4.1675 0.0 0
M  V30 21 C 4.938 2.0779 0.0 0
M  V30 22 C 2.7783 7.0043 0.0 0
M  V30 23 O -4.8797 2.0546 0.0 0
M  V30 24 C -7.2728 3.0352 0.0 0
M  V30 25 C -7.6114 5.6034 0.0 0
M  V30 26 C 6.4089 2.288 0.0 0
M  V30 27 C 4.3543 0.7004 0.0 0
M  V30 28 C -5.4634 0.677 0.0 0
M  V30 29 C -8.1951 4.2259 0.0 0
M  V30 30 N -9.6893 4.0391 0.0 0
M  V30 31 C -10.6116 5.2299 0.0 0
M  V30 32 C -10.273 2.6616 0.0 0
M  V30 33 C -12.1058 5.0431 0.0 0
M  V30 34 C -11.7673 2.4748 0.0 0
M  V30 35 C -12.6895 3.6656 0.0 0
M  V30 36 N -14.1838 3.4788 0.0 0
M  V30 37 C -15.106 4.6695 0.0 0
M  V30 38 C -14.7675 2.1013 0.0 0
M  V30 39 C -16.6003 4.4827 0.0 0
M  V30 40 C -16.2618 1.9145 0.0 0
M  V30 41 N -17.184 3.1052 0.0 0
M  V30 42 C -18.6783 2.9184 0.0 0
M  V30 END ATOM
M  V30 BEGIN BOND
M  V30 1 1 1 2
M  V30 2 2 2 3
M  V30 3 1 2 4
M  V30 4 1 3 5
M  V30 5 1 3 6
M  V30 6 2 4 7
M  V30 7 2 5 8
M  V30 8 1 6 9
M  V30 9 1 8 10
M  V30 10 2 9 11
M  V30 11 1 9 12
M  V30 12 1 10 13
M  V30 13 1 11 14
M  V30 14 1 11 15
M  V30 15 2 12 16
M  V30 16 2 13 17
M  V30 17 1 13 18
M  V30 18 2 14 19
M  V30 19 2 14 20
M  V30 20 1 14 21
M  V30 21 2 15 22
M  V30 22 1 17 23
M  V30 23 1 17 24
M  V30 24 2 18 25
M  V30 25 1 21 26
M  V30 26 1 21 27
M  V30 27 1 23 28
M  V30 28 2 24 29
M  V30 29 1 29 30
M  V30 30 1 30 31
M  V30 31 1 30 32
M  V30 32 1 31 33
M  V30 33 1 32 34
M  V30 34 1 33 35
M  V30 35 1 35 36
M  V30 36 1 36 37
M  V30 37 1 36 38
M  V30 38 1 37 39
M  V30 39 1 38 40
M  V30 40 1 39 41
M  V30 41 1 41 42
M  V30 42 1 7 8
M  V30 43 1 16 22
M  V30 44 1 25 29
M  V30 45 1 34 35
M  V30 46 1 40 41
M  V30 END BOND
M  V30 END CTAB
M  END
>  <Compound ID>
67

>  <Name>
TAE684

>  <Uniprot>
Q6PHR2

>  <Target>
ULK3

>  <Smiles>
COC1=CC(N2CCC(N3CCN(C)CC3)CC2)=CC=C1NC1=NC=C(Cl)C(NC2=CC=CC=C2S(=O)(=O)C(C)C)=N1

>  <Kd (nM)>
11

>  <Assay (Kd)>
Kd was assessed by competition binding assays

>  <Ki (nM)>


>  <Assay (Ki)>


>  <IC50 (nM)>


>  <Assay (IC50)>


>  <EC50 (nM)>


>  <Assay (EC50)>


>  <Article DOI>
10.1038/nbt.1990

>  <Molecular Weight>
614.216

>  <Exact Mass>
613.26018682

>  <XLogP3>
5.67

>  <Heavy Atom Count>
42

>  <Ring Count>
5

>  <Hydrogen Bond Acceptor Count>
10

>  <Hydrogen Bond Donor Count>
2

>  <Rotatable Bond Count>
9

>  <Topological Polar Surface Area>
102.93

>  <Molecular Formula>
C30H40ClN7O3S

>  <InChI>
InChI=1S/C30H40ClN7O3S/c1-21(2)42(39,40)28-8-6-5-7-26(28)33-29-24(31)20-32-30(35-29)34-25-10-9-23(19-27(25)41-4)37-13-11-22(12-14-37)38-17-15-36(3)16-18-38/h5-10,19-22H,11-18H2,1-4H3,(H2,32,33,34,35)

>  <InChI Key>
QQWUGDVOUVUTOY-UHFFFAOYSA-N

>  <BindingDB>
50242742

>  <PubChem>
16038120

>  <ChEMBL>
CHEMBL509032

$$$$
Compound 239
Actelion Java MolfileCreator 2.0

  0  0  0  0  0  0              0 V3000
M  V30 BEGIN CTAB
M  V30 COUNTS 42 46 0 0 0
M  V30 BEGIN ATOM
M  V30 1 Cl 0.0 0.0 0.0 0
M  V30 2 C -0.9222 1.1907 0.0 0
M  V30 3 C -0.3618 2.5916 0.0 0
M  V30 4 C -2.4165 1.0039 0.0 0
M  V30 5 N -1.2841 3.7823 0.0 0
M  V30 6 N 1.109 2.8017 0.0 0
M  V30 7 N -3.3387 2.1947 0.0 0
M  V30 8 C -2.7783 3.5955 0.0 0
M  V30 9 C 1.6693 4.2026 0.0 0
M  V30 10 N -3.7006 4.7863 0.0 0
M  V30 11 C 3.1402 4.4127 0.0 0
M  V30 12 C 0.7471 5.3933 0.0 0
M  V30 13 C -5.1949 4.5995 0.0 0
M  V30 14 S 4.0391 3.2453 0.0 0
M  V30 15 C 3.7006 5.8136 0.0 0
M  V30 16 C 1.3074 6.7942 0.0 0
M  V30 17 C -5.7786 3.222 0.0 0
M  V30 18 C -6.1171 5.7902 0.0 0
M  V30 19 O 2.8484 2.3464 0.0 0
M  V30 20 O 5.2065 4.1675 0.0 0
M  V30 21 C 4.938 2.0779 0.0 0
M  V30 22 C 2.7783 7.0043 0.0 0
M  V30 23 O -4.8797 2.0546 0.0 0
M  V30 24 C -7.2728 3.0352 0.0 0
M  V30 25 C -7.6114 5.6034 0.0 0
M  V30 26 C 6.4089 2.288 0.0 0
M  V30 27 C 4.3543 0.7004 0.0 0
M  V30 28 C -5.4634 0.677 0.0 0
M  V30 29 C -8.1951 4.2259 0.0 0
M  V30 30 N -9.6893 4.0391 0.0 0
M  V30 31 C -10.6116 5.2299 0.0 0
M  V30 32 C -10.273 2.6616 0.0 0
M  V30 33 C -12.1058 5.0431 0.0 0
M  V30 34 C -11.7673 2.4748 0.0 0
M  V30 35 C -12.6895 3.6656 0.0 0
M  V30 36 N -14.1838 3.4788 0.0 0
M  V30 37 C -15.106 4.6695 0.0 0
M  V30 38 C -14.7675 2.1013 0.0 0
M  V30 39 C -16.6003 4.4827 0.0 0
M  V30 40 C -16.2618 1.9145 0.0 0
M  V30 41 N -17.184 3.1052 0.0 0
M  V30 42 C -18.6783 2.9184 0.0 0
M  V30 END ATOM
M  V30 BEGIN BOND
M  V30 1 1 1 2
M  V30 2 2 2 3
M  V30 3 1 2 4
M  V30 4 1 3 5
M  V30 5 1 3 6
M  V30 6 2 4 7
M  V30 7 2 5 8
M  V30 8 1 6 9
M  V30 9 1 8 10
M  V30 10 2 9 11
M  V30 11 1 9 12
M  V30 12 1 10 13
M  V30 13 1 11 14
M  V30 14 1 11 15
M  V30 15 2 12 16
M  V30 16 2 13 17
M  V30 17 1 13 18
M  V30 18 2 14 19
M  V30 19 2 14 20
M  V30 20 1 14 21
M  V30 21 2 15 22
M  V30 22 1 17 23
M  V30 23 1 17 24
M  V30 24 2 18 25
M  V30 25 1 21 26
M  V30 26 1 21 27
M  V30 27 1 23 28
M  V30 28 2 24 29
M  V30 29 1 29 30
M  V30 30 1 30 31
M  V30 31 1 30 32
M  V30 32 1 31 33
M  V30 33 1 32 34
M  V30 34 1 33 35
M  V30 35 1 35 36
M  V30 36 1 36 37
M  V30 37 1 36 38
M  V30 38 1 37 39
M  V30 39 1 38 40
M  V30 40 1 39 41
M  V30 41 1 41 42
M  V30 42 1 7 8
M  V30 43 1 16 22
M  V30 44 1 25 29
M  V30 45 1 34 35
M  V30 46 1 40 41
M  V30 END BOND
M  V30 END CTAB
M  END
>  <Compound ID>
67

>  <Name>
TAE684

>  <Uniprot>
P30291

>  <Target>
Wee1

>  <Smiles>
COC1=CC(N2CCC(N3CCN(C)CC3)CC2)=CC=C1NC1=NC=C(Cl)C(NC2=CC=CC=C2S(=O)(=O)C(C)C)=N1

>  <Kd (nM)>
3000

>  <Assay (Kd)>
Kd was assessed by competition binding assays

>  <Ki (nM)>


>  <Assay (Ki)>


>  <IC50 (nM)>


>  <Assay (IC50)>


>  <EC50 (nM)>


>  <Assay (EC50)>


>  <Article DOI>
10.1038/nbt.1990

>  <Molecular Weight>
614.216

>  <Exact Mass>
613.26018682

>  <XLogP3>
5.67

>  <Heavy Atom Count>
42

>  <Ring Count>
5

>  <Hydrogen Bond Acceptor Count>
10

>  <Hydrogen Bond Donor Count>
2

>  <Rotatable Bond Count>
9

>  <Topological Polar Surface Area>
102.93

>  <Molecular Formula>
C30H40ClN7O3S

>  <InChI>
InChI=1S/C30H40ClN7O3S/c1-21(2)42(39,40)28-8-6-5-7-26(28)33-29-24(31)20-32-30(35-29)34-25-10-9-23(19-27(25)41-4)37-13-11-22(12-14-37)38-17-15-36(3)16-18-38/h5-10,19-22H,11-18H2,1-4H3,(H2,32,33,34,35)

>  <InChI Key>
QQWUGDVOUVUTOY-UHFFFAOYSA-N

>  <BindingDB>
50242742

>  <PubChem>
16038120

>  <ChEMBL>
CHEMBL509032

$$$$
Compound 240
Actelion Java MolfileCreator 2.0

  0  0  0  0  0  0              0 V3000
M  V30 BEGIN CTAB
M  V30 COUNTS 42 46 0 0 0
M  V30 BEGIN ATOM
M  V30 1 Cl 0.0 0.0 0.0 0
M  V30 2 C -0.9222 1.1907 0.0 0
M  V30 3 C -0.3618 2.5916 0.0 0
M  V30 4 C -2.4165 1.0039 0.0 0
M  V30 5 N -1.2841 3.7823 0.0 0
M  V30 6 N 1.109 2.8017 0.0 0
M  V30 7 N -3.3387 2.1947 0.0 0
M  V30 8 C -2.7783 3.5955 0.0 0
M  V30 9 C 1.6693 4.2026 0.0 0
M  V30 10 N -3.7006 4.7863 0.0 0
M  V30 11 C 3.1402 4.4127 0.0 0
M  V30 12 C 0.7471 5.3933 0.0 0
M  V30 13 C -5.1949 4.5995 0.0 0
M  V30 14 S 4.0391 3.2453 0.0 0
M  V30 15 C 3.7006 5.8136 0.0 0
M  V30 16 C 1.3074 6.7942 0.0 0
M  V30 17 C -5.7786 3.222 0.0 0
M  V30 18 C -6.1171 5.7902 0.0 0
M  V30 19 O 2.8484 2.3464 0.0 0
M  V30 20 O 5.2065 4.1675 0.0 0
M  V30 21 C 4.938 2.0779 0.0 0
M  V30 22 C 2.7783 7.0043 0.0 0
M  V30 23 O -4.8797 2.0546 0.0 0
M  V30 24 C -7.2728 3.0352 0.0 0
M  V30 25 C -7.6114 5.6034 0.0 0
M  V30 26 C 6.4089 2.288 0.0 0
M  V30 27 C 4.3543 0.7004 0.0 0
M  V30 28 C -5.4634 0.677 0.0 0
M  V30 29 C -8.1951 4.2259 0.0 0
M  V30 30 N -9.6893 4.0391 0.0 0
M  V30 31 C -10.6116 5.2299 0.0 0
M  V30 32 C -10.273 2.6616 0.0 0
M  V30 33 C -12.1058 5.0431 0.0 0
M  V30 34 C -11.7673 2.4748 0.0 0
M  V30 35 C -12.6895 3.6656 0.0 0
M  V30 36 N -14.1838 3.4788 0.0 0
M  V30 37 C -15.106 4.6695 0.0 0
M  V30 38 C -14.7675 2.1013 0.0 0
M  V30 39 C -16.6003 4.4827 0.0 0
M  V30 40 C -16.2618 1.9145 0.0 0
M  V30 41 N -17.184 3.1052 0.0 0
M  V30 42 C -18.6783 2.9184 0.0 0
M  V30 END ATOM
M  V30 BEGIN BOND
M  V30 1 1 1 2
M  V30 2 2 2 3
M  V30 3 1 2 4
M  V30 4 1 3 5
M  V30 5 1 3 6
M  V30 6 2 4 7
M  V30 7 2 5 8
M  V30 8 1 6 9
M  V30 9 1 8 10
M  V30 10 2 9 11
M  V30 11 1 9 12
M  V30 12 1 10 13
M  V30 13 1 11 14
M  V30 14 1 11 15
M  V30 15 2 12 16
M  V30 16 2 13 17
M  V30 17 1 13 18
M  V30 18 2 14 19
M  V30 19 2 14 20
M  V30 20 1 14 21
M  V30 21 2 15 22
M  V30 22 1 17 23
M  V30 23 1 17 24
M  V30 24 2 18 25
M  V30 25 1 21 26
M  V30 26 1 21 27
M  V30 27 1 23 28
M  V30 28 2 24 29
M  V30 29 1 29 30
M  V30 30 1 30 31
M  V30 31 1 30 32
M  V30 32 1 31 33
M  V30 33 1 32 34
M  V30 34 1 33 35
M  V30 35 1 35 36
M  V30 36 1 36 37
M  V30 37 1 36 38
M  V30 38 1 37 39
M  V30 39 1 38 40
M  V30 40 1 39 41
M  V30 41 1 41 42
M  V30 42 1 7 8
M  V30 43 1 16 22
M  V30 44 1 25 29
M  V30 45 1 34 35
M  V30 46 1 40 41
M  V30 END BOND
M  V30 END CTAB
M  END
>  <Compound ID>
67

>  <Name>
TAE684

>  <Uniprot>
P07947

>  <Target>
YES1

>  <Smiles>
COC1=CC(N2CCC(N3CCN(C)CC3)CC2)=CC=C1NC1=NC=C(Cl)C(NC2=CC=CC=C2S(=O)(=O)C(C)C)=N1

>  <Kd (nM)>


>  <Assay (Kd)>


>  <Ki (nM)>


>  <Assay (Ki)>


>  <IC50 (nM)>


>  <Assay (IC50)>


>  <EC50 (nM)>


>  <Assay (EC50)>


>  <Article DOI>
10.1016/j.cell.2020.10.038

>  <Molecular Weight>
614.216

>  <Exact Mass>
613.26018682

>  <XLogP3>
5.67

>  <Heavy Atom Count>
42

>  <Ring Count>
5

>  <Hydrogen Bond Acceptor Count>
10

>  <Hydrogen Bond Donor Count>
2

>  <Rotatable Bond Count>
9

>  <Topological Polar Surface Area>
102.93

>  <Molecular Formula>
C30H40ClN7O3S

>  <InChI>
InChI=1S/C30H40ClN7O3S/c1-21(2)42(39,40)28-8-6-5-7-26(28)33-29-24(31)20-32-30(35-29)34-25-10-9-23(19-27(25)41-4)37-13-11-22(12-14-37)38-17-15-36(3)16-18-38/h5-10,19-22H,11-18H2,1-4H3,(H2,32,33,34,35)

>  <InChI Key>
QQWUGDVOUVUTOY-UHFFFAOYSA-N

>  <BindingDB>
50242742

>  <PubChem>
16038120

>  <ChEMBL>
CHEMBL509032

$$$$
Compound 241
Actelion Java MolfileCreator 2.0

  0  0  0  0  0  0              0 V3000
M  V30 BEGIN CTAB
M  V30 COUNTS 49 53 0 0 0
M  V30 BEGIN ATOM
M  V30 1 Cl 0.0 0.0 0.0 0
M  V30 2 C -1.3706 0.6498 0.0 0
M  V30 3 C -1.5124 2.1623 0.0 0
M  V30 4 C -2.6113 -0.2008 0.0 0
M  V30 5 C -2.8831 2.8122 0.0 0
M  V30 6 C -3.982 0.449 0.0 0
M  V30 7 C -4.1238 1.9614 0.0 0
M  V30 8 C -5.4945 2.6113 0.0 0 CFG=2
M  V30 9 N -6.6998 3.5212 0.0 0
M  V30 10 C -5.9908 1.2052 0.0 0 CFG=2
M  V30 11 C -4.7383 3.9111 0.0 0
M  V30 12 C -7.9405 2.6704 0.0 0
M  V30 13 N -7.5033 1.2407 0.0 0
M  V30 14 C -6.1798 -0.2717 0.0 0
M  V30 15 C -4.7973 0.6026 0.0 0
M  V30 16 C -9.3702 3.1667 0.0 0
M  V30 17 C -8.4131 0.059 0.0 0
M  V30 18 C -7.5742 -0.8507 0.0 0
M  V30 19 C -4.9982 -1.1579 0.0 0
M  V30 20 C -10.5164 2.1978 0.0 0
M  V30 21 C -9.6656 4.6555 0.0 0
M  V30 22 O -8.1886 -1.4061 0.0 0
M  V30 23 N -9.9138 0.2481 0.0 0
M  V30 24 C -7.7632 -2.3277 0.0 0
M  V30 25 C -5.1873 -2.635 0.0 0
M  V30 26 O -10.2446 0.7326 0.0 0
M  V30 27 C -11.9462 2.6941 0.0 0
M  V30 28 C -11.0954 5.1518 0.0 0
M  V30 29 C -10.5164 1.6424 0.0 0
M  V30 30 C -10.8236 -0.9334 0.0 0
M  V30 31 C -6.5816 -3.214 0.0 0
M  V30 32 C -11.3908 -0.2363 0.0 0
M  V30 33 C -12.2416 4.1829 0.0 0
M  V30 34 C -12.0171 1.8315 0.0 0
M  V30 35 C -12.3243 -0.7444 0.0 0
M  V30 36 Cl -6.7707 -4.691 0.0 0
M  V30 37 C -11.119 -1.7015 0.0 0
M  V30 38 C -13.6713 4.6792 0.0 0
M  V30 39 N -12.9269 0.6498 0.0 0
M  V30 40 C -13.1987 6.1089 0.0 0
M  V30 41 C -14.1676 3.273 0.0 0
M  V30 42 C -15.1011 5.1755 0.0 0
M  V30 43 C -14.4276 0.8389 0.0 0
M  V30 44 C -15.3374 -0.3426 0.0 0
M  V30 45 C -16.8381 -0.1536 0.0 0
M  V30 46 S -17.7479 -1.3352 0.0 0
M  V30 47 O -16.5663 -2.2214 0.0 0
M  V30 48 O -18.9532 -0.4253 0.0 0
M  V30 49 C -18.6578 -2.5168 0.0 0
M  V30 END ATOM
M  V30 BEGIN BOND
M  V30 1 1 1 2
M  V30 2 2 2 3
M  V30 3 1 2 4
M  V30 4 1 3 5
M  V30 5 2 4 6
M  V30 6 2 5 7
M  V30 7 1 7 8
M  V30 8 1 8 9
M  V30 9 1 8 10
M  V30 10 1 8 11 CFG=3
M  V30 11 2 9 12
M  V30 12 1 10 13
M  V30 13 1 10 14
M  V30 14 1 10 15 CFG=3
M  V30 15 1 12 16
M  V30 16 1 13 17
M  V30 17 2 14 18
M  V30 18 1 14 19
M  V30 19 2 16 20
M  V30 20 1 16 21
M  V30 21 2 17 22
M  V30 22 1 17 23
M  V30 23 1 18 24
M  V30 24 2 19 25
M  V30 25 1 20 26
M  V30 26 1 20 27
M  V30 27 2 21 28
M  V30 28 1 23 29
M  V30 29 1 23 30
M  V30 30 2 24 31
M  V30 31 1 26 32
M  V30 32 2 27 33
M  V30 33 1 29 34
M  V30 34 1 30 35
M  V30 35 1 31 36
M  V30 36 1 32 37
M  V30 37 1 33 38
M  V30 38 1 34 39
M  V30 39 1 38 40
M  V30 40 1 38 41
M  V30 41 1 38 42
M  V30 42 1 39 43
M  V30 43 1 43 44
M  V30 44 1 44 45
M  V30 45 1 45 46
M  V30 46 2 46 47
M  V30 47 2 46 48
M  V30 48 1 46 49
M  V30 49 1 6 7
M  V30 50 1 12 13
M  V30 51 1 25 31
M  V30 52 1 28 33
M  V30 53 1 35 39
M  V30 END BOND
M  V30 BEGIN COLLECTION
M  V30 MDLV30/STEABS ATOMS=(2 8 10)
M  V30 END COLLECTION
M  V30 END CTAB
M  END
>  <Compound ID>
68

>  <Name>
RG7112

>  <Uniprot>
Q00987

>  <Target>
MDM2

>  <Smiles>
CCOC1=CC(C(C)(C)C)=CC=C1C1=N[C@@](C)(C2=CC=C(Cl)C=C2)[C@@](C)(C2=CC=C(Cl)C=C2)N1C(=O)N1CCN(CCCS(C)(=O)=O)CC1

>  <Kd (nM)>
2.9

>  <Assay (Kd)>
SPR

>  <Ki (nM)>


>  <Assay (Ki)>


>  <IC50 (nM)>


>  <Assay (IC50)>


>  <EC50 (nM)>


>  <Assay (EC50)>


>  <Article DOI>
10.1021/jm401753e

>  <Molecular Weight>
727.799

>  <Exact Mass>
726.277332376

>  <XLogP3>
7.27

>  <Heavy Atom Count>
49

>  <Ring Count>
5

>  <Hydrogen Bond Acceptor Count>
6

>  <Hydrogen Bond Donor Count>
0

>  <Rotatable Bond Count>
9

>  <Topological Polar Surface Area>
82.52

>  <Molecular Formula>
C38H48Cl2N4O4S

>  <InChI>
InChI=1S/C38H48Cl2N4O4S/c1-8-48-33-26-29(36(2,3)4)14-19-32(33)34-41-37(5,27-10-15-30(39)16-11-27)38(6,28-12-17-31(40)18-13-28)44(34)35(45)43-23-21-42(22-24-43)20-9-25-49(7,46)47/h10-19,26H,8-9,20-25H2,1-7H3/t37-,38+/m0/s1

>  <InChI Key>
QBGKPEROWUKSBK-QPPIDDCLSA-N

>  <BindingDB>
50434287

>  <PubChem>
57406853

>  <ChEMBL>
CHEMBL2386346

$$$$
Compound 242
Actelion Java MolfileCreator 2.0

  0  0  0  0  0  0              0 V3000
M  V30 BEGIN CTAB
M  V30 COUNTS 42 47 0 0 0
M  V30 BEGIN ATOM
M  V30 1 F 0.0 0.0 0.0 0
M  V30 2 C -1.4564 0.3982 0.0 0
M  V30 3 C -2.5259 -0.6485 0.0 0
M  V30 4 C -1.8546 1.8546 0.0 0
M  V30 5 C -3.9823 -0.2503 0.0 0
M  V30 6 C -3.311 2.2528 0.0 0
M  V30 7 C -4.3805 1.206 0.0 0
M  V30 8 N -5.8369 1.6043 0.0 0
M  V30 9 C -6.9065 0.5575 0.0 0
M  V30 10 N -6.531 -0.8761 0.0 0
M  V30 11 N -8.3629 0.9557 0.0 0
M  V30 12 C -7.6005 -1.9229 0.0 0
M  V30 13 C -9.4324 -0.091 0.0 0
M  V30 14 N -7.2251 -3.3565 0.0 0
M  V30 15 C -9.0569 -1.5246 0.0 0
M  V30 16 C -10.8888 0.3072 0.0 0
M  V30 17 C -8.2946 -4.4033 0.0 0
M  V30 18 C -5.7914 -3.732 0.0 0
M  V30 19 C -10.1265 -2.5714 0.0 0
M  V30 20 N -11.9584 -0.7395 0.0 0
M  V30 21 C -7.9191 -5.8369 0.0 0
M  V30 22 C -5.4159 -5.1656 0.0 0
M  V30 23 C -11.5829 -2.1732 0.0 0
M  V30 24 C -6.4855 -6.2124 0.0 0
M  V30 25 N -12.6524 -3.22 0.0 0
M  V30 26 C -6.11 -7.6461 0.0 0
M  V30 27 C -14.1088 -2.8217 0.0 0
M  V30 28 O -7.1796 -8.6928 0.0 0
M  V30 29 N -14.5071 -1.3653 0.0 0
M  V30 30 C -15.1784 -3.8685 0.0 0
M  V30 31 C -15.9635 -0.9671 0.0 0
M  V30 32 C -16.6348 -3.4703 0.0 0
M  V30 33 C -17.033 -2.0139 0.0 0
M  V30 34 N -18.4894 -1.6156 0.0 0
M  V30 35 C -18.8877 -0.1592 0.0 0
M  V30 36 C -19.559 -2.6624 0.0 0
M  V30 37 C -20.3441 0.2389 0.0 0
M  V30 38 C -21.0154 -2.2642 0.0 0
M  V30 39 C -21.4136 -0.8078 0.0 0
M  V30 40 N -22.87 -0.4096 0.0 0
M  V30 41 C -23.2682 1.0467 0.0 0
M  V30 42 C -23.9395 -1.4564 0.0 0
M  V30 END ATOM
M  V30 BEGIN BOND
M  V30 1 1 1 2
M  V30 2 2 2 3
M  V30 3 1 2 4
M  V30 4 1 3 5
M  V30 5 2 4 6
M  V30 6 2 5 7
M  V30 7 1 7 8
M  V30 8 1 8 9
M  V30 9 1 9 10
M  V30 10 2 9 11
M  V30 11 2 10 12
M  V30 12 1 11 13
M  V30 13 1 12 14
M  V30 14 1 12 15
M  V30 15 2 13 16
M  V30 16 1 14 17
M  V30 17 1 14 18
M  V30 18 2 15 19
M  V30 19 1 16 20
M  V30 20 1 17 21
M  V30 21 1 18 22
M  V30 22 1 19 23
M  V30 23 1 21 24
M  V30 24 1 23 25
M  V30 25 1 24 26
M  V30 26 1 25 27
M  V30 27 1 26 28
M  V30 28 2 27 29
M  V30 29 1 27 30
M  V30 30 1 29 31
M  V30 31 2 30 32
M  V30 32 2 31 33
M  V30 33 1 33 34
M  V30 34 1 34 35
M  V30 35 1 34 36
M  V30 36 1 35 37
M  V30 37 1 36 38
M  V30 38 1 37 39
M  V30 39 1 39 40
M  V30 40 1 40 41
M  V30 41 1 40 42
M  V30 42 1 6 7
M  V30 43 1 13 15
M  V30 44 2 20 23
M  V30 45 1 22 24
M  V30 46 1 32 33
M  V30 47 1 38 39
M  V30 END BOND
M  V30 END CTAB
M  END
>  <Compound ID>
69

>  <Name>
B30

>  <Uniprot>
P00533

>  <Target>
EGFR

>  <Smiles>
CN(C)C1CCN(C2=CC=C(NC3=CC4=C(N5CCC(CO)CC5)N=C(NC5=CC=C(F)C=C5)N=C4C=N3)N=C2)CC1

>  <Kd (nM)>


>  <Assay (Kd)>


>  <Ki (nM)>


>  <Assay (Ki)>


>  <IC50 (nM)>
10.4/1.1/7.2/34

>  <Assay (IC50)>
IC50 of EGFR WT/L858R(L858R/T790M/C797S)/(L858R/T790M) was assessed by Kinase-Glo Plus luminescence kinase assay kit

>  <EC50 (nM)>


>  <Assay (EC50)>


>  <Article DOI>
10.1016/j.ejmech.2018.02.051

>  <Molecular Weight>
571.705

>  <Exact Mass>
571.318335056

>  <XLogP3>
4.82

>  <Heavy Atom Count>
42

>  <Ring Count>
6

>  <Hydrogen Bond Acceptor Count>
10

>  <Hydrogen Bond Donor Count>
3

>  <Rotatable Bond Count>
8

>  <Topological Polar Surface Area>
105.57

>  <Molecular Formula>
C31H38FN9O

>  <InChI>
InChI=1S/C31H38FN9O/c1-39(2)24-11-15-40(16-12-24)25-7-8-28(33-18-25)37-29-17-26-27(19-34-29)36-31(35-23-5-3-22(32)4-6-23)38-30(26)41-13-9-21(20-42)10-14-41/h3-8,17-19,21,24,42H,9-16,20H2,1-2H3,(H,33,34,37)(H,35,36,38)

>  <InChI Key>
DXOUQSZKEPSXBC-UHFFFAOYSA-N

>  <BindingDB>
50458062

>  <PubChem>
134817166

>  <ChEMBL>
CHEMBL4209019

$$$$
Compound 243
Actelion Java MolfileCreator 2.0

  0  0  0  0  0  0              0 V3000
M  V30 BEGIN CTAB
M  V30 COUNTS 39 43 0 0 0
M  V30 BEGIN ATOM
M  V30 1 O 0.0 0.0 0.0 0
M  V30 2 C 1.4891 -0.0354 0.0 0
M  V30 3 N 2.2691 1.2527 0.0 0
M  V30 4 C 2.1864 -1.3473 0.0 0
M  V30 5 C 3.7583 1.2173 0.0 0
M  V30 6 C 1.5482 2.5882 0.0 0
M  V30 7 C 3.6756 -1.3827 0.0 0
M  V30 8 N 4.5383 2.5055 0.0 0
M  V30 9 C 4.4556 -0.0945 0.0 0
M  V30 10 C 0.0354 2.6473 0.0 0
M  V30 11 C 2.3282 3.8765 0.0 0
M  V30 12 C 4.3729 -2.6946 0.0 0
M  V30 13 C 6.0275 2.4701 0.0 0
M  V30 14 C 5.9447 -0.13 0.0 0
M  V30 15 C -0.6854 3.9828 0.0 0
M  V30 16 C 1.6073 5.212 0.0 0
M  V30 17 N 6.7248 1.1582 0.0 0
M  V30 18 N 6.8075 3.7583 0.0 0
M  V30 19 N -2.1982 4.0419 0.0 0
M  V30 20 C 0.0945 5.2711 0.0 0
M  V30 21 C 8.2967 3.7228 0.0 0
M  V30 22 C -2.9192 5.3774 0.0 0
M  V30 23 C 9.0767 5.0111 0.0 0
M  V30 24 C 8.994 2.411 0.0 0
M  V30 25 O -2.1391 6.6657 0.0 0
M  V30 26 C -4.432 5.4365 0.0 0
M  V30 27 O 8.3558 6.3466 0.0 0
M  V30 28 C 10.5658 4.9756 0.0 0
M  V30 29 C 10.4831 2.3755 0.0 0
M  V30 30 C -5.1529 6.772 0.0 0
M  V30 31 C 9.1358 7.6348 0.0 0
M  V30 32 C 11.2631 3.6637 0.0 0
M  V30 33 N 12.7523 3.6283 0.0 0
M  V30 34 C 13.4496 2.3164 0.0 0
M  V30 35 C 13.5323 4.9165 0.0 0
M  V30 36 C 14.9388 2.281 0.0 0
M  V30 37 C 15.0215 4.8811 0.0 0
M  V30 38 N 15.7188 3.5692 0.0 0
M  V30 39 C 17.2079 3.5337 0.0 0
M  V30 END ATOM
M  V30 BEGIN BOND
M  V30 1 2 1 2
M  V30 2 1 2 3
M  V30 3 1 2 4
M  V30 4 1 3 5
M  V30 5 1 3 6
M  V30 6 2 4 7
M  V30 7 2 5 8
M  V30 8 1 5 9
M  V30 9 2 6 10
M  V30 10 1 6 11
M  V30 11 1 7 12
M  V30 12 1 8 13
M  V30 13 2 9 14
M  V30 14 1 10 15
M  V30 15 2 11 16
M  V30 16 2 13 17
M  V30 17 1 13 18
M  V30 18 1 15 19
M  V30 19 2 15 20
M  V30 20 1 18 21
M  V30 21 1 19 22
M  V30 22 2 21 23
M  V30 23 1 21 24
M  V30 24 2 22 25
M  V30 25 1 22 26
M  V30 26 1 23 27
M  V30 27 1 23 28
M  V30 28 2 24 29
M  V30 29 2 26 30
M  V30 30 1 27 31
M  V30 31 2 28 32
M  V30 32 1 32 33
M  V30 33 1 33 34
M  V30 34 1 33 35
M  V30 35 1 34 36
M  V30 36 1 35 37
M  V30 37 1 36 38
M  V30 38 1 38 39
M  V30 39 1 7 9
M  V30 40 1 14 17
M  V30 41 1 16 20
M  V30 42 1 29 32
M  V30 43 1 37 38
M  V30 END BOND
M  V30 END CTAB
M  END
>  <Compound ID>
70

>  <Name>
XTF-262

>  <Uniprot>
P00533

>  <Target>
EGFR L858R/T790M

>  <Smiles>
C=CC(=O)NC1=CC=CC(N2C(=O)C=C(C)C3=CN=C(NC4=CC=C(N5CCN(C)CC5)C=C4OC)N=C32)=C1

>  <Kd (nM)>
0.26

>  <Assay (Kd)>
Kd was assessed by DiscoveRx

>  <Ki (nM)>


>  <Assay (Ki)>


>  <IC50 (nM)>
0.8

>  <Assay (IC50)>
IC50 was assessed by ELISA

>  <EC50 (nM)>


>  <Assay (EC50)>


>  <Article DOI>
10.1039/C5MD00208G

>  <Molecular Weight>
525.613

>  <Exact Mass>
525.248837852

>  <XLogP3>
3.15

>  <Heavy Atom Count>
39

>  <Ring Count>
5

>  <Hydrogen Bond Acceptor Count>
9

>  <Hydrogen Bond Donor Count>
2

>  <Rotatable Bond Count>
7

>  <Topological Polar Surface Area>
104.62

>  <Molecular Formula>
C29H31N7O3

>  <InChI>
InChI=1S/C29H31N7O3/c1-5-26(37)31-20-7-6-8-22(16-20)36-27(38)15-19(2)23-18-30-29(33-28(23)36)32-24-10-9-21(17-25(24)39-4)35-13-11-34(3)12-14-35/h5-10,15-18H,1,11-14H2,2-4H3,(H,31,37)(H,30,32,33)

>  <InChI Key>
VJQPNQROUWVJQN-UHFFFAOYSA-N

>  <BindingDB>
50131841

>  <PubChem>
72201501

>  <ChEMBL>
CHEMBL3633143

$$$$
Compound 244
Actelion Java MolfileCreator 2.0

  0  0  0  0  0  0              0 V3000
M  V30 BEGIN CTAB
M  V30 COUNTS 39 43 0 0 0
M  V30 BEGIN ATOM
M  V30 1 O 0.0 0.0 0.0 0
M  V30 2 C 1.4891 -0.0354 0.0 0
M  V30 3 N 2.2691 1.2527 0.0 0
M  V30 4 C 2.1864 -1.3473 0.0 0
M  V30 5 C 3.7583 1.2173 0.0 0
M  V30 6 C 1.5482 2.5882 0.0 0
M  V30 7 C 3.6756 -1.3827 0.0 0
M  V30 8 N 4.5383 2.5055 0.0 0
M  V30 9 C 4.4556 -0.0945 0.0 0
M  V30 10 C 0.0354 2.6473 0.0 0
M  V30 11 C 2.3282 3.8765 0.0 0
M  V30 12 C 4.3729 -2.6946 0.0 0
M  V30 13 C 6.0275 2.4701 0.0 0
M  V30 14 C 5.9447 -0.13 0.0 0
M  V30 15 C -0.6854 3.9828 0.0 0
M  V30 16 C 1.6073 5.212 0.0 0
M  V30 17 N 6.7248 1.1582 0.0 0
M  V30 18 N 6.8075 3.7583 0.0 0
M  V30 19 N -2.1982 4.0419 0.0 0
M  V30 20 C 0.0945 5.2711 0.0 0
M  V30 21 C 8.2967 3.7228 0.0 0
M  V30 22 C -2.9192 5.3774 0.0 0
M  V30 23 C 9.0767 5.0111 0.0 0
M  V30 24 C 8.994 2.411 0.0 0
M  V30 25 O -2.1391 6.6657 0.0 0
M  V30 26 C -4.432 5.4365 0.0 0
M  V30 27 O 8.3558 6.3466 0.0 0
M  V30 28 C 10.5658 4.9756 0.0 0
M  V30 29 C 10.4831 2.3755 0.0 0
M  V30 30 C -5.1529 6.772 0.0 0
M  V30 31 C 9.1358 7.6348 0.0 0
M  V30 32 C 11.2631 3.6637 0.0 0
M  V30 33 N 12.7523 3.6283 0.0 0
M  V30 34 C 13.4496 2.3164 0.0 0
M  V30 35 C 13.5323 4.9165 0.0 0
M  V30 36 C 14.9388 2.281 0.0 0
M  V30 37 C 15.0215 4.8811 0.0 0
M  V30 38 N 15.7188 3.5692 0.0 0
M  V30 39 C 17.2079 3.5337 0.0 0
M  V30 END ATOM
M  V30 BEGIN BOND
M  V30 1 2 1 2
M  V30 2 1 2 3
M  V30 3 1 2 4
M  V30 4 1 3 5
M  V30 5 1 3 6
M  V30 6 2 4 7
M  V30 7 2 5 8
M  V30 8 1 5 9
M  V30 9 2 6 10
M  V30 10 1 6 11
M  V30 11 1 7 12
M  V30 12 1 8 13
M  V30 13 2 9 14
M  V30 14 1 10 15
M  V30 15 2 11 16
M  V30 16 2 13 17
M  V30 17 1 13 18
M  V30 18 1 15 19
M  V30 19 2 15 20
M  V30 20 1 18 21
M  V30 21 1 19 22
M  V30 22 2 21 23
M  V30 23 1 21 24
M  V30 24 2 22 25
M  V30 25 1 22 26
M  V30 26 1 23 27
M  V30 27 1 23 28
M  V30 28 2 24 29
M  V30 29 2 26 30
M  V30 30 1 27 31
M  V30 31 2 28 32
M  V30 32 1 32 33
M  V30 33 1 33 34
M  V30 34 1 33 35
M  V30 35 1 34 36
M  V30 36 1 35 37
M  V30 37 1 36 38
M  V30 38 1 38 39
M  V30 39 1 7 9
M  V30 40 1 14 17
M  V30 41 1 16 20
M  V30 42 1 29 32
M  V30 43 1 37 38
M  V30 END BOND
M  V30 END CTAB
M  END
>  <Compound ID>
70

>  <Name>
XTF-262

>  <Uniprot>
P00533

>  <Target>
EGFR

>  <Smiles>
C=CC(=O)NC1=CC=CC(N2C(=O)C=C(C)C3=CN=C(NC4=CC=C(N5CCN(C)CC5)C=C4OC)N=C32)=C1

>  <Kd (nM)>
48

>  <Assay (Kd)>
Kd was assessed by DiscoveRx

>  <Ki (nM)>


>  <Assay (Ki)>


>  <IC50 (nM)>
240

>  <Assay (IC50)>
IC50 was assessed by ELISA

>  <EC50 (nM)>


>  <Assay (EC50)>


>  <Article DOI>
10.1039/C5MD00208G

>  <Molecular Weight>
525.613

>  <Exact Mass>
525.248837852

>  <XLogP3>
3.15

>  <Heavy Atom Count>
39

>  <Ring Count>
5

>  <Hydrogen Bond Acceptor Count>
9

>  <Hydrogen Bond Donor Count>
2

>  <Rotatable Bond Count>
7

>  <Topological Polar Surface Area>
104.62

>  <Molecular Formula>
C29H31N7O3

>  <InChI>
InChI=1S/C29H31N7O3/c1-5-26(37)31-20-7-6-8-22(16-20)36-27(38)15-19(2)23-18-30-29(33-28(23)36)32-24-10-9-21(17-25(24)39-4)35-13-11-34(3)12-14-35/h5-10,15-18H,1,11-14H2,2-4H3,(H,31,37)(H,30,32,33)

>  <InChI Key>
VJQPNQROUWVJQN-UHFFFAOYSA-N

>  <BindingDB>
50131841

>  <PubChem>
72201501

>  <ChEMBL>
CHEMBL3633143

$$$$
Compound 245
Actelion Java MolfileCreator 2.0

  0  0  0  0  0  0              0 V3000
M  V30 BEGIN CTAB
M  V30 COUNTS 25 27 0 0 0
M  V30 BEGIN ATOM
M  V30 1 Cl 0.0 0.0 0.0 0
M  V30 2 C 0.872 -1.2138 0.0 0
M  V30 3 C 2.3569 -1.0488 0.0 0
M  V30 4 C 0.2474 -2.569 0.0 0
M  V30 5 C 3.229 -2.2626 0.0 0
M  V30 6 C 2.9579 0.3299 0.0 0
M  V30 7 C 1.1195 -3.7829 0.0 0
M  V30 8 Cl 4.7138 -2.0976 0.0 0
M  V30 9 C 2.6044 -3.6179 0.0 0
M  V30 10 O 2.0623 1.5673 0.0 0
M  V30 11 N 4.4428 0.4949 0.0 0
M  V30 12 C 5.0438 1.8737 0.0 0
M  V30 13 C 6.5051 2.1919 0.0 0
M  V30 14 C 4.2896 3.1936 0.0 0
M  V30 15 N 6.6583 3.7004 0.0 0
M  V30 16 C 7.6129 1.1902 0.0 0
M  V30 17 N 5.2913 4.325 0.0 0
M  V30 18 O 9.0388 1.6616 0.0 0
M  V30 19 N 7.2829 -0.271 0.0 0
M  V30 20 C 8.3907 -1.2727 0.0 0
M  V30 21 C 8.0607 -2.734 0.0 0
M  V30 22 C 9.8166 -0.8013 0.0 0
M  V30 23 C 9.1685 -3.7357 0.0 0
M  V30 24 C 10.9244 -1.803 0.0 0
M  V30 25 N 10.5944 -3.2643 0.0 0
M  V30 END ATOM
M  V30 BEGIN BOND
M  V30 1 1 1 2
M  V30 2 2 2 3
M  V30 3 1 2 4
M  V30 4 1 3 5
M  V30 5 1 3 6
M  V30 6 2 4 7
M  V30 7 1 5 8
M  V30 8 2 5 9
M  V30 9 2 6 10
M  V30 10 1 6 11
M  V30 11 1 11 12
M  V30 12 2 12 13
M  V30 13 1 12 14
M  V30 14 1 13 15
M  V30 15 1 13 16
M  V30 16 2 14 17
M  V30 17 2 16 18
M  V30 18 1 16 19
M  V30 19 1 19 20
M  V30 20 1 20 21
M  V30 21 1 20 22
M  V30 22 1 21 23
M  V30 23 1 22 24
M  V30 24 1 23 25
M  V30 25 1 7 9
M  V30 26 1 15 17
M  V30 27 1 24 25
M  V30 END BOND
M  V30 END CTAB
M  END
>  <Compound ID>
71

>  <Name>
AT-7519

>  <Uniprot>
O14965

>  <Target>
AURKA

>  <Smiles>
O=C(NC1CCNCC1)C1=C(NC(=O)C2=C(Cl)C=CC=C2Cl)C=N[NH]1

>  <Kd (nM)>
>10000

>  <Assay (Kd)>
Kd was assessed by competition binding assays

>  <Ki (nM)>


>  <Assay (Ki)>


>  <IC50 (nM)>


>  <Assay (IC50)>


>  <EC50 (nM)>


>  <Assay (EC50)>


>  <Article DOI>
10.1038/nbt.1990

>  <Molecular Weight>
382.251

>  <Exact Mass>
381.075930144

>  <XLogP3>
2.59

>  <Heavy Atom Count>
25

>  <Ring Count>
3

>  <Hydrogen Bond Acceptor Count>
4

>  <Hydrogen Bond Donor Count>
4

>  <Rotatable Bond Count>
4

>  <Topological Polar Surface Area>
98.91

>  <Molecular Formula>
C16H17Cl2N5O2

>  <InChI>
InChI=1S/C16H17Cl2N5O2/c17-10-2-1-3-11(18)13(10)15(24)22-12-8-20-23-14(12)16(25)21-9-4-6-19-7-5-9/h1-3,8-9,19H,4-7H2,(H,20,23)(H,21,25)(H,22,24)

>  <InChI Key>
OVPNQJVDAFNBDN-UHFFFAOYSA-N

>  <BindingDB>
24654

>  <PubChem>
11338033

>  <ChEMBL>
CHEMBL445813

$$$$
Compound 246
Actelion Java MolfileCreator 2.0

  0  0  0  0  0  0              0 V3000
M  V30 BEGIN CTAB
M  V30 COUNTS 25 27 0 0 0
M  V30 BEGIN ATOM
M  V30 1 Cl 0.0 0.0 0.0 0
M  V30 2 C 0.872 -1.2138 0.0 0
M  V30 3 C 2.3569 -1.0488 0.0 0
M  V30 4 C 0.2474 -2.569 0.0 0
M  V30 5 C 3.229 -2.2626 0.0 0
M  V30 6 C 2.9579 0.3299 0.0 0
M  V30 7 C 1.1195 -3.7829 0.0 0
M  V30 8 Cl 4.7138 -2.0976 0.0 0
M  V30 9 C 2.6044 -3.6179 0.0 0
M  V30 10 O 2.0623 1.5673 0.0 0
M  V30 11 N 4.4428 0.4949 0.0 0
M  V30 12 C 5.0438 1.8737 0.0 0
M  V30 13 C 6.5051 2.1919 0.0 0
M  V30 14 C 4.2896 3.1936 0.0 0
M  V30 15 N 6.6583 3.7004 0.0 0
M  V30 16 C 7.6129 1.1902 0.0 0
M  V30 17 N 5.2913 4.325 0.0 0
M  V30 18 O 9.0388 1.6616 0.0 0
M  V30 19 N 7.2829 -0.271 0.0 0
M  V30 20 C 8.3907 -1.2727 0.0 0
M  V30 21 C 8.0607 -2.734 0.0 0
M  V30 22 C 9.8166 -0.8013 0.0 0
M  V30 23 C 9.1685 -3.7357 0.0 0
M  V30 24 C 10.9244 -1.803 0.0 0
M  V30 25 N 10.5944 -3.2643 0.0 0
M  V30 END ATOM
M  V30 BEGIN BOND
M  V30 1 1 1 2
M  V30 2 2 2 3
M  V30 3 1 2 4
M  V30 4 1 3 5
M  V30 5 1 3 6
M  V30 6 2 4 7
M  V30 7 1 5 8
M  V30 8 2 5 9
M  V30 9 2 6 10
M  V30 10 1 6 11
M  V30 11 1 11 12
M  V30 12 2 12 13
M  V30 13 1 12 14
M  V30 14 1 13 15
M  V30 15 1 13 16
M  V30 16 2 14 17
M  V30 17 2 16 18
M  V30 18 1 16 19
M  V30 19 1 19 20
M  V30 20 1 20 21
M  V30 21 1 20 22
M  V30 22 1 21 23
M  V30 23 1 22 24
M  V30 24 1 23 25
M  V30 25 1 7 9
M  V30 26 1 15 17
M  V30 27 1 24 25
M  V30 END BOND
M  V30 END CTAB
M  END
>  <Compound ID>
71

>  <Name>
AT-7519

>  <Uniprot>
O60566

>  <Target>
BUB1B

>  <Smiles>
O=C(NC1CCNCC1)C1=C(NC(=O)C2=C(Cl)C=CC=C2Cl)C=N[NH]1

>  <Kd (nM)>


>  <Assay (Kd)>


>  <Ki (nM)>


>  <Assay (Ki)>


>  <IC50 (nM)>


>  <Assay (IC50)>


>  <EC50 (nM)>


>  <Assay (EC50)>


>  <Article DOI>
10.1016/j.cell.2020.10.038

>  <Molecular Weight>
382.251

>  <Exact Mass>
381.075930144

>  <XLogP3>
2.59

>  <Heavy Atom Count>
25

>  <Ring Count>
3

>  <Hydrogen Bond Acceptor Count>
4

>  <Hydrogen Bond Donor Count>
4

>  <Rotatable Bond Count>
4

>  <Topological Polar Surface Area>
98.91

>  <Molecular Formula>
C16H17Cl2N5O2

>  <InChI>
InChI=1S/C16H17Cl2N5O2/c17-10-2-1-3-11(18)13(10)15(24)22-12-8-20-23-14(12)16(25)21-9-4-6-19-7-5-9/h1-3,8-9,19H,4-7H2,(H,20,23)(H,21,25)(H,22,24)

>  <InChI Key>
OVPNQJVDAFNBDN-UHFFFAOYSA-N

>  <BindingDB>
24654

>  <PubChem>
11338033

>  <ChEMBL>
CHEMBL445813

$$$$
Compound 247
Actelion Java MolfileCreator 2.0

  0  0  0  0  0  0              0 V3000
M  V30 BEGIN CTAB
M  V30 COUNTS 25 27 0 0 0
M  V30 BEGIN ATOM
M  V30 1 Cl 0.0 0.0 0.0 0
M  V30 2 C 0.872 -1.2138 0.0 0
M  V30 3 C 2.3569 -1.0488 0.0 0
M  V30 4 C 0.2474 -2.569 0.0 0
M  V30 5 C 3.229 -2.2626 0.0 0
M  V30 6 C 2.9579 0.3299 0.0 0
M  V30 7 C 1.1195 -3.7829 0.0 0
M  V30 8 Cl 4.7138 -2.0976 0.0 0
M  V30 9 C 2.6044 -3.6179 0.0 0
M  V30 10 O 2.0623 1.5673 0.0 0
M  V30 11 N 4.4428 0.4949 0.0 0
M  V30 12 C 5.0438 1.8737 0.0 0
M  V30 13 C 6.5051 2.1919 0.0 0
M  V30 14 C 4.2896 3.1936 0.0 0
M  V30 15 N 6.6583 3.7004 0.0 0
M  V30 16 C 7.6129 1.1902 0.0 0
M  V30 17 N 5.2913 4.325 0.0 0
M  V30 18 O 9.0388 1.6616 0.0 0
M  V30 19 N 7.2829 -0.271 0.0 0
M  V30 20 C 8.3907 -1.2727 0.0 0
M  V30 21 C 8.0607 -2.734 0.0 0
M  V30 22 C 9.8166 -0.8013 0.0 0
M  V30 23 C 9.1685 -3.7357 0.0 0
M  V30 24 C 10.9244 -1.803 0.0 0
M  V30 25 N 10.5944 -3.2643 0.0 0
M  V30 END ATOM
M  V30 BEGIN BOND
M  V30 1 1 1 2
M  V30 2 2 2 3
M  V30 3 1 2 4
M  V30 4 1 3 5
M  V30 5 1 3 6
M  V30 6 2 4 7
M  V30 7 1 5 8
M  V30 8 2 5 9
M  V30 9 2 6 10
M  V30 10 1 6 11
M  V30 11 1 11 12
M  V30 12 2 12 13
M  V30 13 1 12 14
M  V30 14 1 13 15
M  V30 15 1 13 16
M  V30 16 2 14 17
M  V30 17 2 16 18
M  V30 18 1 16 19
M  V30 19 1 19 20
M  V30 20 1 20 21
M  V30 21 1 20 22
M  V30 22 1 21 23
M  V30 23 1 22 24
M  V30 24 1 23 25
M  V30 25 1 7 9
M  V30 26 1 15 17
M  V30 27 1 24 25
M  V30 END BOND
M  V30 END CTAB
M  END
>  <Compound ID>
71

>  <Name>
AT-7519

>  <Uniprot>
O43683

>  <Target>
BUB1

>  <Smiles>
O=C(NC1CCNCC1)C1=C(NC(=O)C2=C(Cl)C=CC=C2Cl)C=N[NH]1

>  <Kd (nM)>


>  <Assay (Kd)>


>  <Ki (nM)>


>  <Assay (Ki)>


>  <IC50 (nM)>


>  <Assay (IC50)>


>  <EC50 (nM)>


>  <Assay (EC50)>


>  <Article DOI>
10.1016/j.cell.2020.10.038

>  <Molecular Weight>
382.251

>  <Exact Mass>
381.075930144

>  <XLogP3>
2.59

>  <Heavy Atom Count>
25

>  <Ring Count>
3

>  <Hydrogen Bond Acceptor Count>
4

>  <Hydrogen Bond Donor Count>
4

>  <Rotatable Bond Count>
4

>  <Topological Polar Surface Area>
98.91

>  <Molecular Formula>
C16H17Cl2N5O2

>  <InChI>
InChI=1S/C16H17Cl2N5O2/c17-10-2-1-3-11(18)13(10)15(24)22-12-8-20-23-14(12)16(25)21-9-4-6-19-7-5-9/h1-3,8-9,19H,4-7H2,(H,20,23)(H,21,25)(H,22,24)

>  <InChI Key>
OVPNQJVDAFNBDN-UHFFFAOYSA-N

>  <BindingDB>
24654

>  <PubChem>
11338033

>  <ChEMBL>
CHEMBL445813

$$$$
Compound 248
Actelion Java MolfileCreator 2.0

  0  0  0  0  0  0              0 V3000
M  V30 BEGIN CTAB
M  V30 COUNTS 25 27 0 0 0
M  V30 BEGIN ATOM
M  V30 1 Cl 0.0 0.0 0.0 0
M  V30 2 C 0.872 -1.2138 0.0 0
M  V30 3 C 2.3569 -1.0488 0.0 0
M  V30 4 C 0.2474 -2.569 0.0 0
M  V30 5 C 3.229 -2.2626 0.0 0
M  V30 6 C 2.9579 0.3299 0.0 0
M  V30 7 C 1.1195 -3.7829 0.0 0
M  V30 8 Cl 4.7138 -2.0976 0.0 0
M  V30 9 C 2.6044 -3.6179 0.0 0
M  V30 10 O 2.0623 1.5673 0.0 0
M  V30 11 N 4.4428 0.4949 0.0 0
M  V30 12 C 5.0438 1.8737 0.0 0
M  V30 13 C 6.5051 2.1919 0.0 0
M  V30 14 C 4.2896 3.1936 0.0 0
M  V30 15 N 6.6583 3.7004 0.0 0
M  V30 16 C 7.6129 1.1902 0.0 0
M  V30 17 N 5.2913 4.325 0.0 0
M  V30 18 O 9.0388 1.6616 0.0 0
M  V30 19 N 7.2829 -0.271 0.0 0
M  V30 20 C 8.3907 -1.2727 0.0 0
M  V30 21 C 8.0607 -2.734 0.0 0
M  V30 22 C 9.8166 -0.8013 0.0 0
M  V30 23 C 9.1685 -3.7357 0.0 0
M  V30 24 C 10.9244 -1.803 0.0 0
M  V30 25 N 10.5944 -3.2643 0.0 0
M  V30 END ATOM
M  V30 BEGIN BOND
M  V30 1 1 1 2
M  V30 2 2 2 3
M  V30 3 1 2 4
M  V30 4 1 3 5
M  V30 5 1 3 6
M  V30 6 2 4 7
M  V30 7 1 5 8
M  V30 8 2 5 9
M  V30 9 2 6 10
M  V30 10 1 6 11
M  V30 11 1 11 12
M  V30 12 2 12 13
M  V30 13 1 12 14
M  V30 14 1 13 15
M  V30 15 1 13 16
M  V30 16 2 14 17
M  V30 17 2 16 18
M  V30 18 1 16 19
M  V30 19 1 19 20
M  V30 20 1 20 21
M  V30 21 1 20 22
M  V30 22 1 21 23
M  V30 23 1 22 24
M  V30 24 1 23 25
M  V30 25 1 7 9
M  V30 26 1 15 17
M  V30 27 1 24 25
M  V30 END BOND
M  V30 END CTAB
M  END
>  <Compound ID>
71

>  <Name>
AT-7519

>  <Uniprot>
Q9UQ88

>  <Target>
CDK11A

>  <Smiles>
O=C(NC1CCNCC1)C1=C(NC(=O)C2=C(Cl)C=CC=C2Cl)C=N[NH]1

>  <Kd (nM)>
5.2

>  <Assay (Kd)>
Kd was assessed by competition binding assays

>  <Ki (nM)>


>  <Assay (Ki)>


>  <IC50 (nM)>


>  <Assay (IC50)>


>  <EC50 (nM)>


>  <Assay (EC50)>


>  <Article DOI>
10.1038/nbt.1990

>  <Molecular Weight>
382.251

>  <Exact Mass>
381.075930144

>  <XLogP3>
2.59

>  <Heavy Atom Count>
25

>  <Ring Count>
3

>  <Hydrogen Bond Acceptor Count>
4

>  <Hydrogen Bond Donor Count>
4

>  <Rotatable Bond Count>
4

>  <Topological Polar Surface Area>
98.91

>  <Molecular Formula>
C16H17Cl2N5O2

>  <InChI>
InChI=1S/C16H17Cl2N5O2/c17-10-2-1-3-11(18)13(10)15(24)22-12-8-20-23-14(12)16(25)21-9-4-6-19-7-5-9/h1-3,8-9,19H,4-7H2,(H,20,23)(H,21,25)(H,22,24)

>  <InChI Key>
OVPNQJVDAFNBDN-UHFFFAOYSA-N

>  <BindingDB>
24654

>  <PubChem>
11338033

>  <ChEMBL>
CHEMBL445813

$$$$
Compound 249
Actelion Java MolfileCreator 2.0

  0  0  0  0  0  0              0 V3000
M  V30 BEGIN CTAB
M  V30 COUNTS 25 27 0 0 0
M  V30 BEGIN ATOM
M  V30 1 Cl 0.0 0.0 0.0 0
M  V30 2 C 0.872 -1.2138 0.0 0
M  V30 3 C 2.3569 -1.0488 0.0 0
M  V30 4 C 0.2474 -2.569 0.0 0
M  V30 5 C 3.229 -2.2626 0.0 0
M  V30 6 C 2.9579 0.3299 0.0 0
M  V30 7 C 1.1195 -3.7829 0.0 0
M  V30 8 Cl 4.7138 -2.0976 0.0 0
M  V30 9 C 2.6044 -3.6179 0.0 0
M  V30 10 O 2.0623 1.5673 0.0 0
M  V30 11 N 4.4428 0.4949 0.0 0
M  V30 12 C 5.0438 1.8737 0.0 0
M  V30 13 C 6.5051 2.1919 0.0 0
M  V30 14 C 4.2896 3.1936 0.0 0
M  V30 15 N 6.6583 3.7004 0.0 0
M  V30 16 C 7.6129 1.1902 0.0 0
M  V30 17 N 5.2913 4.325 0.0 0
M  V30 18 O 9.0388 1.6616 0.0 0
M  V30 19 N 7.2829 -0.271 0.0 0
M  V30 20 C 8.3907 -1.2727 0.0 0
M  V30 21 C 8.0607 -2.734 0.0 0
M  V30 22 C 9.8166 -0.8013 0.0 0
M  V30 23 C 9.1685 -3.7357 0.0 0
M  V30 24 C 10.9244 -1.803 0.0 0
M  V30 25 N 10.5944 -3.2643 0.0 0
M  V30 END ATOM
M  V30 BEGIN BOND
M  V30 1 1 1 2
M  V30 2 2 2 3
M  V30 3 1 2 4
M  V30 4 1 3 5
M  V30 5 1 3 6
M  V30 6 2 4 7
M  V30 7 1 5 8
M  V30 8 2 5 9
M  V30 9 2 6 10
M  V30 10 1 6 11
M  V30 11 1 11 12
M  V30 12 2 12 13
M  V30 13 1 12 14
M  V30 14 1 13 15
M  V30 15 1 13 16
M  V30 16 2 14 17
M  V30 17 2 16 18
M  V30 18 1 16 19
M  V30 19 1 19 20
M  V30 20 1 20 21
M  V30 21 1 20 22
M  V30 22 1 21 23
M  V30 23 1 22 24
M  V30 24 1 23 25
M  V30 25 1 7 9
M  V30 26 1 15 17
M  V30 27 1 24 25
M  V30 END BOND
M  V30 END CTAB
M  END
>  <Compound ID>
71

>  <Name>
AT-7519

>  <Uniprot>
Q14004

>  <Target>
CDK13

>  <Smiles>
O=C(NC1CCNCC1)C1=C(NC(=O)C2=C(Cl)C=CC=C2Cl)C=N[NH]1

>  <Kd (nM)>
3.2

>  <Assay (Kd)>
Kd was assessed by competition binding assays

>  <Ki (nM)>


>  <Assay (Ki)>


>  <IC50 (nM)>


>  <Assay (IC50)>


>  <EC50 (nM)>


>  <Assay (EC50)>


>  <Article DOI>
10.1038/nbt.1990

>  <Molecular Weight>
382.251

>  <Exact Mass>
381.075930144

>  <XLogP3>
2.59

>  <Heavy Atom Count>
25

>  <Ring Count>
3

>  <Hydrogen Bond Acceptor Count>
4

>  <Hydrogen Bond Donor Count>
4

>  <Rotatable Bond Count>
4

>  <Topological Polar Surface Area>
98.91

>  <Molecular Formula>
C16H17Cl2N5O2

>  <InChI>
InChI=1S/C16H17Cl2N5O2/c17-10-2-1-3-11(18)13(10)15(24)22-12-8-20-23-14(12)16(25)21-9-4-6-19-7-5-9/h1-3,8-9,19H,4-7H2,(H,20,23)(H,21,25)(H,22,24)

>  <InChI Key>
OVPNQJVDAFNBDN-UHFFFAOYSA-N

>  <BindingDB>
24654

>  <PubChem>
11338033

>  <ChEMBL>
CHEMBL445813

$$$$
Compound 250
Actelion Java MolfileCreator 2.0

  0  0  0  0  0  0              0 V3000
M  V30 BEGIN CTAB
M  V30 COUNTS 25 27 0 0 0
M  V30 BEGIN ATOM
M  V30 1 Cl 0.0 0.0 0.0 0
M  V30 2 C 0.872 -1.2138 0.0 0
M  V30 3 C 2.3569 -1.0488 0.0 0
M  V30 4 C 0.2474 -2.569 0.0 0
M  V30 5 C 3.229 -2.2626 0.0 0
M  V30 6 C 2.9579 0.3299 0.0 0
M  V30 7 C 1.1195 -3.7829 0.0 0
M  V30 8 Cl 4.7138 -2.0976 0.0 0
M  V30 9 C 2.6044 -3.6179 0.0 0
M  V30 10 O 2.0623 1.5673 0.0 0
M  V30 11 N 4.4428 0.4949 0.0 0
M  V30 12 C 5.0438 1.8737 0.0 0
M  V30 13 C 6.5051 2.1919 0.0 0
M  V30 14 C 4.2896 3.1936 0.0 0
M  V30 15 N 6.6583 3.7004 0.0 0
M  V30 16 C 7.6129 1.1902 0.0 0
M  V30 17 N 5.2913 4.325 0.0 0
M  V30 18 O 9.0388 1.6616 0.0 0
M  V30 19 N 7.2829 -0.271 0.0 0
M  V30 20 C 8.3907 -1.2727 0.0 0
M  V30 21 C 8.0607 -2.734 0.0 0
M  V30 22 C 9.8166 -0.8013 0.0 0
M  V30 23 C 9.1685 -3.7357 0.0 0
M  V30 24 C 10.9244 -1.803 0.0 0
M  V30 25 N 10.5944 -3.2643 0.0 0
M  V30 END ATOM
M  V30 BEGIN BOND
M  V30 1 1 1 2
M  V30 2 2 2 3
M  V30 3 1 2 4
M  V30 4 1 3 5
M  V30 5 1 3 6
M  V30 6 2 4 7
M  V30 7 1 5 8
M  V30 8 2 5 9
M  V30 9 2 6 10
M  V30 10 1 6 11
M  V30 11 1 11 12
M  V30 12 2 12 13
M  V30 13 1 12 14
M  V30 14 1 13 15
M  V30 15 1 13 16
M  V30 16 2 14 17
M  V30 17 2 16 18
M  V30 18 1 16 19
M  V30 19 1 19 20
M  V30 20 1 20 21
M  V30 21 1 20 22
M  V30 22 1 21 23
M  V30 23 1 22 24
M  V30 24 1 23 25
M  V30 25 1 7 9
M  V30 26 1 15 17
M  V30 27 1 24 25
M  V30 END BOND
M  V30 END CTAB
M  END
>  <Compound ID>
71

>  <Name>
AT-7519

>  <Uniprot>
O94921

>  <Target>
CDK14

>  <Smiles>
O=C(NC1CCNCC1)C1=C(NC(=O)C2=C(Cl)C=CC=C2Cl)C=N[NH]1

>  <Kd (nM)>


>  <Assay (Kd)>


>  <Ki (nM)>


>  <Assay (Ki)>


>  <IC50 (nM)>
19.8

>  <Assay (IC50)>
Inhibition of CDK14/cyclin Y by Lantha screen eu binding assay

>  <EC50 (nM)>


>  <Assay (EC50)>


>  <Article DOI>
10.1016/j.bmcl.2019.05.024

>  <Molecular Weight>
382.251

>  <Exact Mass>
381.075930144

>  <XLogP3>
2.59

>  <Heavy Atom Count>
25

>  <Ring Count>
3

>  <Hydrogen Bond Acceptor Count>
4

>  <Hydrogen Bond Donor Count>
4

>  <Rotatable Bond Count>
4

>  <Topological Polar Surface Area>
98.91

>  <Molecular Formula>
C16H17Cl2N5O2

>  <InChI>
InChI=1S/C16H17Cl2N5O2/c17-10-2-1-3-11(18)13(10)15(24)22-12-8-20-23-14(12)16(25)21-9-4-6-19-7-5-9/h1-3,8-9,19H,4-7H2,(H,20,23)(H,21,25)(H,22,24)

>  <InChI Key>
OVPNQJVDAFNBDN-UHFFFAOYSA-N

>  <BindingDB>
24654

>  <PubChem>
11338033

>  <ChEMBL>
CHEMBL445813

$$$$
Compound 251
Actelion Java MolfileCreator 2.0

  0  0  0  0  0  0              0 V3000
M  V30 BEGIN CTAB
M  V30 COUNTS 25 27 0 0 0
M  V30 BEGIN ATOM
M  V30 1 Cl 0.0 0.0 0.0 0
M  V30 2 C 0.872 -1.2138 0.0 0
M  V30 3 C 2.3569 -1.0488 0.0 0
M  V30 4 C 0.2474 -2.569 0.0 0
M  V30 5 C 3.229 -2.2626 0.0 0
M  V30 6 C 2.9579 0.3299 0.0 0
M  V30 7 C 1.1195 -3.7829 0.0 0
M  V30 8 Cl 4.7138 -2.0976 0.0 0
M  V30 9 C 2.6044 -3.6179 0.0 0
M  V30 10 O 2.0623 1.5673 0.0 0
M  V30 11 N 4.4428 0.4949 0.0 0
M  V30 12 C 5.0438 1.8737 0.0 0
M  V30 13 C 6.5051 2.1919 0.0 0
M  V30 14 C 4.2896 3.1936 0.0 0
M  V30 15 N 6.6583 3.7004 0.0 0
M  V30 16 C 7.6129 1.1902 0.0 0
M  V30 17 N 5.2913 4.325 0.0 0
M  V30 18 O 9.0388 1.6616 0.0 0
M  V30 19 N 7.2829 -0.271 0.0 0
M  V30 20 C 8.3907 -1.2727 0.0 0
M  V30 21 C 8.0607 -2.734 0.0 0
M  V30 22 C 9.8166 -0.8013 0.0 0
M  V30 23 C 9.1685 -3.7357 0.0 0
M  V30 24 C 10.9244 -1.803 0.0 0
M  V30 25 N 10.5944 -3.2643 0.0 0
M  V30 END ATOM
M  V30 BEGIN BOND
M  V30 1 1 1 2
M  V30 2 2 2 3
M  V30 3 1 2 4
M  V30 4 1 3 5
M  V30 5 1 3 6
M  V30 6 2 4 7
M  V30 7 1 5 8
M  V30 8 2 5 9
M  V30 9 2 6 10
M  V30 10 1 6 11
M  V30 11 1 11 12
M  V30 12 2 12 13
M  V30 13 1 12 14
M  V30 14 1 13 15
M  V30 15 1 13 16
M  V30 16 2 14 17
M  V30 17 2 16 18
M  V30 18 1 16 19
M  V30 19 1 19 20
M  V30 20 1 20 21
M  V30 21 1 20 22
M  V30 22 1 21 23
M  V30 23 1 22 24
M  V30 24 1 23 25
M  V30 25 1 7 9
M  V30 26 1 15 17
M  V30 27 1 24 25
M  V30 END BOND
M  V30 END CTAB
M  END
>  <Compound ID>
71

>  <Name>
AT-7519

>  <Uniprot>
Q00537

>  <Target>
CDK17

>  <Smiles>
O=C(NC1CCNCC1)C1=C(NC(=O)C2=C(Cl)C=CC=C2Cl)C=N[NH]1

>  <Kd (nM)>
0.95

>  <Assay (Kd)>
Kd was assessed by competition binding assays

>  <Ki (nM)>


>  <Assay (Ki)>


>  <IC50 (nM)>


>  <Assay (IC50)>


>  <EC50 (nM)>


>  <Assay (EC50)>


>  <Article DOI>
10.1038/nbt.1990

>  <Molecular Weight>
382.251

>  <Exact Mass>
381.075930144

>  <XLogP3>
2.59

>  <Heavy Atom Count>
25

>  <Ring Count>
3

>  <Hydrogen Bond Acceptor Count>
4

>  <Hydrogen Bond Donor Count>
4

>  <Rotatable Bond Count>
4

>  <Topological Polar Surface Area>
98.91

>  <Molecular Formula>
C16H17Cl2N5O2

>  <InChI>
InChI=1S/C16H17Cl2N5O2/c17-10-2-1-3-11(18)13(10)15(24)22-12-8-20-23-14(12)16(25)21-9-4-6-19-7-5-9/h1-3,8-9,19H,4-7H2,(H,20,23)(H,21,25)(H,22,24)

>  <InChI Key>
OVPNQJVDAFNBDN-UHFFFAOYSA-N

>  <BindingDB>
24654

>  <PubChem>
11338033

>  <ChEMBL>
CHEMBL445813

$$$$
Compound 252
Actelion Java MolfileCreator 2.0

  0  0  0  0  0  0              0 V3000
M  V30 BEGIN CTAB
M  V30 COUNTS 25 27 0 0 0
M  V30 BEGIN ATOM
M  V30 1 Cl 0.0 0.0 0.0 0
M  V30 2 C 0.872 -1.2138 0.0 0
M  V30 3 C 2.3569 -1.0488 0.0 0
M  V30 4 C 0.2474 -2.569 0.0 0
M  V30 5 C 3.229 -2.2626 0.0 0
M  V30 6 C 2.9579 0.3299 0.0 0
M  V30 7 C 1.1195 -3.7829 0.0 0
M  V30 8 Cl 4.7138 -2.0976 0.0 0
M  V30 9 C 2.6044 -3.6179 0.0 0
M  V30 10 O 2.0623 1.5673 0.0 0
M  V30 11 N 4.4428 0.4949 0.0 0
M  V30 12 C 5.0438 1.8737 0.0 0
M  V30 13 C 6.5051 2.1919 0.0 0
M  V30 14 C 4.2896 3.1936 0.0 0
M  V30 15 N 6.6583 3.7004 0.0 0
M  V30 16 C 7.6129 1.1902 0.0 0
M  V30 17 N 5.2913 4.325 0.0 0
M  V30 18 O 9.0388 1.6616 0.0 0
M  V30 19 N 7.2829 -0.271 0.0 0
M  V30 20 C 8.3907 -1.2727 0.0 0
M  V30 21 C 8.0607 -2.734 0.0 0
M  V30 22 C 9.8166 -0.8013 0.0 0
M  V30 23 C 9.1685 -3.7357 0.0 0
M  V30 24 C 10.9244 -1.803 0.0 0
M  V30 25 N 10.5944 -3.2643 0.0 0
M  V30 END ATOM
M  V30 BEGIN BOND
M  V30 1 1 1 2
M  V30 2 2 2 3
M  V30 3 1 2 4
M  V30 4 1 3 5
M  V30 5 1 3 6
M  V30 6 2 4 7
M  V30 7 1 5 8
M  V30 8 2 5 9
M  V30 9 2 6 10
M  V30 10 1 6 11
M  V30 11 1 11 12
M  V30 12 2 12 13
M  V30 13 1 12 14
M  V30 14 1 13 15
M  V30 15 1 13 16
M  V30 16 2 14 17
M  V30 17 2 16 18
M  V30 18 1 16 19
M  V30 19 1 19 20
M  V30 20 1 20 21
M  V30 21 1 20 22
M  V30 22 1 21 23
M  V30 23 1 22 24
M  V30 24 1 23 25
M  V30 25 1 7 9
M  V30 26 1 15 17
M  V30 27 1 24 25
M  V30 END BOND
M  V30 END CTAB
M  END
>  <Compound ID>
71

>  <Name>
AT-7519

>  <Uniprot>
P24941

>  <Target>
CDK2

>  <Smiles>
O=C(NC1CCNCC1)C1=C(NC(=O)C2=C(Cl)C=CC=C2Cl)C=N[NH]1

>  <Kd (nM)>
30

>  <Assay (Kd)>
Kd was assessed by competition binding assays

>  <Ki (nM)>


>  <Assay (Ki)>


>  <IC50 (nM)>


>  <Assay (IC50)>


>  <EC50 (nM)>


>  <Assay (EC50)>


>  <Article DOI>
10.1038/nbt.1990

>  <Molecular Weight>
382.251

>  <Exact Mass>
381.075930144

>  <XLogP3>
2.59

>  <Heavy Atom Count>
25

>  <Ring Count>
3

>  <Hydrogen Bond Acceptor Count>
4

>  <Hydrogen Bond Donor Count>
4

>  <Rotatable Bond Count>
4

>  <Topological Polar Surface Area>
98.91

>  <Molecular Formula>
C16H17Cl2N5O2

>  <InChI>
InChI=1S/C16H17Cl2N5O2/c17-10-2-1-3-11(18)13(10)15(24)22-12-8-20-23-14(12)16(25)21-9-4-6-19-7-5-9/h1-3,8-9,19H,4-7H2,(H,20,23)(H,21,25)(H,22,24)

>  <InChI Key>
OVPNQJVDAFNBDN-UHFFFAOYSA-N

>  <BindingDB>
24654

>  <PubChem>
11338033

>  <ChEMBL>
CHEMBL445813

$$$$
Compound 253
Actelion Java MolfileCreator 2.0

  0  0  0  0  0  0              0 V3000
M  V30 BEGIN CTAB
M  V30 COUNTS 25 27 0 0 0
M  V30 BEGIN ATOM
M  V30 1 Cl 0.0 0.0 0.0 0
M  V30 2 C 0.872 -1.2138 0.0 0
M  V30 3 C 2.3569 -1.0488 0.0 0
M  V30 4 C 0.2474 -2.569 0.0 0
M  V30 5 C 3.229 -2.2626 0.0 0
M  V30 6 C 2.9579 0.3299 0.0 0
M  V30 7 C 1.1195 -3.7829 0.0 0
M  V30 8 Cl 4.7138 -2.0976 0.0 0
M  V30 9 C 2.6044 -3.6179 0.0 0
M  V30 10 O 2.0623 1.5673 0.0 0
M  V30 11 N 4.4428 0.4949 0.0 0
M  V30 12 C 5.0438 1.8737 0.0 0
M  V30 13 C 6.5051 2.1919 0.0 0
M  V30 14 C 4.2896 3.1936 0.0 0
M  V30 15 N 6.6583 3.7004 0.0 0
M  V30 16 C 7.6129 1.1902 0.0 0
M  V30 17 N 5.2913 4.325 0.0 0
M  V30 18 O 9.0388 1.6616 0.0 0
M  V30 19 N 7.2829 -0.271 0.0 0
M  V30 20 C 8.3907 -1.2727 0.0 0
M  V30 21 C 8.0607 -2.734 0.0 0
M  V30 22 C 9.8166 -0.8013 0.0 0
M  V30 23 C 9.1685 -3.7357 0.0 0
M  V30 24 C 10.9244 -1.803 0.0 0
M  V30 25 N 10.5944 -3.2643 0.0 0
M  V30 END ATOM
M  V30 BEGIN BOND
M  V30 1 1 1 2
M  V30 2 2 2 3
M  V30 3 1 2 4
M  V30 4 1 3 5
M  V30 5 1 3 6
M  V30 6 2 4 7
M  V30 7 1 5 8
M  V30 8 2 5 9
M  V30 9 2 6 10
M  V30 10 1 6 11
M  V30 11 1 11 12
M  V30 12 2 12 13
M  V30 13 1 12 14
M  V30 14 1 13 15
M  V30 15 1 13 16
M  V30 16 2 14 17
M  V30 17 2 16 18
M  V30 18 1 16 19
M  V30 19 1 19 20
M  V30 20 1 20 21
M  V30 21 1 20 22
M  V30 22 1 21 23
M  V30 23 1 22 24
M  V30 24 1 23 25
M  V30 25 1 7 9
M  V30 26 1 15 17
M  V30 27 1 24 25
M  V30 END BOND
M  V30 END CTAB
M  END
>  <Compound ID>
71

>  <Name>
AT-7519

>  <Uniprot>
P11802

>  <Target>
CDK4

>  <Smiles>
O=C(NC1CCNCC1)C1=C(NC(=O)C2=C(Cl)C=CC=C2Cl)C=N[NH]1

>  <Kd (nM)>
20/12

>  <Assay (Kd)>
Kd of CDK4-cyclinD1/3 was assessed by competition binding assays

>  <Ki (nM)>


>  <Assay (Ki)>


>  <IC50 (nM)>


>  <Assay (IC50)>


>  <EC50 (nM)>


>  <Assay (EC50)>


>  <Article DOI>
10.1038/nbt.1990

>  <Molecular Weight>
382.251

>  <Exact Mass>
381.075930144

>  <XLogP3>
2.59

>  <Heavy Atom Count>
25

>  <Ring Count>
3

>  <Hydrogen Bond Acceptor Count>
4

>  <Hydrogen Bond Donor Count>
4

>  <Rotatable Bond Count>
4

>  <Topological Polar Surface Area>
98.91

>  <Molecular Formula>
C16H17Cl2N5O2

>  <InChI>
InChI=1S/C16H17Cl2N5O2/c17-10-2-1-3-11(18)13(10)15(24)22-12-8-20-23-14(12)16(25)21-9-4-6-19-7-5-9/h1-3,8-9,19H,4-7H2,(H,20,23)(H,21,25)(H,22,24)

>  <InChI Key>
OVPNQJVDAFNBDN-UHFFFAOYSA-N

>  <BindingDB>
24654

>  <PubChem>
11338033

>  <ChEMBL>
CHEMBL445813

$$$$
Compound 254
Actelion Java MolfileCreator 2.0

  0  0  0  0  0  0              0 V3000
M  V30 BEGIN CTAB
M  V30 COUNTS 25 27 0 0 0
M  V30 BEGIN ATOM
M  V30 1 Cl 0.0 0.0 0.0 0
M  V30 2 C 0.872 -1.2138 0.0 0
M  V30 3 C 2.3569 -1.0488 0.0 0
M  V30 4 C 0.2474 -2.569 0.0 0
M  V30 5 C 3.229 -2.2626 0.0 0
M  V30 6 C 2.9579 0.3299 0.0 0
M  V30 7 C 1.1195 -3.7829 0.0 0
M  V30 8 Cl 4.7138 -2.0976 0.0 0
M  V30 9 C 2.6044 -3.6179 0.0 0
M  V30 10 O 2.0623 1.5673 0.0 0
M  V30 11 N 4.4428 0.4949 0.0 0
M  V30 12 C 5.0438 1.8737 0.0 0
M  V30 13 C 6.5051 2.1919 0.0 0
M  V30 14 C 4.2896 3.1936 0.0 0
M  V30 15 N 6.6583 3.7004 0.0 0
M  V30 16 C 7.6129 1.1902 0.0 0
M  V30 17 N 5.2913 4.325 0.0 0
M  V30 18 O 9.0388 1.6616 0.0 0
M  V30 19 N 7.2829 -0.271 0.0 0
M  V30 20 C 8.3907 -1.2727 0.0 0
M  V30 21 C 8.0607 -2.734 0.0 0
M  V30 22 C 9.8166 -0.8013 0.0 0
M  V30 23 C 9.1685 -3.7357 0.0 0
M  V30 24 C 10.9244 -1.803 0.0 0
M  V30 25 N 10.5944 -3.2643 0.0 0
M  V30 END ATOM
M  V30 BEGIN BOND
M  V30 1 1 1 2
M  V30 2 2 2 3
M  V30 3 1 2 4
M  V30 4 1 3 5
M  V30 5 1 3 6
M  V30 6 2 4 7
M  V30 7 1 5 8
M  V30 8 2 5 9
M  V30 9 2 6 10
M  V30 10 1 6 11
M  V30 11 1 11 12
M  V30 12 2 12 13
M  V30 13 1 12 14
M  V30 14 1 13 15
M  V30 15 1 13 16
M  V30 16 2 14 17
M  V30 17 2 16 18
M  V30 18 1 16 19
M  V30 19 1 19 20
M  V30 20 1 20 21
M  V30 21 1 20 22
M  V30 22 1 21 23
M  V30 23 1 22 24
M  V30 24 1 23 25
M  V30 25 1 7 9
M  V30 26 1 15 17
M  V30 27 1 24 25
M  V30 END BOND
M  V30 END CTAB
M  END
>  <Compound ID>
71

>  <Name>
AT-7519

>  <Uniprot>
P50750

>  <Target>
CDK9

>  <Smiles>
O=C(NC1CCNCC1)C1=C(NC(=O)C2=C(Cl)C=CC=C2Cl)C=N[NH]1

>  <Kd (nM)>
5.8

>  <Assay (Kd)>
Kd was assessed by competition binding assays

>  <Ki (nM)>


>  <Assay (Ki)>


>  <IC50 (nM)>


>  <Assay (IC50)>


>  <EC50 (nM)>


>  <Assay (EC50)>


>  <Article DOI>
10.1038/nbt.1990

>  <Molecular Weight>
382.251

>  <Exact Mass>
381.075930144

>  <XLogP3>
2.59

>  <Heavy Atom Count>
25

>  <Ring Count>
3

>  <Hydrogen Bond Acceptor Count>
4

>  <Hydrogen Bond Donor Count>
4

>  <Rotatable Bond Count>
4

>  <Topological Polar Surface Area>
98.91

>  <Molecular Formula>
C16H17Cl2N5O2

>  <InChI>
InChI=1S/C16H17Cl2N5O2/c17-10-2-1-3-11(18)13(10)15(24)22-12-8-20-23-14(12)16(25)21-9-4-6-19-7-5-9/h1-3,8-9,19H,4-7H2,(H,20,23)(H,21,25)(H,22,24)

>  <InChI Key>
OVPNQJVDAFNBDN-UHFFFAOYSA-N

>  <BindingDB>
24654

>  <PubChem>
11338033

>  <ChEMBL>
CHEMBL445813

$$$$
Compound 255
Actelion Java MolfileCreator 2.0

  0  0  0  0  0  0              0 V3000
M  V30 BEGIN CTAB
M  V30 COUNTS 25 27 0 0 0
M  V30 BEGIN ATOM
M  V30 1 Cl 0.0 0.0 0.0 0
M  V30 2 C 0.872 -1.2138 0.0 0
M  V30 3 C 2.3569 -1.0488 0.0 0
M  V30 4 C 0.2474 -2.569 0.0 0
M  V30 5 C 3.229 -2.2626 0.0 0
M  V30 6 C 2.9579 0.3299 0.0 0
M  V30 7 C 1.1195 -3.7829 0.0 0
M  V30 8 Cl 4.7138 -2.0976 0.0 0
M  V30 9 C 2.6044 -3.6179 0.0 0
M  V30 10 O 2.0623 1.5673 0.0 0
M  V30 11 N 4.4428 0.4949 0.0 0
M  V30 12 C 5.0438 1.8737 0.0 0
M  V30 13 C 6.5051 2.1919 0.0 0
M  V30 14 C 4.2896 3.1936 0.0 0
M  V30 15 N 6.6583 3.7004 0.0 0
M  V30 16 C 7.6129 1.1902 0.0 0
M  V30 17 N 5.2913 4.325 0.0 0
M  V30 18 O 9.0388 1.6616 0.0 0
M  V30 19 N 7.2829 -0.271 0.0 0
M  V30 20 C 8.3907 -1.2727 0.0 0
M  V30 21 C 8.0607 -2.734 0.0 0
M  V30 22 C 9.8166 -0.8013 0.0 0
M  V30 23 C 9.1685 -3.7357 0.0 0
M  V30 24 C 10.9244 -1.803 0.0 0
M  V30 25 N 10.5944 -3.2643 0.0 0
M  V30 END ATOM
M  V30 BEGIN BOND
M  V30 1 1 1 2
M  V30 2 2 2 3
M  V30 3 1 2 4
M  V30 4 1 3 5
M  V30 5 1 3 6
M  V30 6 2 4 7
M  V30 7 1 5 8
M  V30 8 2 5 9
M  V30 9 2 6 10
M  V30 10 1 6 11
M  V30 11 1 11 12
M  V30 12 2 12 13
M  V30 13 1 12 14
M  V30 14 1 13 15
M  V30 15 1 13 16
M  V30 16 2 14 17
M  V30 17 2 16 18
M  V30 18 1 16 19
M  V30 19 1 19 20
M  V30 20 1 20 21
M  V30 21 1 20 22
M  V30 22 1 21 23
M  V30 23 1 22 24
M  V30 24 1 23 25
M  V30 25 1 7 9
M  V30 26 1 15 17
M  V30 27 1 24 25
M  V30 END BOND
M  V30 END CTAB
M  END
>  <Compound ID>
71

>  <Name>
AT-7519

>  <Uniprot>
O14757

>  <Target>
CHEK1

>  <Smiles>
O=C(NC1CCNCC1)C1=C(NC(=O)C2=C(Cl)C=CC=C2Cl)C=N[NH]1

>  <Kd (nM)>
>10000

>  <Assay (Kd)>
Kd was assessed by competition binding assays

>  <Ki (nM)>


>  <Assay (Ki)>


>  <IC50 (nM)>


>  <Assay (IC50)>


>  <EC50 (nM)>


>  <Assay (EC50)>


>  <Article DOI>
10.1038/nbt.1990

>  <Molecular Weight>
382.251

>  <Exact Mass>
381.075930144

>  <XLogP3>
2.59

>  <Heavy Atom Count>
25

>  <Ring Count>
3

>  <Hydrogen Bond Acceptor Count>
4

>  <Hydrogen Bond Donor Count>
4

>  <Rotatable Bond Count>
4

>  <Topological Polar Surface Area>
98.91

>  <Molecular Formula>
C16H17Cl2N5O2

>  <InChI>
InChI=1S/C16H17Cl2N5O2/c17-10-2-1-3-11(18)13(10)15(24)22-12-8-20-23-14(12)16(25)21-9-4-6-19-7-5-9/h1-3,8-9,19H,4-7H2,(H,20,23)(H,21,25)(H,22,24)

>  <InChI Key>
OVPNQJVDAFNBDN-UHFFFAOYSA-N

>  <BindingDB>
24654

>  <PubChem>
11338033

>  <ChEMBL>
CHEMBL445813

$$$$
Compound 256
Actelion Java MolfileCreator 2.0

  0  0  0  0  0  0              0 V3000
M  V30 BEGIN CTAB
M  V30 COUNTS 25 27 0 0 0
M  V30 BEGIN ATOM
M  V30 1 Cl 0.0 0.0 0.0 0
M  V30 2 C 0.872 -1.2138 0.0 0
M  V30 3 C 2.3569 -1.0488 0.0 0
M  V30 4 C 0.2474 -2.569 0.0 0
M  V30 5 C 3.229 -2.2626 0.0 0
M  V30 6 C 2.9579 0.3299 0.0 0
M  V30 7 C 1.1195 -3.7829 0.0 0
M  V30 8 Cl 4.7138 -2.0976 0.0 0
M  V30 9 C 2.6044 -3.6179 0.0 0
M  V30 10 O 2.0623 1.5673 0.0 0
M  V30 11 N 4.4428 0.4949 0.0 0
M  V30 12 C 5.0438 1.8737 0.0 0
M  V30 13 C 6.5051 2.1919 0.0 0
M  V30 14 C 4.2896 3.1936 0.0 0
M  V30 15 N 6.6583 3.7004 0.0 0
M  V30 16 C 7.6129 1.1902 0.0 0
M  V30 17 N 5.2913 4.325 0.0 0
M  V30 18 O 9.0388 1.6616 0.0 0
M  V30 19 N 7.2829 -0.271 0.0 0
M  V30 20 C 8.3907 -1.2727 0.0 0
M  V30 21 C 8.0607 -2.734 0.0 0
M  V30 22 C 9.8166 -0.8013 0.0 0
M  V30 23 C 9.1685 -3.7357 0.0 0
M  V30 24 C 10.9244 -1.803 0.0 0
M  V30 25 N 10.5944 -3.2643 0.0 0
M  V30 END ATOM
M  V30 BEGIN BOND
M  V30 1 1 1 2
M  V30 2 2 2 3
M  V30 3 1 2 4
M  V30 4 1 3 5
M  V30 5 1 3 6
M  V30 6 2 4 7
M  V30 7 1 5 8
M  V30 8 2 5 9
M  V30 9 2 6 10
M  V30 10 1 6 11
M  V30 11 1 11 12
M  V30 12 2 12 13
M  V30 13 1 12 14
M  V30 14 1 13 15
M  V30 15 1 13 16
M  V30 16 2 14 17
M  V30 17 2 16 18
M  V30 18 1 16 19
M  V30 19 1 19 20
M  V30 20 1 20 21
M  V30 21 1 20 22
M  V30 22 1 21 23
M  V30 23 1 22 24
M  V30 24 1 23 25
M  V30 25 1 7 9
M  V30 26 1 15 17
M  V30 27 1 24 25
M  V30 END BOND
M  V30 END CTAB
M  END
>  <Compound ID>
71

>  <Name>
AT-7519

>  <Uniprot>
P49759

>  <Target>
CLK1

>  <Smiles>
O=C(NC1CCNCC1)C1=C(NC(=O)C2=C(Cl)C=CC=C2Cl)C=N[NH]1

>  <Kd (nM)>
990

>  <Assay (Kd)>
Kd was assessed by competition binding assays

>  <Ki (nM)>


>  <Assay (Ki)>


>  <IC50 (nM)>


>  <Assay (IC50)>


>  <EC50 (nM)>


>  <Assay (EC50)>


>  <Article DOI>
10.1038/nbt.1990

>  <Molecular Weight>
382.251

>  <Exact Mass>
381.075930144

>  <XLogP3>
2.59

>  <Heavy Atom Count>
25

>  <Ring Count>
3

>  <Hydrogen Bond Acceptor Count>
4

>  <Hydrogen Bond Donor Count>
4

>  <Rotatable Bond Count>
4

>  <Topological Polar Surface Area>
98.91

>  <Molecular Formula>
C16H17Cl2N5O2

>  <InChI>
InChI=1S/C16H17Cl2N5O2/c17-10-2-1-3-11(18)13(10)15(24)22-12-8-20-23-14(12)16(25)21-9-4-6-19-7-5-9/h1-3,8-9,19H,4-7H2,(H,20,23)(H,21,25)(H,22,24)

>  <InChI Key>
OVPNQJVDAFNBDN-UHFFFAOYSA-N

>  <BindingDB>
24654

>  <PubChem>
11338033

>  <ChEMBL>
CHEMBL445813

$$$$
Compound 257
Actelion Java MolfileCreator 2.0

  0  0  0  0  0  0              0 V3000
M  V30 BEGIN CTAB
M  V30 COUNTS 25 27 0 0 0
M  V30 BEGIN ATOM
M  V30 1 Cl 0.0 0.0 0.0 0
M  V30 2 C 0.872 -1.2138 0.0 0
M  V30 3 C 2.3569 -1.0488 0.0 0
M  V30 4 C 0.2474 -2.569 0.0 0
M  V30 5 C 3.229 -2.2626 0.0 0
M  V30 6 C 2.9579 0.3299 0.0 0
M  V30 7 C 1.1195 -3.7829 0.0 0
M  V30 8 Cl 4.7138 -2.0976 0.0 0
M  V30 9 C 2.6044 -3.6179 0.0 0
M  V30 10 O 2.0623 1.5673 0.0 0
M  V30 11 N 4.4428 0.4949 0.0 0
M  V30 12 C 5.0438 1.8737 0.0 0
M  V30 13 C 6.5051 2.1919 0.0 0
M  V30 14 C 4.2896 3.1936 0.0 0
M  V30 15 N 6.6583 3.7004 0.0 0
M  V30 16 C 7.6129 1.1902 0.0 0
M  V30 17 N 5.2913 4.325 0.0 0
M  V30 18 O 9.0388 1.6616 0.0 0
M  V30 19 N 7.2829 -0.271 0.0 0
M  V30 20 C 8.3907 -1.2727 0.0 0
M  V30 21 C 8.0607 -2.734 0.0 0
M  V30 22 C 9.8166 -0.8013 0.0 0
M  V30 23 C 9.1685 -3.7357 0.0 0
M  V30 24 C 10.9244 -1.803 0.0 0
M  V30 25 N 10.5944 -3.2643 0.0 0
M  V30 END ATOM
M  V30 BEGIN BOND
M  V30 1 1 1 2
M  V30 2 2 2 3
M  V30 3 1 2 4
M  V30 4 1 3 5
M  V30 5 1 3 6
M  V30 6 2 4 7
M  V30 7 1 5 8
M  V30 8 2 5 9
M  V30 9 2 6 10
M  V30 10 1 6 11
M  V30 11 1 11 12
M  V30 12 2 12 13
M  V30 13 1 12 14
M  V30 14 1 13 15
M  V30 15 1 13 16
M  V30 16 2 14 17
M  V30 17 2 16 18
M  V30 18 1 16 19
M  V30 19 1 19 20
M  V30 20 1 20 21
M  V30 21 1 20 22
M  V30 22 1 21 23
M  V30 23 1 22 24
M  V30 24 1 23 25
M  V30 25 1 7 9
M  V30 26 1 15 17
M  V30 27 1 24 25
M  V30 END BOND
M  V30 END CTAB
M  END
>  <Compound ID>
71

>  <Name>
AT-7519

>  <Uniprot>
P48729

>  <Target>
CSNK1A1

>  <Smiles>
O=C(NC1CCNCC1)C1=C(NC(=O)C2=C(Cl)C=CC=C2Cl)C=N[NH]1

>  <Kd (nM)>
>10000

>  <Assay (Kd)>
Kd was assessed by competition binding assays

>  <Ki (nM)>


>  <Assay (Ki)>


>  <IC50 (nM)>


>  <Assay (IC50)>


>  <EC50 (nM)>


>  <Assay (EC50)>


>  <Article DOI>
10.1038/nbt.1990

>  <Molecular Weight>
382.251

>  <Exact Mass>
381.075930144

>  <XLogP3>
2.59

>  <Heavy Atom Count>
25

>  <Ring Count>
3

>  <Hydrogen Bond Acceptor Count>
4

>  <Hydrogen Bond Donor Count>
4

>  <Rotatable Bond Count>
4

>  <Topological Polar Surface Area>
98.91

>  <Molecular Formula>
C16H17Cl2N5O2

>  <InChI>
InChI=1S/C16H17Cl2N5O2/c17-10-2-1-3-11(18)13(10)15(24)22-12-8-20-23-14(12)16(25)21-9-4-6-19-7-5-9/h1-3,8-9,19H,4-7H2,(H,20,23)(H,21,25)(H,22,24)

>  <InChI Key>
OVPNQJVDAFNBDN-UHFFFAOYSA-N

>  <BindingDB>
24654

>  <PubChem>
11338033

>  <ChEMBL>
CHEMBL445813

$$$$
Compound 258
Actelion Java MolfileCreator 2.0

  0  0  0  0  0  0              0 V3000
M  V30 BEGIN CTAB
M  V30 COUNTS 25 27 0 0 0
M  V30 BEGIN ATOM
M  V30 1 Cl 0.0 0.0 0.0 0
M  V30 2 C 0.872 -1.2138 0.0 0
M  V30 3 C 2.3569 -1.0488 0.0 0
M  V30 4 C 0.2474 -2.569 0.0 0
M  V30 5 C 3.229 -2.2626 0.0 0
M  V30 6 C 2.9579 0.3299 0.0 0
M  V30 7 C 1.1195 -3.7829 0.0 0
M  V30 8 Cl 4.7138 -2.0976 0.0 0
M  V30 9 C 2.6044 -3.6179 0.0 0
M  V30 10 O 2.0623 1.5673 0.0 0
M  V30 11 N 4.4428 0.4949 0.0 0
M  V30 12 C 5.0438 1.8737 0.0 0
M  V30 13 C 6.5051 2.1919 0.0 0
M  V30 14 C 4.2896 3.1936 0.0 0
M  V30 15 N 6.6583 3.7004 0.0 0
M  V30 16 C 7.6129 1.1902 0.0 0
M  V30 17 N 5.2913 4.325 0.0 0
M  V30 18 O 9.0388 1.6616 0.0 0
M  V30 19 N 7.2829 -0.271 0.0 0
M  V30 20 C 8.3907 -1.2727 0.0 0
M  V30 21 C 8.0607 -2.734 0.0 0
M  V30 22 C 9.8166 -0.8013 0.0 0
M  V30 23 C 9.1685 -3.7357 0.0 0
M  V30 24 C 10.9244 -1.803 0.0 0
M  V30 25 N 10.5944 -3.2643 0.0 0
M  V30 END ATOM
M  V30 BEGIN BOND
M  V30 1 1 1 2
M  V30 2 2 2 3
M  V30 3 1 2 4
M  V30 4 1 3 5
M  V30 5 1 3 6
M  V30 6 2 4 7
M  V30 7 1 5 8
M  V30 8 2 5 9
M  V30 9 2 6 10
M  V30 10 1 6 11
M  V30 11 1 11 12
M  V30 12 2 12 13
M  V30 13 1 12 14
M  V30 14 1 13 15
M  V30 15 1 13 16
M  V30 16 2 14 17
M  V30 17 2 16 18
M  V30 18 1 16 19
M  V30 19 1 19 20
M  V30 20 1 20 21
M  V30 21 1 20 22
M  V30 22 1 21 23
M  V30 23 1 22 24
M  V30 24 1 23 25
M  V30 25 1 7 9
M  V30 26 1 15 17
M  V30 27 1 24 25
M  V30 END BOND
M  V30 END CTAB
M  END
>  <Compound ID>
71

>  <Name>
AT-7519

>  <Uniprot>
P48730

>  <Target>
CSNK1D

>  <Smiles>
O=C(NC1CCNCC1)C1=C(NC(=O)C2=C(Cl)C=CC=C2Cl)C=N[NH]1

>  <Kd (nM)>
>10000

>  <Assay (Kd)>
Kd was assessed by competition binding assays

>  <Ki (nM)>


>  <Assay (Ki)>


>  <IC50 (nM)>


>  <Assay (IC50)>


>  <EC50 (nM)>


>  <Assay (EC50)>


>  <Article DOI>
10.1038/nbt.1990

>  <Molecular Weight>
382.251

>  <Exact Mass>
381.075930144

>  <XLogP3>
2.59

>  <Heavy Atom Count>
25

>  <Ring Count>
3

>  <Hydrogen Bond Acceptor Count>
4

>  <Hydrogen Bond Donor Count>
4

>  <Rotatable Bond Count>
4

>  <Topological Polar Surface Area>
98.91

>  <Molecular Formula>
C16H17Cl2N5O2

>  <InChI>
InChI=1S/C16H17Cl2N5O2/c17-10-2-1-3-11(18)13(10)15(24)22-12-8-20-23-14(12)16(25)21-9-4-6-19-7-5-9/h1-3,8-9,19H,4-7H2,(H,20,23)(H,21,25)(H,22,24)

>  <InChI Key>
OVPNQJVDAFNBDN-UHFFFAOYSA-N

>  <BindingDB>
24654

>  <PubChem>
11338033

>  <ChEMBL>
CHEMBL445813

$$$$
Compound 259
Actelion Java MolfileCreator 2.0

  0  0  0  0  0  0              0 V3000
M  V30 BEGIN CTAB
M  V30 COUNTS 25 27 0 0 0
M  V30 BEGIN ATOM
M  V30 1 Cl 0.0 0.0 0.0 0
M  V30 2 C 0.872 -1.2138 0.0 0
M  V30 3 C 2.3569 -1.0488 0.0 0
M  V30 4 C 0.2474 -2.569 0.0 0
M  V30 5 C 3.229 -2.2626 0.0 0
M  V30 6 C 2.9579 0.3299 0.0 0
M  V30 7 C 1.1195 -3.7829 0.0 0
M  V30 8 Cl 4.7138 -2.0976 0.0 0
M  V30 9 C 2.6044 -3.6179 0.0 0
M  V30 10 O 2.0623 1.5673 0.0 0
M  V30 11 N 4.4428 0.4949 0.0 0
M  V30 12 C 5.0438 1.8737 0.0 0
M  V30 13 C 6.5051 2.1919 0.0 0
M  V30 14 C 4.2896 3.1936 0.0 0
M  V30 15 N 6.6583 3.7004 0.0 0
M  V30 16 C 7.6129 1.1902 0.0 0
M  V30 17 N 5.2913 4.325 0.0 0
M  V30 18 O 9.0388 1.6616 0.0 0
M  V30 19 N 7.2829 -0.271 0.0 0
M  V30 20 C 8.3907 -1.2727 0.0 0
M  V30 21 C 8.0607 -2.734 0.0 0
M  V30 22 C 9.8166 -0.8013 0.0 0
M  V30 23 C 9.1685 -3.7357 0.0 0
M  V30 24 C 10.9244 -1.803 0.0 0
M  V30 25 N 10.5944 -3.2643 0.0 0
M  V30 END ATOM
M  V30 BEGIN BOND
M  V30 1 1 1 2
M  V30 2 2 2 3
M  V30 3 1 2 4
M  V30 4 1 3 5
M  V30 5 1 3 6
M  V30 6 2 4 7
M  V30 7 1 5 8
M  V30 8 2 5 9
M  V30 9 2 6 10
M  V30 10 1 6 11
M  V30 11 1 11 12
M  V30 12 2 12 13
M  V30 13 1 12 14
M  V30 14 1 13 15
M  V30 15 1 13 16
M  V30 16 2 14 17
M  V30 17 2 16 18
M  V30 18 1 16 19
M  V30 19 1 19 20
M  V30 20 1 20 21
M  V30 21 1 20 22
M  V30 22 1 21 23
M  V30 23 1 22 24
M  V30 24 1 23 25
M  V30 25 1 7 9
M  V30 26 1 15 17
M  V30 27 1 24 25
M  V30 END BOND
M  V30 END CTAB
M  END
>  <Compound ID>
71

>  <Name>
AT-7519

>  <Uniprot>
P53355

>  <Target>
DAPK1

>  <Smiles>
O=C(NC1CCNCC1)C1=C(NC(=O)C2=C(Cl)C=CC=C2Cl)C=N[NH]1

>  <Kd (nM)>
>10000

>  <Assay (Kd)>
Kd was assessed by competition binding assays

>  <Ki (nM)>


>  <Assay (Ki)>


>  <IC50 (nM)>


>  <Assay (IC50)>


>  <EC50 (nM)>


>  <Assay (EC50)>


>  <Article DOI>
10.1038/nbt.1990

>  <Molecular Weight>
382.251

>  <Exact Mass>
381.075930144

>  <XLogP3>
2.59

>  <Heavy Atom Count>
25

>  <Ring Count>
3

>  <Hydrogen Bond Acceptor Count>
4

>  <Hydrogen Bond Donor Count>
4

>  <Rotatable Bond Count>
4

>  <Topological Polar Surface Area>
98.91

>  <Molecular Formula>
C16H17Cl2N5O2

>  <InChI>
InChI=1S/C16H17Cl2N5O2/c17-10-2-1-3-11(18)13(10)15(24)22-12-8-20-23-14(12)16(25)21-9-4-6-19-7-5-9/h1-3,8-9,19H,4-7H2,(H,20,23)(H,21,25)(H,22,24)

>  <InChI Key>
OVPNQJVDAFNBDN-UHFFFAOYSA-N

>  <BindingDB>
24654

>  <PubChem>
11338033

>  <ChEMBL>
CHEMBL445813

$$$$
Compound 260
Actelion Java MolfileCreator 2.0

  0  0  0  0  0  0              0 V3000
M  V30 BEGIN CTAB
M  V30 COUNTS 25 27 0 0 0
M  V30 BEGIN ATOM
M  V30 1 Cl 0.0 0.0 0.0 0
M  V30 2 C 0.872 -1.2138 0.0 0
M  V30 3 C 2.3569 -1.0488 0.0 0
M  V30 4 C 0.2474 -2.569 0.0 0
M  V30 5 C 3.229 -2.2626 0.0 0
M  V30 6 C 2.9579 0.3299 0.0 0
M  V30 7 C 1.1195 -3.7829 0.0 0
M  V30 8 Cl 4.7138 -2.0976 0.0 0
M  V30 9 C 2.6044 -3.6179 0.0 0
M  V30 10 O 2.0623 1.5673 0.0 0
M  V30 11 N 4.4428 0.4949 0.0 0
M  V30 12 C 5.0438 1.8737 0.0 0
M  V30 13 C 6.5051 2.1919 0.0 0
M  V30 14 C 4.2896 3.1936 0.0 0
M  V30 15 N 6.6583 3.7004 0.0 0
M  V30 16 C 7.6129 1.1902 0.0 0
M  V30 17 N 5.2913 4.325 0.0 0
M  V30 18 O 9.0388 1.6616 0.0 0
M  V30 19 N 7.2829 -0.271 0.0 0
M  V30 20 C 8.3907 -1.2727 0.0 0
M  V30 21 C 8.0607 -2.734 0.0 0
M  V30 22 C 9.8166 -0.8013 0.0 0
M  V30 23 C 9.1685 -3.7357 0.0 0
M  V30 24 C 10.9244 -1.803 0.0 0
M  V30 25 N 10.5944 -3.2643 0.0 0
M  V30 END ATOM
M  V30 BEGIN BOND
M  V30 1 1 1 2
M  V30 2 2 2 3
M  V30 3 1 2 4
M  V30 4 1 3 5
M  V30 5 1 3 6
M  V30 6 2 4 7
M  V30 7 1 5 8
M  V30 8 2 5 9
M  V30 9 2 6 10
M  V30 10 1 6 11
M  V30 11 1 11 12
M  V30 12 2 12 13
M  V30 13 1 12 14
M  V30 14 1 13 15
M  V30 15 1 13 16
M  V30 16 2 14 17
M  V30 17 2 16 18
M  V30 18 1 16 19
M  V30 19 1 19 20
M  V30 20 1 20 21
M  V30 21 1 20 22
M  V30 22 1 21 23
M  V30 23 1 22 24
M  V30 24 1 23 25
M  V30 25 1 7 9
M  V30 26 1 15 17
M  V30 27 1 24 25
M  V30 END BOND
M  V30 END CTAB
M  END
>  <Compound ID>
71

>  <Name>
AT-7519

>  <Uniprot>
O75460

>  <Target>
ERN1

>  <Smiles>
O=C(NC1CCNCC1)C1=C(NC(=O)C2=C(Cl)C=CC=C2Cl)C=N[NH]1

>  <Kd (nM)>
>10000

>  <Assay (Kd)>
Kd was assessed by competition binding assays

>  <Ki (nM)>


>  <Assay (Ki)>


>  <IC50 (nM)>


>  <Assay (IC50)>


>  <EC50 (nM)>


>  <Assay (EC50)>


>  <Article DOI>
10.1038/nbt.1990

>  <Molecular Weight>
382.251

>  <Exact Mass>
381.075930144

>  <XLogP3>
2.59

>  <Heavy Atom Count>
25

>  <Ring Count>
3

>  <Hydrogen Bond Acceptor Count>
4

>  <Hydrogen Bond Donor Count>
4

>  <Rotatable Bond Count>
4

>  <Topological Polar Surface Area>
98.91

>  <Molecular Formula>
C16H17Cl2N5O2

>  <InChI>
InChI=1S/C16H17Cl2N5O2/c17-10-2-1-3-11(18)13(10)15(24)22-12-8-20-23-14(12)16(25)21-9-4-6-19-7-5-9/h1-3,8-9,19H,4-7H2,(H,20,23)(H,21,25)(H,22,24)

>  <InChI Key>
OVPNQJVDAFNBDN-UHFFFAOYSA-N

>  <BindingDB>
24654

>  <PubChem>
11338033

>  <ChEMBL>
CHEMBL445813

$$$$
Compound 261
Actelion Java MolfileCreator 2.0

  0  0  0  0  0  0              0 V3000
M  V30 BEGIN CTAB
M  V30 COUNTS 25 27 0 0 0
M  V30 BEGIN ATOM
M  V30 1 Cl 0.0 0.0 0.0 0
M  V30 2 C 0.872 -1.2138 0.0 0
M  V30 3 C 2.3569 -1.0488 0.0 0
M  V30 4 C 0.2474 -2.569 0.0 0
M  V30 5 C 3.229 -2.2626 0.0 0
M  V30 6 C 2.9579 0.3299 0.0 0
M  V30 7 C 1.1195 -3.7829 0.0 0
M  V30 8 Cl 4.7138 -2.0976 0.0 0
M  V30 9 C 2.6044 -3.6179 0.0 0
M  V30 10 O 2.0623 1.5673 0.0 0
M  V30 11 N 4.4428 0.4949 0.0 0
M  V30 12 C 5.0438 1.8737 0.0 0
M  V30 13 C 6.5051 2.1919 0.0 0
M  V30 14 C 4.2896 3.1936 0.0 0
M  V30 15 N 6.6583 3.7004 0.0 0
M  V30 16 C 7.6129 1.1902 0.0 0
M  V30 17 N 5.2913 4.325 0.0 0
M  V30 18 O 9.0388 1.6616 0.0 0
M  V30 19 N 7.2829 -0.271 0.0 0
M  V30 20 C 8.3907 -1.2727 0.0 0
M  V30 21 C 8.0607 -2.734 0.0 0
M  V30 22 C 9.8166 -0.8013 0.0 0
M  V30 23 C 9.1685 -3.7357 0.0 0
M  V30 24 C 10.9244 -1.803 0.0 0
M  V30 25 N 10.5944 -3.2643 0.0 0
M  V30 END ATOM
M  V30 BEGIN BOND
M  V30 1 1 1 2
M  V30 2 2 2 3
M  V30 3 1 2 4
M  V30 4 1 3 5
M  V30 5 1 3 6
M  V30 6 2 4 7
M  V30 7 1 5 8
M  V30 8 2 5 9
M  V30 9 2 6 10
M  V30 10 1 6 11
M  V30 11 1 11 12
M  V30 12 2 12 13
M  V30 13 1 12 14
M  V30 14 1 13 15
M  V30 15 1 13 16
M  V30 16 2 14 17
M  V30 17 2 16 18
M  V30 18 1 16 19
M  V30 19 1 19 20
M  V30 20 1 20 21
M  V30 21 1 20 22
M  V30 22 1 21 23
M  V30 23 1 22 24
M  V30 24 1 23 25
M  V30 25 1 7 9
M  V30 26 1 15 17
M  V30 27 1 24 25
M  V30 END BOND
M  V30 END CTAB
M  END
>  <Compound ID>
71

>  <Name>
AT-7519

>  <Uniprot>
P49840

>  <Target>
GSK3A

>  <Smiles>
O=C(NC1CCNCC1)C1=C(NC(=O)C2=C(Cl)C=CC=C2Cl)C=N[NH]1

>  <Kd (nM)>
23

>  <Assay (Kd)>
Kd was assessed by competition binding assays

>  <Ki (nM)>


>  <Assay (Ki)>


>  <IC50 (nM)>


>  <Assay (IC50)>


>  <EC50 (nM)>


>  <Assay (EC50)>


>  <Article DOI>
10.1038/nbt.1990

>  <Molecular Weight>
382.251

>  <Exact Mass>
381.075930144

>  <XLogP3>
2.59

>  <Heavy Atom Count>
25

>  <Ring Count>
3

>  <Hydrogen Bond Acceptor Count>
4

>  <Hydrogen Bond Donor Count>
4

>  <Rotatable Bond Count>
4

>  <Topological Polar Surface Area>
98.91

>  <Molecular Formula>
C16H17Cl2N5O2

>  <InChI>
InChI=1S/C16H17Cl2N5O2/c17-10-2-1-3-11(18)13(10)15(24)22-12-8-20-23-14(12)16(25)21-9-4-6-19-7-5-9/h1-3,8-9,19H,4-7H2,(H,20,23)(H,21,25)(H,22,24)

>  <InChI Key>
OVPNQJVDAFNBDN-UHFFFAOYSA-N

>  <BindingDB>
24654

>  <PubChem>
11338033

>  <ChEMBL>
CHEMBL445813

$$$$
Compound 262
Actelion Java MolfileCreator 2.0

  0  0  0  0  0  0              0 V3000
M  V30 BEGIN CTAB
M  V30 COUNTS 25 27 0 0 0
M  V30 BEGIN ATOM
M  V30 1 Cl 0.0 0.0 0.0 0
M  V30 2 C 0.872 -1.2138 0.0 0
M  V30 3 C 2.3569 -1.0488 0.0 0
M  V30 4 C 0.2474 -2.569 0.0 0
M  V30 5 C 3.229 -2.2626 0.0 0
M  V30 6 C 2.9579 0.3299 0.0 0
M  V30 7 C 1.1195 -3.7829 0.0 0
M  V30 8 Cl 4.7138 -2.0976 0.0 0
M  V30 9 C 2.6044 -3.6179 0.0 0
M  V30 10 O 2.0623 1.5673 0.0 0
M  V30 11 N 4.4428 0.4949 0.0 0
M  V30 12 C 5.0438 1.8737 0.0 0
M  V30 13 C 6.5051 2.1919 0.0 0
M  V30 14 C 4.2896 3.1936 0.0 0
M  V30 15 N 6.6583 3.7004 0.0 0
M  V30 16 C 7.6129 1.1902 0.0 0
M  V30 17 N 5.2913 4.325 0.0 0
M  V30 18 O 9.0388 1.6616 0.0 0
M  V30 19 N 7.2829 -0.271 0.0 0
M  V30 20 C 8.3907 -1.2727 0.0 0
M  V30 21 C 8.0607 -2.734 0.0 0
M  V30 22 C 9.8166 -0.8013 0.0 0
M  V30 23 C 9.1685 -3.7357 0.0 0
M  V30 24 C 10.9244 -1.803 0.0 0
M  V30 25 N 10.5944 -3.2643 0.0 0
M  V30 END ATOM
M  V30 BEGIN BOND
M  V30 1 1 1 2
M  V30 2 2 2 3
M  V30 3 1 2 4
M  V30 4 1 3 5
M  V30 5 1 3 6
M  V30 6 2 4 7
M  V30 7 1 5 8
M  V30 8 2 5 9
M  V30 9 2 6 10
M  V30 10 1 6 11
M  V30 11 1 11 12
M  V30 12 2 12 13
M  V30 13 1 12 14
M  V30 14 1 13 15
M  V30 15 1 13 16
M  V30 16 2 14 17
M  V30 17 2 16 18
M  V30 18 1 16 19
M  V30 19 1 19 20
M  V30 20 1 20 21
M  V30 21 1 20 22
M  V30 22 1 21 23
M  V30 23 1 22 24
M  V30 24 1 23 25
M  V30 25 1 7 9
M  V30 26 1 15 17
M  V30 27 1 24 25
M  V30 END BOND
M  V30 END CTAB
M  END
>  <Compound ID>
71

>  <Name>
AT-7519

>  <Uniprot>
P49841

>  <Target>
GSK-3beta

>  <Smiles>
O=C(NC1CCNCC1)C1=C(NC(=O)C2=C(Cl)C=CC=C2Cl)C=N[NH]1

>  <Kd (nM)>
11

>  <Assay (Kd)>
Kd was assessed by competition binding assays

>  <Ki (nM)>


>  <Assay (Ki)>


>  <IC50 (nM)>


>  <Assay (IC50)>


>  <EC50 (nM)>


>  <Assay (EC50)>


>  <Article DOI>
10.1038/nbt.1990

>  <Molecular Weight>
382.251

>  <Exact Mass>
381.075930144

>  <XLogP3>
2.59

>  <Heavy Atom Count>
25

>  <Ring Count>
3

>  <Hydrogen Bond Acceptor Count>
4

>  <Hydrogen Bond Donor Count>
4

>  <Rotatable Bond Count>
4

>  <Topological Polar Surface Area>
98.91

>  <Molecular Formula>
C16H17Cl2N5O2

>  <InChI>
InChI=1S/C16H17Cl2N5O2/c17-10-2-1-3-11(18)13(10)15(24)22-12-8-20-23-14(12)16(25)21-9-4-6-19-7-5-9/h1-3,8-9,19H,4-7H2,(H,20,23)(H,21,25)(H,22,24)

>  <InChI Key>
OVPNQJVDAFNBDN-UHFFFAOYSA-N

>  <BindingDB>
24654

>  <PubChem>
11338033

>  <ChEMBL>
CHEMBL445813

$$$$
Compound 263
Actelion Java MolfileCreator 2.0

  0  0  0  0  0  0              0 V3000
M  V30 BEGIN CTAB
M  V30 COUNTS 25 27 0 0 0
M  V30 BEGIN ATOM
M  V30 1 Cl 0.0 0.0 0.0 0
M  V30 2 C 0.872 -1.2138 0.0 0
M  V30 3 C 2.3569 -1.0488 0.0 0
M  V30 4 C 0.2474 -2.569 0.0 0
M  V30 5 C 3.229 -2.2626 0.0 0
M  V30 6 C 2.9579 0.3299 0.0 0
M  V30 7 C 1.1195 -3.7829 0.0 0
M  V30 8 Cl 4.7138 -2.0976 0.0 0
M  V30 9 C 2.6044 -3.6179 0.0 0
M  V30 10 O 2.0623 1.5673 0.0 0
M  V30 11 N 4.4428 0.4949 0.0 0
M  V30 12 C 5.0438 1.8737 0.0 0
M  V30 13 C 6.5051 2.1919 0.0 0
M  V30 14 C 4.2896 3.1936 0.0 0
M  V30 15 N 6.6583 3.7004 0.0 0
M  V30 16 C 7.6129 1.1902 0.0 0
M  V30 17 N 5.2913 4.325 0.0 0
M  V30 18 O 9.0388 1.6616 0.0 0
M  V30 19 N 7.2829 -0.271 0.0 0
M  V30 20 C 8.3907 -1.2727 0.0 0
M  V30 21 C 8.0607 -2.734 0.0 0
M  V30 22 C 9.8166 -0.8013 0.0 0
M  V30 23 C 9.1685 -3.7357 0.0 0
M  V30 24 C 10.9244 -1.803 0.0 0
M  V30 25 N 10.5944 -3.2643 0.0 0
M  V30 END ATOM
M  V30 BEGIN BOND
M  V30 1 1 1 2
M  V30 2 2 2 3
M  V30 3 1 2 4
M  V30 4 1 3 5
M  V30 5 1 3 6
M  V30 6 2 4 7
M  V30 7 1 5 8
M  V30 8 2 5 9
M  V30 9 2 6 10
M  V30 10 1 6 11
M  V30 11 1 11 12
M  V30 12 2 12 13
M  V30 13 1 12 14
M  V30 14 1 13 15
M  V30 15 1 13 16
M  V30 16 2 14 17
M  V30 17 2 16 18
M  V30 18 1 16 19
M  V30 19 1 19 20
M  V30 20 1 20 21
M  V30 21 1 20 22
M  V30 22 1 21 23
M  V30 23 1 22 24
M  V30 24 1 23 25
M  V30 25 1 7 9
M  V30 26 1 15 17
M  V30 27 1 24 25
M  V30 END BOND
M  V30 END CTAB
M  END
>  <Compound ID>
71

>  <Name>
AT-7519

>  <Uniprot>
Q13233

>  <Target>
MAP3K1

>  <Smiles>
O=C(NC1CCNCC1)C1=C(NC(=O)C2=C(Cl)C=CC=C2Cl)C=N[NH]1

>  <Kd (nM)>
>10000

>  <Assay (Kd)>
Kd was assessed by competition binding assays

>  <Ki (nM)>


>  <Assay (Ki)>


>  <IC50 (nM)>


>  <Assay (IC50)>


>  <EC50 (nM)>


>  <Assay (EC50)>


>  <Article DOI>
10.1038/nbt.1990

>  <Molecular Weight>
382.251

>  <Exact Mass>
381.075930144

>  <XLogP3>
2.59

>  <Heavy Atom Count>
25

>  <Ring Count>
3

>  <Hydrogen Bond Acceptor Count>
4

>  <Hydrogen Bond Donor Count>
4

>  <Rotatable Bond Count>
4

>  <Topological Polar Surface Area>
98.91

>  <Molecular Formula>
C16H17Cl2N5O2

>  <InChI>
InChI=1S/C16H17Cl2N5O2/c17-10-2-1-3-11(18)13(10)15(24)22-12-8-20-23-14(12)16(25)21-9-4-6-19-7-5-9/h1-3,8-9,19H,4-7H2,(H,20,23)(H,21,25)(H,22,24)

>  <InChI Key>
OVPNQJVDAFNBDN-UHFFFAOYSA-N

>  <BindingDB>
24654

>  <PubChem>
11338033

>  <ChEMBL>
CHEMBL445813

$$$$
Compound 264
Actelion Java MolfileCreator 2.0

  0  0  0  0  0  0              0 V3000
M  V30 BEGIN CTAB
M  V30 COUNTS 25 27 0 0 0
M  V30 BEGIN ATOM
M  V30 1 Cl 0.0 0.0 0.0 0
M  V30 2 C 0.872 -1.2138 0.0 0
M  V30 3 C 2.3569 -1.0488 0.0 0
M  V30 4 C 0.2474 -2.569 0.0 0
M  V30 5 C 3.229 -2.2626 0.0 0
M  V30 6 C 2.9579 0.3299 0.0 0
M  V30 7 C 1.1195 -3.7829 0.0 0
M  V30 8 Cl 4.7138 -2.0976 0.0 0
M  V30 9 C 2.6044 -3.6179 0.0 0
M  V30 10 O 2.0623 1.5673 0.0 0
M  V30 11 N 4.4428 0.4949 0.0 0
M  V30 12 C 5.0438 1.8737 0.0 0
M  V30 13 C 6.5051 2.1919 0.0 0
M  V30 14 C 4.2896 3.1936 0.0 0
M  V30 15 N 6.6583 3.7004 0.0 0
M  V30 16 C 7.6129 1.1902 0.0 0
M  V30 17 N 5.2913 4.325 0.0 0
M  V30 18 O 9.0388 1.6616 0.0 0
M  V30 19 N 7.2829 -0.271 0.0 0
M  V30 20 C 8.3907 -1.2727 0.0 0
M  V30 21 C 8.0607 -2.734 0.0 0
M  V30 22 C 9.8166 -0.8013 0.0 0
M  V30 23 C 9.1685 -3.7357 0.0 0
M  V30 24 C 10.9244 -1.803 0.0 0
M  V30 25 N 10.5944 -3.2643 0.0 0
M  V30 END ATOM
M  V30 BEGIN BOND
M  V30 1 1 1 2
M  V30 2 2 2 3
M  V30 3 1 2 4
M  V30 4 1 3 5
M  V30 5 1 3 6
M  V30 6 2 4 7
M  V30 7 1 5 8
M  V30 8 2 5 9
M  V30 9 2 6 10
M  V30 10 1 6 11
M  V30 11 1 11 12
M  V30 12 2 12 13
M  V30 13 1 12 14
M  V30 14 1 13 15
M  V30 15 1 13 16
M  V30 16 2 14 17
M  V30 17 2 16 18
M  V30 18 1 16 19
M  V30 19 1 19 20
M  V30 20 1 20 21
M  V30 21 1 20 22
M  V30 22 1 21 23
M  V30 23 1 22 24
M  V30 24 1 23 25
M  V30 25 1 7 9
M  V30 26 1 15 17
M  V30 27 1 24 25
M  V30 END BOND
M  V30 END CTAB
M  END
>  <Compound ID>
71

>  <Name>
AT-7519

>  <Uniprot>
O60285

>  <Target>
NUAK1

>  <Smiles>
O=C(NC1CCNCC1)C1=C(NC(=O)C2=C(Cl)C=CC=C2Cl)C=N[NH]1

>  <Kd (nM)>
>10000

>  <Assay (Kd)>
Kd was assessed by competition binding assays

>  <Ki (nM)>


>  <Assay (Ki)>


>  <IC50 (nM)>


>  <Assay (IC50)>


>  <EC50 (nM)>


>  <Assay (EC50)>


>  <Article DOI>
10.1038/nbt.1990

>  <Molecular Weight>
382.251

>  <Exact Mass>
381.075930144

>  <XLogP3>
2.59

>  <Heavy Atom Count>
25

>  <Ring Count>
3

>  <Hydrogen Bond Acceptor Count>
4

>  <Hydrogen Bond Donor Count>
4

>  <Rotatable Bond Count>
4

>  <Topological Polar Surface Area>
98.91

>  <Molecular Formula>
C16H17Cl2N5O2

>  <InChI>
InChI=1S/C16H17Cl2N5O2/c17-10-2-1-3-11(18)13(10)15(24)22-12-8-20-23-14(12)16(25)21-9-4-6-19-7-5-9/h1-3,8-9,19H,4-7H2,(H,20,23)(H,21,25)(H,22,24)

>  <InChI Key>
OVPNQJVDAFNBDN-UHFFFAOYSA-N

>  <BindingDB>
24654

>  <PubChem>
11338033

>  <ChEMBL>
CHEMBL445813

$$$$
Compound 265
Actelion Java MolfileCreator 2.0

  0  0  0  0  0  0              0 V3000
M  V30 BEGIN CTAB
M  V30 COUNTS 25 27 0 0 0
M  V30 BEGIN ATOM
M  V30 1 Cl 0.0 0.0 0.0 0
M  V30 2 C 0.872 -1.2138 0.0 0
M  V30 3 C 2.3569 -1.0488 0.0 0
M  V30 4 C 0.2474 -2.569 0.0 0
M  V30 5 C 3.229 -2.2626 0.0 0
M  V30 6 C 2.9579 0.3299 0.0 0
M  V30 7 C 1.1195 -3.7829 0.0 0
M  V30 8 Cl 4.7138 -2.0976 0.0 0
M  V30 9 C 2.6044 -3.6179 0.0 0
M  V30 10 O 2.0623 1.5673 0.0 0
M  V30 11 N 4.4428 0.4949 0.0 0
M  V30 12 C 5.0438 1.8737 0.0 0
M  V30 13 C 6.5051 2.1919 0.0 0
M  V30 14 C 4.2896 3.1936 0.0 0
M  V30 15 N 6.6583 3.7004 0.0 0
M  V30 16 C 7.6129 1.1902 0.0 0
M  V30 17 N 5.2913 4.325 0.0 0
M  V30 18 O 9.0388 1.6616 0.0 0
M  V30 19 N 7.2829 -0.271 0.0 0
M  V30 20 C 8.3907 -1.2727 0.0 0
M  V30 21 C 8.0607 -2.734 0.0 0
M  V30 22 C 9.8166 -0.8013 0.0 0
M  V30 23 C 9.1685 -3.7357 0.0 0
M  V30 24 C 10.9244 -1.803 0.0 0
M  V30 25 N 10.5944 -3.2643 0.0 0
M  V30 END ATOM
M  V30 BEGIN BOND
M  V30 1 1 1 2
M  V30 2 2 2 3
M  V30 3 1 2 4
M  V30 4 1 3 5
M  V30 5 1 3 6
M  V30 6 2 4 7
M  V30 7 1 5 8
M  V30 8 2 5 9
M  V30 9 2 6 10
M  V30 10 1 6 11
M  V30 11 1 11 12
M  V30 12 2 12 13
M  V30 13 1 12 14
M  V30 14 1 13 15
M  V30 15 1 13 16
M  V30 16 2 14 17
M  V30 17 2 16 18
M  V30 18 1 16 19
M  V30 19 1 19 20
M  V30 20 1 20 21
M  V30 21 1 20 22
M  V30 22 1 21 23
M  V30 23 1 22 24
M  V30 24 1 23 25
M  V30 25 1 7 9
M  V30 26 1 15 17
M  V30 27 1 24 25
M  V30 END BOND
M  V30 END CTAB
M  END
>  <Compound ID>
71

>  <Name>
AT-7519

>  <Uniprot>
P48736

>  <Target>
PIK3CG

>  <Smiles>
O=C(NC1CCNCC1)C1=C(NC(=O)C2=C(Cl)C=CC=C2Cl)C=N[NH]1

>  <Kd (nM)>
>10000

>  <Assay (Kd)>
Kd was assessed by competition binding assays

>  <Ki (nM)>


>  <Assay (Ki)>


>  <IC50 (nM)>


>  <Assay (IC50)>


>  <EC50 (nM)>


>  <Assay (EC50)>


>  <Article DOI>
10.1038/nbt.1990

>  <Molecular Weight>
382.251

>  <Exact Mass>
381.075930144

>  <XLogP3>
2.59

>  <Heavy Atom Count>
25

>  <Ring Count>
3

>  <Hydrogen Bond Acceptor Count>
4

>  <Hydrogen Bond Donor Count>
4

>  <Rotatable Bond Count>
4

>  <Topological Polar Surface Area>
98.91

>  <Molecular Formula>
C16H17Cl2N5O2

>  <InChI>
InChI=1S/C16H17Cl2N5O2/c17-10-2-1-3-11(18)13(10)15(24)22-12-8-20-23-14(12)16(25)21-9-4-6-19-7-5-9/h1-3,8-9,19H,4-7H2,(H,20,23)(H,21,25)(H,22,24)

>  <InChI Key>
OVPNQJVDAFNBDN-UHFFFAOYSA-N

>  <BindingDB>
24654

>  <PubChem>
11338033

>  <ChEMBL>
CHEMBL445813

$$$$
Compound 266
Actelion Java MolfileCreator 2.0

  0  0  0  0  0  0              0 V3000
M  V30 BEGIN CTAB
M  V30 COUNTS 25 27 0 0 0
M  V30 BEGIN ATOM
M  V30 1 Cl 0.0 0.0 0.0 0
M  V30 2 C 0.872 -1.2138 0.0 0
M  V30 3 C 2.3569 -1.0488 0.0 0
M  V30 4 C 0.2474 -2.569 0.0 0
M  V30 5 C 3.229 -2.2626 0.0 0
M  V30 6 C 2.9579 0.3299 0.0 0
M  V30 7 C 1.1195 -3.7829 0.0 0
M  V30 8 Cl 4.7138 -2.0976 0.0 0
M  V30 9 C 2.6044 -3.6179 0.0 0
M  V30 10 O 2.0623 1.5673 0.0 0
M  V30 11 N 4.4428 0.4949 0.0 0
M  V30 12 C 5.0438 1.8737 0.0 0
M  V30 13 C 6.5051 2.1919 0.0 0
M  V30 14 C 4.2896 3.1936 0.0 0
M  V30 15 N 6.6583 3.7004 0.0 0
M  V30 16 C 7.6129 1.1902 0.0 0
M  V30 17 N 5.2913 4.325 0.0 0
M  V30 18 O 9.0388 1.6616 0.0 0
M  V30 19 N 7.2829 -0.271 0.0 0
M  V30 20 C 8.3907 -1.2727 0.0 0
M  V30 21 C 8.0607 -2.734 0.0 0
M  V30 22 C 9.8166 -0.8013 0.0 0
M  V30 23 C 9.1685 -3.7357 0.0 0
M  V30 24 C 10.9244 -1.803 0.0 0
M  V30 25 N 10.5944 -3.2643 0.0 0
M  V30 END ATOM
M  V30 BEGIN BOND
M  V30 1 1 1 2
M  V30 2 2 2 3
M  V30 3 1 2 4
M  V30 4 1 3 5
M  V30 5 1 3 6
M  V30 6 2 4 7
M  V30 7 1 5 8
M  V30 8 2 5 9
M  V30 9 2 6 10
M  V30 10 1 6 11
M  V30 11 1 11 12
M  V30 12 2 12 13
M  V30 13 1 12 14
M  V30 14 1 13 15
M  V30 15 1 13 16
M  V30 16 2 14 17
M  V30 17 2 16 18
M  V30 18 1 16 19
M  V30 19 1 19 20
M  V30 20 1 20 21
M  V30 21 1 20 22
M  V30 22 1 21 23
M  V30 23 1 22 24
M  V30 24 1 23 25
M  V30 25 1 7 9
M  V30 26 1 15 17
M  V30 27 1 24 25
M  V30 END BOND
M  V30 END CTAB
M  END
>  <Compound ID>
71

>  <Name>
AT-7519

>  <Uniprot>
Q9P1W9

>  <Target>
PIM2

>  <Smiles>
O=C(NC1CCNCC1)C1=C(NC(=O)C2=C(Cl)C=CC=C2Cl)C=N[NH]1

>  <Kd (nM)>
>10000

>  <Assay (Kd)>
Kd was assessed by competition binding assays

>  <Ki (nM)>


>  <Assay (Ki)>


>  <IC50 (nM)>


>  <Assay (IC50)>


>  <EC50 (nM)>


>  <Assay (EC50)>


>  <Article DOI>
10.1038/nbt.1990

>  <Molecular Weight>
382.251

>  <Exact Mass>
381.075930144

>  <XLogP3>
2.59

>  <Heavy Atom Count>
25

>  <Ring Count>
3

>  <Hydrogen Bond Acceptor Count>
4

>  <Hydrogen Bond Donor Count>
4

>  <Rotatable Bond Count>
4

>  <Topological Polar Surface Area>
98.91

>  <Molecular Formula>
C16H17Cl2N5O2

>  <InChI>
InChI=1S/C16H17Cl2N5O2/c17-10-2-1-3-11(18)13(10)15(24)22-12-8-20-23-14(12)16(25)21-9-4-6-19-7-5-9/h1-3,8-9,19H,4-7H2,(H,20,23)(H,21,25)(H,22,24)

>  <InChI Key>
OVPNQJVDAFNBDN-UHFFFAOYSA-N

>  <BindingDB>
24654

>  <PubChem>
11338033

>  <ChEMBL>
CHEMBL445813

$$$$
Compound 267
Actelion Java MolfileCreator 2.0

  0  0  0  0  0  0              0 V3000
M  V30 BEGIN CTAB
M  V30 COUNTS 25 27 0 0 0
M  V30 BEGIN ATOM
M  V30 1 Cl 0.0 0.0 0.0 0
M  V30 2 C 0.872 -1.2138 0.0 0
M  V30 3 C 2.3569 -1.0488 0.0 0
M  V30 4 C 0.2474 -2.569 0.0 0
M  V30 5 C 3.229 -2.2626 0.0 0
M  V30 6 C 2.9579 0.3299 0.0 0
M  V30 7 C 1.1195 -3.7829 0.0 0
M  V30 8 Cl 4.7138 -2.0976 0.0 0
M  V30 9 C 2.6044 -3.6179 0.0 0
M  V30 10 O 2.0623 1.5673 0.0 0
M  V30 11 N 4.4428 0.4949 0.0 0
M  V30 12 C 5.0438 1.8737 0.0 0
M  V30 13 C 6.5051 2.1919 0.0 0
M  V30 14 C 4.2896 3.1936 0.0 0
M  V30 15 N 6.6583 3.7004 0.0 0
M  V30 16 C 7.6129 1.1902 0.0 0
M  V30 17 N 5.2913 4.325 0.0 0
M  V30 18 O 9.0388 1.6616 0.0 0
M  V30 19 N 7.2829 -0.271 0.0 0
M  V30 20 C 8.3907 -1.2727 0.0 0
M  V30 21 C 8.0607 -2.734 0.0 0
M  V30 22 C 9.8166 -0.8013 0.0 0
M  V30 23 C 9.1685 -3.7357 0.0 0
M  V30 24 C 10.9244 -1.803 0.0 0
M  V30 25 N 10.5944 -3.2643 0.0 0
M  V30 END ATOM
M  V30 BEGIN BOND
M  V30 1 1 1 2
M  V30 2 2 2 3
M  V30 3 1 2 4
M  V30 4 1 3 5
M  V30 5 1 3 6
M  V30 6 2 4 7
M  V30 7 1 5 8
M  V30 8 2 5 9
M  V30 9 2 6 10
M  V30 10 1 6 11
M  V30 11 1 11 12
M  V30 12 2 12 13
M  V30 13 1 12 14
M  V30 14 1 13 15
M  V30 15 1 13 16
M  V30 16 2 14 17
M  V30 17 2 16 18
M  V30 18 1 16 19
M  V30 19 1 19 20
M  V30 20 1 20 21
M  V30 21 1 20 22
M  V30 22 1 21 23
M  V30 23 1 22 24
M  V30 24 1 23 25
M  V30 25 1 7 9
M  V30 26 1 15 17
M  V30 27 1 24 25
M  V30 END BOND
M  V30 END CTAB
M  END
>  <Compound ID>
71

>  <Name>
AT-7519

>  <Uniprot>
P53350

>  <Target>
PLK1

>  <Smiles>
O=C(NC1CCNCC1)C1=C(NC(=O)C2=C(Cl)C=CC=C2Cl)C=N[NH]1

>  <Kd (nM)>
>10000

>  <Assay (Kd)>
Kd was assessed by competition binding assays

>  <Ki (nM)>


>  <Assay (Ki)>


>  <IC50 (nM)>


>  <Assay (IC50)>


>  <EC50 (nM)>


>  <Assay (EC50)>


>  <Article DOI>
10.1038/nbt.1990

>  <Molecular Weight>
382.251

>  <Exact Mass>
381.075930144

>  <XLogP3>
2.59

>  <Heavy Atom Count>
25

>  <Ring Count>
3

>  <Hydrogen Bond Acceptor Count>
4

>  <Hydrogen Bond Donor Count>
4

>  <Rotatable Bond Count>
4

>  <Topological Polar Surface Area>
98.91

>  <Molecular Formula>
C16H17Cl2N5O2

>  <InChI>
InChI=1S/C16H17Cl2N5O2/c17-10-2-1-3-11(18)13(10)15(24)22-12-8-20-23-14(12)16(25)21-9-4-6-19-7-5-9/h1-3,8-9,19H,4-7H2,(H,20,23)(H,21,25)(H,22,24)

>  <InChI Key>
OVPNQJVDAFNBDN-UHFFFAOYSA-N

>  <BindingDB>
24654

>  <PubChem>
11338033

>  <ChEMBL>
CHEMBL445813

$$$$
Compound 268
Actelion Java MolfileCreator 2.0

  0  0  0  0  0  0              0 V3000
M  V30 BEGIN CTAB
M  V30 COUNTS 25 27 0 0 0
M  V30 BEGIN ATOM
M  V30 1 Cl 0.0 0.0 0.0 0
M  V30 2 C 0.872 -1.2138 0.0 0
M  V30 3 C 2.3569 -1.0488 0.0 0
M  V30 4 C 0.2474 -2.569 0.0 0
M  V30 5 C 3.229 -2.2626 0.0 0
M  V30 6 C 2.9579 0.3299 0.0 0
M  V30 7 C 1.1195 -3.7829 0.0 0
M  V30 8 Cl 4.7138 -2.0976 0.0 0
M  V30 9 C 2.6044 -3.6179 0.0 0
M  V30 10 O 2.0623 1.5673 0.0 0
M  V30 11 N 4.4428 0.4949 0.0 0
M  V30 12 C 5.0438 1.8737 0.0 0
M  V30 13 C 6.5051 2.1919 0.0 0
M  V30 14 C 4.2896 3.1936 0.0 0
M  V30 15 N 6.6583 3.7004 0.0 0
M  V30 16 C 7.6129 1.1902 0.0 0
M  V30 17 N 5.2913 4.325 0.0 0
M  V30 18 O 9.0388 1.6616 0.0 0
M  V30 19 N 7.2829 -0.271 0.0 0
M  V30 20 C 8.3907 -1.2727 0.0 0
M  V30 21 C 8.0607 -2.734 0.0 0
M  V30 22 C 9.8166 -0.8013 0.0 0
M  V30 23 C 9.1685 -3.7357 0.0 0
M  V30 24 C 10.9244 -1.803 0.0 0
M  V30 25 N 10.5944 -3.2643 0.0 0
M  V30 END ATOM
M  V30 BEGIN BOND
M  V30 1 1 1 2
M  V30 2 2 2 3
M  V30 3 1 2 4
M  V30 4 1 3 5
M  V30 5 1 3 6
M  V30 6 2 4 7
M  V30 7 1 5 8
M  V30 8 2 5 9
M  V30 9 2 6 10
M  V30 10 1 6 11
M  V30 11 1 11 12
M  V30 12 2 12 13
M  V30 13 1 12 14
M  V30 14 1 13 15
M  V30 15 1 13 16
M  V30 16 2 14 17
M  V30 17 2 16 18
M  V30 18 1 16 19
M  V30 19 1 19 20
M  V30 20 1 20 21
M  V30 21 1 20 22
M  V30 22 1 21 23
M  V30 23 1 22 24
M  V30 24 1 23 25
M  V30 25 1 7 9
M  V30 26 1 15 17
M  V30 27 1 24 25
M  V30 END BOND
M  V30 END CTAB
M  END
>  <Compound ID>
71

>  <Name>
AT-7519

>  <Uniprot>
Q9BVS4

>  <Target>
RIOK2

>  <Smiles>
O=C(NC1CCNCC1)C1=C(NC(=O)C2=C(Cl)C=CC=C2Cl)C=N[NH]1

>  <Kd (nM)>
>10000

>  <Assay (Kd)>
Kd was assessed by competition binding assays

>  <Ki (nM)>


>  <Assay (Ki)>


>  <IC50 (nM)>


>  <Assay (IC50)>


>  <EC50 (nM)>


>  <Assay (EC50)>


>  <Article DOI>
10.1038/nbt.1990

>  <Molecular Weight>
382.251

>  <Exact Mass>
381.075930144

>  <XLogP3>
2.59

>  <Heavy Atom Count>
25

>  <Ring Count>
3

>  <Hydrogen Bond Acceptor Count>
4

>  <Hydrogen Bond Donor Count>
4

>  <Rotatable Bond Count>
4

>  <Topological Polar Surface Area>
98.91

>  <Molecular Formula>
C16H17Cl2N5O2

>  <InChI>
InChI=1S/C16H17Cl2N5O2/c17-10-2-1-3-11(18)13(10)15(24)22-12-8-20-23-14(12)16(25)21-9-4-6-19-7-5-9/h1-3,8-9,19H,4-7H2,(H,20,23)(H,21,25)(H,22,24)

>  <InChI Key>
OVPNQJVDAFNBDN-UHFFFAOYSA-N

>  <BindingDB>
24654

>  <PubChem>
11338033

>  <ChEMBL>
CHEMBL445813

$$$$
Compound 269
Actelion Java MolfileCreator 2.0

  0  0  0  0  0  0              0 V3000
M  V30 BEGIN CTAB
M  V30 COUNTS 25 27 0 0 0
M  V30 BEGIN ATOM
M  V30 1 Cl 0.0 0.0 0.0 0
M  V30 2 C 0.872 -1.2138 0.0 0
M  V30 3 C 2.3569 -1.0488 0.0 0
M  V30 4 C 0.2474 -2.569 0.0 0
M  V30 5 C 3.229 -2.2626 0.0 0
M  V30 6 C 2.9579 0.3299 0.0 0
M  V30 7 C 1.1195 -3.7829 0.0 0
M  V30 8 Cl 4.7138 -2.0976 0.0 0
M  V30 9 C 2.6044 -3.6179 0.0 0
M  V30 10 O 2.0623 1.5673 0.0 0
M  V30 11 N 4.4428 0.4949 0.0 0
M  V30 12 C 5.0438 1.8737 0.0 0
M  V30 13 C 6.5051 2.1919 0.0 0
M  V30 14 C 4.2896 3.1936 0.0 0
M  V30 15 N 6.6583 3.7004 0.0 0
M  V30 16 C 7.6129 1.1902 0.0 0
M  V30 17 N 5.2913 4.325 0.0 0
M  V30 18 O 9.0388 1.6616 0.0 0
M  V30 19 N 7.2829 -0.271 0.0 0
M  V30 20 C 8.3907 -1.2727 0.0 0
M  V30 21 C 8.0607 -2.734 0.0 0
M  V30 22 C 9.8166 -0.8013 0.0 0
M  V30 23 C 9.1685 -3.7357 0.0 0
M  V30 24 C 10.9244 -1.803 0.0 0
M  V30 25 N 10.5944 -3.2643 0.0 0
M  V30 END ATOM
M  V30 BEGIN BOND
M  V30 1 1 1 2
M  V30 2 2 2 3
M  V30 3 1 2 4
M  V30 4 1 3 5
M  V30 5 1 3 6
M  V30 6 2 4 7
M  V30 7 1 5 8
M  V30 8 2 5 9
M  V30 9 2 6 10
M  V30 10 1 6 11
M  V30 11 1 11 12
M  V30 12 2 12 13
M  V30 13 1 12 14
M  V30 14 1 13 15
M  V30 15 1 13 16
M  V30 16 2 14 17
M  V30 17 2 16 18
M  V30 18 1 16 19
M  V30 19 1 19 20
M  V30 20 1 20 21
M  V30 21 1 20 22
M  V30 22 1 21 23
M  V30 23 1 22 24
M  V30 24 1 23 25
M  V30 25 1 7 9
M  V30 26 1 15 17
M  V30 27 1 24 25
M  V30 END BOND
M  V30 END CTAB
M  END
>  <Compound ID>
71

>  <Name>
AT-7519

>  <Uniprot>
Q96BR1

>  <Target>
SGK3

>  <Smiles>
O=C(NC1CCNCC1)C1=C(NC(=O)C2=C(Cl)C=CC=C2Cl)C=N[NH]1

>  <Kd (nM)>
>10000

>  <Assay (Kd)>
Kd was assessed by competition binding assays

>  <Ki (nM)>


>  <Assay (Ki)>


>  <IC50 (nM)>


>  <Assay (IC50)>


>  <EC50 (nM)>


>  <Assay (EC50)>


>  <Article DOI>
10.1038/nbt.1990

>  <Molecular Weight>
382.251

>  <Exact Mass>
381.075930144

>  <XLogP3>
2.59

>  <Heavy Atom Count>
25

>  <Ring Count>
3

>  <Hydrogen Bond Acceptor Count>
4

>  <Hydrogen Bond Donor Count>
4

>  <Rotatable Bond Count>
4

>  <Topological Polar Surface Area>
98.91

>  <Molecular Formula>
C16H17Cl2N5O2

>  <InChI>
InChI=1S/C16H17Cl2N5O2/c17-10-2-1-3-11(18)13(10)15(24)22-12-8-20-23-14(12)16(25)21-9-4-6-19-7-5-9/h1-3,8-9,19H,4-7H2,(H,20,23)(H,21,25)(H,22,24)

>  <InChI Key>
OVPNQJVDAFNBDN-UHFFFAOYSA-N

>  <BindingDB>
24654

>  <PubChem>
11338033

>  <ChEMBL>
CHEMBL445813

$$$$
Compound 270
Actelion Java MolfileCreator 2.0

  0  0  0  0  0  0              0 V3000
M  V30 BEGIN CTAB
M  V30 COUNTS 25 27 0 0 0
M  V30 BEGIN ATOM
M  V30 1 Cl 0.0 0.0 0.0 0
M  V30 2 C 0.872 -1.2138 0.0 0
M  V30 3 C 2.3569 -1.0488 0.0 0
M  V30 4 C 0.2474 -2.569 0.0 0
M  V30 5 C 3.229 -2.2626 0.0 0
M  V30 6 C 2.9579 0.3299 0.0 0
M  V30 7 C 1.1195 -3.7829 0.0 0
M  V30 8 Cl 4.7138 -2.0976 0.0 0
M  V30 9 C 2.6044 -3.6179 0.0 0
M  V30 10 O 2.0623 1.5673 0.0 0
M  V30 11 N 4.4428 0.4949 0.0 0
M  V30 12 C 5.0438 1.8737 0.0 0
M  V30 13 C 6.5051 2.1919 0.0 0
M  V30 14 C 4.2896 3.1936 0.0 0
M  V30 15 N 6.6583 3.7004 0.0 0
M  V30 16 C 7.6129 1.1902 0.0 0
M  V30 17 N 5.2913 4.325 0.0 0
M  V30 18 O 9.0388 1.6616 0.0 0
M  V30 19 N 7.2829 -0.271 0.0 0
M  V30 20 C 8.3907 -1.2727 0.0 0
M  V30 21 C 8.0607 -2.734 0.0 0
M  V30 22 C 9.8166 -0.8013 0.0 0
M  V30 23 C 9.1685 -3.7357 0.0 0
M  V30 24 C 10.9244 -1.803 0.0 0
M  V30 25 N 10.5944 -3.2643 0.0 0
M  V30 END ATOM
M  V30 BEGIN BOND
M  V30 1 1 1 2
M  V30 2 2 2 3
M  V30 3 1 2 4
M  V30 4 1 3 5
M  V30 5 1 3 6
M  V30 6 2 4 7
M  V30 7 1 5 8
M  V30 8 2 5 9
M  V30 9 2 6 10
M  V30 10 1 6 11
M  V30 11 1 11 12
M  V30 12 2 12 13
M  V30 13 1 12 14
M  V30 14 1 13 15
M  V30 15 1 13 16
M  V30 16 2 14 17
M  V30 17 2 16 18
M  V30 18 1 16 19
M  V30 19 1 19 20
M  V30 20 1 20 21
M  V30 21 1 20 22
M  V30 22 1 21 23
M  V30 23 1 22 24
M  V30 24 1 23 25
M  V30 25 1 7 9
M  V30 26 1 15 17
M  V30 27 1 24 25
M  V30 END BOND
M  V30 END CTAB
M  END
>  <Compound ID>
71

>  <Name>
AT-7519

>  <Uniprot>
Q9UEE5

>  <Target>
STK17A

>  <Smiles>
O=C(NC1CCNCC1)C1=C(NC(=O)C2=C(Cl)C=CC=C2Cl)C=N[NH]1

>  <Kd (nM)>
>10000

>  <Assay (Kd)>
Kd was assessed by competition binding assays

>  <Ki (nM)>


>  <Assay (Ki)>


>  <IC50 (nM)>


>  <Assay (IC50)>


>  <EC50 (nM)>


>  <Assay (EC50)>


>  <Article DOI>
10.1038/nbt.1990

>  <Molecular Weight>
382.251

>  <Exact Mass>
381.075930144

>  <XLogP3>
2.59

>  <Heavy Atom Count>
25

>  <Ring Count>
3

>  <Hydrogen Bond Acceptor Count>
4

>  <Hydrogen Bond Donor Count>
4

>  <Rotatable Bond Count>
4

>  <Topological Polar Surface Area>
98.91

>  <Molecular Formula>
C16H17Cl2N5O2

>  <InChI>
InChI=1S/C16H17Cl2N5O2/c17-10-2-1-3-11(18)13(10)15(24)22-12-8-20-23-14(12)16(25)21-9-4-6-19-7-5-9/h1-3,8-9,19H,4-7H2,(H,20,23)(H,21,25)(H,22,24)

>  <InChI Key>
OVPNQJVDAFNBDN-UHFFFAOYSA-N

>  <BindingDB>
24654

>  <PubChem>
11338033

>  <ChEMBL>
CHEMBL445813

$$$$
Compound 271
Actelion Java MolfileCreator 2.0

  0  0  0  0  0  0              0 V3000
M  V30 BEGIN CTAB
M  V30 COUNTS 25 27 0 0 0
M  V30 BEGIN ATOM
M  V30 1 Cl 0.0 0.0 0.0 0
M  V30 2 C 0.872 -1.2138 0.0 0
M  V30 3 C 2.3569 -1.0488 0.0 0
M  V30 4 C 0.2474 -2.569 0.0 0
M  V30 5 C 3.229 -2.2626 0.0 0
M  V30 6 C 2.9579 0.3299 0.0 0
M  V30 7 C 1.1195 -3.7829 0.0 0
M  V30 8 Cl 4.7138 -2.0976 0.0 0
M  V30 9 C 2.6044 -3.6179 0.0 0
M  V30 10 O 2.0623 1.5673 0.0 0
M  V30 11 N 4.4428 0.4949 0.0 0
M  V30 12 C 5.0438 1.8737 0.0 0
M  V30 13 C 6.5051 2.1919 0.0 0
M  V30 14 C 4.2896 3.1936 0.0 0
M  V30 15 N 6.6583 3.7004 0.0 0
M  V30 16 C 7.6129 1.1902 0.0 0
M  V30 17 N 5.2913 4.325 0.0 0
M  V30 18 O 9.0388 1.6616 0.0 0
M  V30 19 N 7.2829 -0.271 0.0 0
M  V30 20 C 8.3907 -1.2727 0.0 0
M  V30 21 C 8.0607 -2.734 0.0 0
M  V30 22 C 9.8166 -0.8013 0.0 0
M  V30 23 C 9.1685 -3.7357 0.0 0
M  V30 24 C 10.9244 -1.803 0.0 0
M  V30 25 N 10.5944 -3.2643 0.0 0
M  V30 END ATOM
M  V30 BEGIN BOND
M  V30 1 1 1 2
M  V30 2 2 2 3
M  V30 3 1 2 4
M  V30 4 1 3 5
M  V30 5 1 3 6
M  V30 6 2 4 7
M  V30 7 1 5 8
M  V30 8 2 5 9
M  V30 9 2 6 10
M  V30 10 1 6 11
M  V30 11 1 11 12
M  V30 12 2 12 13
M  V30 13 1 12 14
M  V30 14 1 13 15
M  V30 15 1 13 16
M  V30 16 2 14 17
M  V30 17 2 16 18
M  V30 18 1 16 19
M  V30 19 1 19 20
M  V30 20 1 20 21
M  V30 21 1 20 22
M  V30 22 1 21 23
M  V30 23 1 22 24
M  V30 24 1 23 25
M  V30 25 1 7 9
M  V30 26 1 15 17
M  V30 27 1 24 25
M  V30 END BOND
M  V30 END CTAB
M  END
>  <Compound ID>
71

>  <Name>
AT-7519

>  <Uniprot>
O94768

>  <Target>
STK17B

>  <Smiles>
O=C(NC1CCNCC1)C1=C(NC(=O)C2=C(Cl)C=CC=C2Cl)C=N[NH]1

>  <Kd (nM)>
>10000

>  <Assay (Kd)>
Kd was assessed by competition binding assays

>  <Ki (nM)>


>  <Assay (Ki)>


>  <IC50 (nM)>


>  <Assay (IC50)>


>  <EC50 (nM)>


>  <Assay (EC50)>


>  <Article DOI>
10.1038/nbt.1990

>  <Molecular Weight>
382.251

>  <Exact Mass>
381.075930144

>  <XLogP3>
2.59

>  <Heavy Atom Count>
25

>  <Ring Count>
3

>  <Hydrogen Bond Acceptor Count>
4

>  <Hydrogen Bond Donor Count>
4

>  <Rotatable Bond Count>
4

>  <Topological Polar Surface Area>
98.91

>  <Molecular Formula>
C16H17Cl2N5O2

>  <InChI>
InChI=1S/C16H17Cl2N5O2/c17-10-2-1-3-11(18)13(10)15(24)22-12-8-20-23-14(12)16(25)21-9-4-6-19-7-5-9/h1-3,8-9,19H,4-7H2,(H,20,23)(H,21,25)(H,22,24)

>  <InChI Key>
OVPNQJVDAFNBDN-UHFFFAOYSA-N

>  <BindingDB>
24654

>  <PubChem>
11338033

>  <ChEMBL>
CHEMBL445813

$$$$
Compound 272
Actelion Java MolfileCreator 2.0

  0  0  0  0  0  0              0 V3000
M  V30 BEGIN CTAB
M  V30 COUNTS 25 27 0 0 0
M  V30 BEGIN ATOM
M  V30 1 Cl 0.0 0.0 0.0 0
M  V30 2 C 0.872 -1.2138 0.0 0
M  V30 3 C 2.3569 -1.0488 0.0 0
M  V30 4 C 0.2474 -2.569 0.0 0
M  V30 5 C 3.229 -2.2626 0.0 0
M  V30 6 C 2.9579 0.3299 0.0 0
M  V30 7 C 1.1195 -3.7829 0.0 0
M  V30 8 Cl 4.7138 -2.0976 0.0 0
M  V30 9 C 2.6044 -3.6179 0.0 0
M  V30 10 O 2.0623 1.5673 0.0 0
M  V30 11 N 4.4428 0.4949 0.0 0
M  V30 12 C 5.0438 1.8737 0.0 0
M  V30 13 C 6.5051 2.1919 0.0 0
M  V30 14 C 4.2896 3.1936 0.0 0
M  V30 15 N 6.6583 3.7004 0.0 0
M  V30 16 C 7.6129 1.1902 0.0 0
M  V30 17 N 5.2913 4.325 0.0 0
M  V30 18 O 9.0388 1.6616 0.0 0
M  V30 19 N 7.2829 -0.271 0.0 0
M  V30 20 C 8.3907 -1.2727 0.0 0
M  V30 21 C 8.0607 -2.734 0.0 0
M  V30 22 C 9.8166 -0.8013 0.0 0
M  V30 23 C 9.1685 -3.7357 0.0 0
M  V30 24 C 10.9244 -1.803 0.0 0
M  V30 25 N 10.5944 -3.2643 0.0 0
M  V30 END ATOM
M  V30 BEGIN BOND
M  V30 1 1 1 2
M  V30 2 2 2 3
M  V30 3 1 2 4
M  V30 4 1 3 5
M  V30 5 1 3 6
M  V30 6 2 4 7
M  V30 7 1 5 8
M  V30 8 2 5 9
M  V30 9 2 6 10
M  V30 10 1 6 11
M  V30 11 1 11 12
M  V30 12 2 12 13
M  V30 13 1 12 14
M  V30 14 1 13 15
M  V30 15 1 13 16
M  V30 16 2 14 17
M  V30 17 2 16 18
M  V30 18 1 16 19
M  V30 19 1 19 20
M  V30 20 1 20 21
M  V30 21 1 20 22
M  V30 22 1 21 23
M  V30 23 1 22 24
M  V30 24 1 23 25
M  V30 25 1 7 9
M  V30 26 1 15 17
M  V30 27 1 24 25
M  V30 END BOND
M  V30 END CTAB
M  END
>  <Compound ID>
71

>  <Name>
AT-7519

>  <Uniprot>
P33981

>  <Target>
TTK

>  <Smiles>
O=C(NC1CCNCC1)C1=C(NC(=O)C2=C(Cl)C=CC=C2Cl)C=N[NH]1

>  <Kd (nM)>
>10000

>  <Assay (Kd)>
Kd was assessed by competition binding assays

>  <Ki (nM)>


>  <Assay (Ki)>


>  <IC50 (nM)>


>  <Assay (IC50)>


>  <EC50 (nM)>


>  <Assay (EC50)>


>  <Article DOI>
10.1038/nbt.1990

>  <Molecular Weight>
382.251

>  <Exact Mass>
381.075930144

>  <XLogP3>
2.59

>  <Heavy Atom Count>
25

>  <Ring Count>
3

>  <Hydrogen Bond Acceptor Count>
4

>  <Hydrogen Bond Donor Count>
4

>  <Rotatable Bond Count>
4

>  <Topological Polar Surface Area>
98.91

>  <Molecular Formula>
C16H17Cl2N5O2

>  <InChI>
InChI=1S/C16H17Cl2N5O2/c17-10-2-1-3-11(18)13(10)15(24)22-12-8-20-23-14(12)16(25)21-9-4-6-19-7-5-9/h1-3,8-9,19H,4-7H2,(H,20,23)(H,21,25)(H,22,24)

>  <InChI Key>
OVPNQJVDAFNBDN-UHFFFAOYSA-N

>  <BindingDB>
24654

>  <PubChem>
11338033

>  <ChEMBL>
CHEMBL445813

$$$$
Compound 273
Actelion Java MolfileCreator 2.0

  0  0  0  0  0  0              0 V3000
M  V30 BEGIN CTAB
M  V30 COUNTS 25 27 0 0 0
M  V30 BEGIN ATOM
M  V30 1 Cl 0.0 0.0 0.0 0
M  V30 2 C 0.872 -1.2138 0.0 0
M  V30 3 C 2.3569 -1.0488 0.0 0
M  V30 4 C 0.2474 -2.569 0.0 0
M  V30 5 C 3.229 -2.2626 0.0 0
M  V30 6 C 2.9579 0.3299 0.0 0
M  V30 7 C 1.1195 -3.7829 0.0 0
M  V30 8 Cl 4.7138 -2.0976 0.0 0
M  V30 9 C 2.6044 -3.6179 0.0 0
M  V30 10 O 2.0623 1.5673 0.0 0
M  V30 11 N 4.4428 0.4949 0.0 0
M  V30 12 C 5.0438 1.8737 0.0 0
M  V30 13 C 6.5051 2.1919 0.0 0
M  V30 14 C 4.2896 3.1936 0.0 0
M  V30 15 N 6.6583 3.7004 0.0 0
M  V30 16 C 7.6129 1.1902 0.0 0
M  V30 17 N 5.2913 4.325 0.0 0
M  V30 18 O 9.0388 1.6616 0.0 0
M  V30 19 N 7.2829 -0.271 0.0 0
M  V30 20 C 8.3907 -1.2727 0.0 0
M  V30 21 C 8.0607 -2.734 0.0 0
M  V30 22 C 9.8166 -0.8013 0.0 0
M  V30 23 C 9.1685 -3.7357 0.0 0
M  V30 24 C 10.9244 -1.803 0.0 0
M  V30 25 N 10.5944 -3.2643 0.0 0
M  V30 END ATOM
M  V30 BEGIN BOND
M  V30 1 1 1 2
M  V30 2 2 2 3
M  V30 3 1 2 4
M  V30 4 1 3 5
M  V30 5 1 3 6
M  V30 6 2 4 7
M  V30 7 1 5 8
M  V30 8 2 5 9
M  V30 9 2 6 10
M  V30 10 1 6 11
M  V30 11 1 11 12
M  V30 12 2 12 13
M  V30 13 1 12 14
M  V30 14 1 13 15
M  V30 15 1 13 16
M  V30 16 2 14 17
M  V30 17 2 16 18
M  V30 18 1 16 19
M  V30 19 1 19 20
M  V30 20 1 20 21
M  V30 21 1 20 22
M  V30 22 1 21 23
M  V30 23 1 22 24
M  V30 24 1 23 25
M  V30 25 1 7 9
M  V30 26 1 15 17
M  V30 27 1 24 25
M  V30 END BOND
M  V30 END CTAB
M  END
>  <Compound ID>
71

>  <Name>
AT-7519

>  <Uniprot>
Q8TAS1

>  <Target>
UHMK1

>  <Smiles>
O=C(NC1CCNCC1)C1=C(NC(=O)C2=C(Cl)C=CC=C2Cl)C=N[NH]1

>  <Kd (nM)>


>  <Assay (Kd)>


>  <Ki (nM)>


>  <Assay (Ki)>


>  <IC50 (nM)>


>  <Assay (IC50)>


>  <EC50 (nM)>


>  <Assay (EC50)>


>  <Article DOI>
10.1016/j.cell.2020.10.038

>  <Molecular Weight>
382.251

>  <Exact Mass>
381.075930144

>  <XLogP3>
2.59

>  <Heavy Atom Count>
25

>  <Ring Count>
3

>  <Hydrogen Bond Acceptor Count>
4

>  <Hydrogen Bond Donor Count>
4

>  <Rotatable Bond Count>
4

>  <Topological Polar Surface Area>
98.91

>  <Molecular Formula>
C16H17Cl2N5O2

>  <InChI>
InChI=1S/C16H17Cl2N5O2/c17-10-2-1-3-11(18)13(10)15(24)22-12-8-20-23-14(12)16(25)21-9-4-6-19-7-5-9/h1-3,8-9,19H,4-7H2,(H,20,23)(H,21,25)(H,22,24)

>  <InChI Key>
OVPNQJVDAFNBDN-UHFFFAOYSA-N

>  <BindingDB>
24654

>  <PubChem>
11338033

>  <ChEMBL>
CHEMBL445813

$$$$
Compound 274
Actelion Java MolfileCreator 2.0

  0  0  0  0  0  0              0 V3000
M  V30 BEGIN CTAB
M  V30 COUNTS 25 27 0 0 0
M  V30 BEGIN ATOM
M  V30 1 Cl 0.0 0.0 0.0 0
M  V30 2 C 0.872 -1.2138 0.0 0
M  V30 3 C 2.3569 -1.0488 0.0 0
M  V30 4 C 0.2474 -2.569 0.0 0
M  V30 5 C 3.229 -2.2626 0.0 0
M  V30 6 C 2.9579 0.3299 0.0 0
M  V30 7 C 1.1195 -3.7829 0.0 0
M  V30 8 Cl 4.7138 -2.0976 0.0 0
M  V30 9 C 2.6044 -3.6179 0.0 0
M  V30 10 O 2.0623 1.5673 0.0 0
M  V30 11 N 4.4428 0.4949 0.0 0
M  V30 12 C 5.0438 1.8737 0.0 0
M  V30 13 C 6.5051 2.1919 0.0 0
M  V30 14 C 4.2896 3.1936 0.0 0
M  V30 15 N 6.6583 3.7004 0.0 0
M  V30 16 C 7.6129 1.1902 0.0 0
M  V30 17 N 5.2913 4.325 0.0 0
M  V30 18 O 9.0388 1.6616 0.0 0
M  V30 19 N 7.2829 -0.271 0.0 0
M  V30 20 C 8.3907 -1.2727 0.0 0
M  V30 21 C 8.0607 -2.734 0.0 0
M  V30 22 C 9.8166 -0.8013 0.0 0
M  V30 23 C 9.1685 -3.7357 0.0 0
M  V30 24 C 10.9244 -1.803 0.0 0
M  V30 25 N 10.5944 -3.2643 0.0 0
M  V30 END ATOM
M  V30 BEGIN BOND
M  V30 1 1 1 2
M  V30 2 2 2 3
M  V30 3 1 2 4
M  V30 4 1 3 5
M  V30 5 1 3 6
M  V30 6 2 4 7
M  V30 7 1 5 8
M  V30 8 2 5 9
M  V30 9 2 6 10
M  V30 10 1 6 11
M  V30 11 1 11 12
M  V30 12 2 12 13
M  V30 13 1 12 14
M  V30 14 1 13 15
M  V30 15 1 13 16
M  V30 16 2 14 17
M  V30 17 2 16 18
M  V30 18 1 16 19
M  V30 19 1 19 20
M  V30 20 1 20 21
M  V30 21 1 20 22
M  V30 22 1 21 23
M  V30 23 1 22 24
M  V30 24 1 23 25
M  V30 25 1 7 9
M  V30 26 1 15 17
M  V30 27 1 24 25
M  V30 END BOND
M  V30 END CTAB
M  END
>  <Compound ID>
71

>  <Name>
AT-7519

>  <Uniprot>
P30291

>  <Target>
Wee1

>  <Smiles>
O=C(NC1CCNCC1)C1=C(NC(=O)C2=C(Cl)C=CC=C2Cl)C=N[NH]1

>  <Kd (nM)>
>10000

>  <Assay (Kd)>
Kd was assessed by competition binding assays

>  <Ki (nM)>


>  <Assay (Ki)>


>  <IC50 (nM)>


>  <Assay (IC50)>


>  <EC50 (nM)>


>  <Assay (EC50)>


>  <Article DOI>
10.1038/nbt.1990

>  <Molecular Weight>
382.251

>  <Exact Mass>
381.075930144

>  <XLogP3>
2.59

>  <Heavy Atom Count>
25

>  <Ring Count>
3

>  <Hydrogen Bond Acceptor Count>
4

>  <Hydrogen Bond Donor Count>
4

>  <Rotatable Bond Count>
4

>  <Topological Polar Surface Area>
98.91

>  <Molecular Formula>
C16H17Cl2N5O2

>  <InChI>
InChI=1S/C16H17Cl2N5O2/c17-10-2-1-3-11(18)13(10)15(24)22-12-8-20-23-14(12)16(25)21-9-4-6-19-7-5-9/h1-3,8-9,19H,4-7H2,(H,20,23)(H,21,25)(H,22,24)

>  <InChI Key>
OVPNQJVDAFNBDN-UHFFFAOYSA-N

>  <BindingDB>
24654

>  <PubChem>
11338033

>  <ChEMBL>
CHEMBL445813

$$$$
Compound 275
Actelion Java MolfileCreator 2.0

  0  0  0  0  0  0              0 V3000
M  V30 BEGIN CTAB
M  V30 COUNTS 32 36 0 0 0
M  V30 BEGIN ATOM
M  V30 1 O 0.0 0.0 0.0 0
M  V30 2 C 0.3063 -1.4491 0.0 0
M  V30 3 N -0.8129 -2.4387 0.0 0
M  V30 4 C 1.72 -1.8968 0.0 0
M  V30 5 C -2.2502 -1.9674 0.0 0
M  V30 6 N 2.1795 -3.3105 0.0 0
M  V30 7 C 2.9099 -1.0014 0.0 0
M  V30 8 C -3.3694 -2.9571 0.0 0
M  V30 9 C -2.5801 -0.4948 0.0 0
M  V30 10 N 3.664 -3.2987 0.0 0
M  V30 11 N 2.8982 0.5065 0.0 0
M  V30 12 C 4.1117 -1.8614 0.0 0
M  V30 13 C -4.8068 -2.4858 0.0 0
M  V30 14 C -4.0174 -0.0235 0.0 0
M  V30 15 C 4.1823 1.2723 0.0 0
M  V30 16 C -5.1366 -1.0131 0.0 0
M  V30 17 N 5.4665 0.5419 0.0 0
M  V30 18 C 4.1706 2.7804 0.0 0
M  V30 19 C -6.574 -0.5419 0.0 0
M  V30 20 C 6.7507 1.3077 0.0 0
M  V30 21 C 5.4547 3.5461 0.0 0
M  V30 22 C 3.0395 3.7936 0.0 0
M  V30 23 N -6.9038 0.9307 0.0 0
M  V30 24 N 6.7389 2.8157 0.0 0
M  V30 25 N 5.1248 5.0188 0.0 0
M  V30 26 C 3.6286 5.172 0.0 0
M  V30 27 C -5.8082 1.9439 0.0 0
M  V30 28 C -8.3412 1.4019 0.0 0
M  V30 29 C -6.138 3.4165 0.0 0
M  V30 30 C -8.671 2.8746 0.0 0
M  V30 31 N -7.5754 3.8878 0.0 0
M  V30 32 C -7.9053 5.3605 0.0 0
M  V30 END ATOM
M  V30 BEGIN BOND
M  V30 1 2 1 2
M  V30 2 1 2 3
M  V30 3 1 2 4
M  V30 4 1 3 5
M  V30 5 1 4 6
M  V30 6 2 4 7
M  V30 7 2 5 8
M  V30 8 1 5 9
M  V30 9 1 6 10
M  V30 10 1 7 11
M  V30 11 1 7 12
M  V30 12 1 8 13
M  V30 13 2 9 14
M  V30 14 1 11 15
M  V30 15 2 13 16
M  V30 16 2 15 17
M  V30 17 1 15 18
M  V30 18 1 16 19
M  V30 19 1 17 20
M  V30 20 2 18 21
M  V30 21 1 18 22
M  V30 22 1 19 23
M  V30 23 2 20 24
M  V30 24 1 21 25
M  V30 25 2 22 26
M  V30 26 1 23 27
M  V30 27 1 23 28
M  V30 28 1 27 29
M  V30 29 1 28 30
M  V30 30 1 29 31
M  V30 31 1 31 32
M  V30 32 2 10 12
M  V30 33 1 14 16
M  V30 34 1 21 24
M  V30 35 1 25 26
M  V30 36 1 30 31
M  V30 END BOND
M  V30 END CTAB
M  END
>  <Compound ID>
72

>  <Name>
FN-1501

>  <Uniprot>
P24941

>  <Target>
CDK2

>  <Smiles>
CN1CCN(CC2=CC=C(NC(=O)C3=C(NC4=NC=NC5=C4C=C[NH]5)C=N[NH]3)C=C2)CC1

>  <Kd (nM)>


>  <Assay (Kd)>


>  <Ki (nM)>


>  <Assay (Ki)>


>  <IC50 (nM)>
2.47

>  <Assay (IC50)>
IC50 of CDK2 was determined by using a Hot-SpotSM kinase assay

>  <EC50 (nM)>


>  <Assay (EC50)>


>  <Article DOI>
10.1021/acs.jmedchem.7b01261

>  <Molecular Weight>
431.504

>  <Exact Mass>
431.21820642

>  <XLogP3>
2.2

>  <Heavy Atom Count>
32

>  <Ring Count>
5

>  <Hydrogen Bond Acceptor Count>
7

>  <Hydrogen Bond Donor Count>
4

>  <Rotatable Bond Count>
6

>  <Topological Polar Surface Area>
117.86

>  <Molecular Formula>
C22H25N9O

>  <InChI>
InChI=1S/C22H25N9O/c1-30-8-10-31(11-9-30)13-15-2-4-16(5-3-15)27-22(32)19-18(12-26-29-19)28-21-17-6-7-23-20(17)24-14-25-21/h2-7,12,14H,8-11,13H2,1H3,(H,26,29)(H,27,32)(H2,23,24,25,28)

>  <InChI Key>
VXLAKHWYGRKCGI-UHFFFAOYSA-N

>  <BindingDB>
50270304

>  <PubChem>
72195175

>  <ChEMBL>
CHEMBL4077071

$$$$
Compound 276
Actelion Java MolfileCreator 2.0

  0  0  0  0  0  0              0 V3000
M  V30 BEGIN CTAB
M  V30 COUNTS 32 36 0 0 0
M  V30 BEGIN ATOM
M  V30 1 O 0.0 0.0 0.0 0
M  V30 2 C 0.3063 -1.4491 0.0 0
M  V30 3 N -0.8129 -2.4387 0.0 0
M  V30 4 C 1.72 -1.8968 0.0 0
M  V30 5 C -2.2502 -1.9674 0.0 0
M  V30 6 N 2.1795 -3.3105 0.0 0
M  V30 7 C 2.9099 -1.0014 0.0 0
M  V30 8 C -3.3694 -2.9571 0.0 0
M  V30 9 C -2.5801 -0.4948 0.0 0
M  V30 10 N 3.664 -3.2987 0.0 0
M  V30 11 N 2.8982 0.5065 0.0 0
M  V30 12 C 4.1117 -1.8614 0.0 0
M  V30 13 C -4.8068 -2.4858 0.0 0
M  V30 14 C -4.0174 -0.0235 0.0 0
M  V30 15 C 4.1823 1.2723 0.0 0
M  V30 16 C -5.1366 -1.0131 0.0 0
M  V30 17 N 5.4665 0.5419 0.0 0
M  V30 18 C 4.1706 2.7804 0.0 0
M  V30 19 C -6.574 -0.5419 0.0 0
M  V30 20 C 6.7507 1.3077 0.0 0
M  V30 21 C 5.4547 3.5461 0.0 0
M  V30 22 C 3.0395 3.7936 0.0 0
M  V30 23 N -6.9038 0.9307 0.0 0
M  V30 24 N 6.7389 2.8157 0.0 0
M  V30 25 N 5.1248 5.0188 0.0 0
M  V30 26 C 3.6286 5.172 0.0 0
M  V30 27 C -5.8082 1.9439 0.0 0
M  V30 28 C -8.3412 1.4019 0.0 0
M  V30 29 C -6.138 3.4165 0.0 0
M  V30 30 C -8.671 2.8746 0.0 0
M  V30 31 N -7.5754 3.8878 0.0 0
M  V30 32 C -7.9053 5.3605 0.0 0
M  V30 END ATOM
M  V30 BEGIN BOND
M  V30 1 2 1 2
M  V30 2 1 2 3
M  V30 3 1 2 4
M  V30 4 1 3 5
M  V30 5 1 4 6
M  V30 6 2 4 7
M  V30 7 2 5 8
M  V30 8 1 5 9
M  V30 9 1 6 10
M  V30 10 1 7 11
M  V30 11 1 7 12
M  V30 12 1 8 13
M  V30 13 2 9 14
M  V30 14 1 11 15
M  V30 15 2 13 16
M  V30 16 2 15 17
M  V30 17 1 15 18
M  V30 18 1 16 19
M  V30 19 1 17 20
M  V30 20 2 18 21
M  V30 21 1 18 22
M  V30 22 1 19 23
M  V30 23 2 20 24
M  V30 24 1 21 25
M  V30 25 2 22 26
M  V30 26 1 23 27
M  V30 27 1 23 28
M  V30 28 1 27 29
M  V30 29 1 28 30
M  V30 30 1 29 31
M  V30 31 1 31 32
M  V30 32 2 10 12
M  V30 33 1 14 16
M  V30 34 1 21 24
M  V30 35 1 25 26
M  V30 36 1 30 31
M  V30 END BOND
M  V30 END CTAB
M  END
>  <Compound ID>
72

>  <Name>
FN-1501

>  <Uniprot>
P50750

>  <Target>
CDK9

>  <Smiles>
CN1CCN(CC2=CC=C(NC(=O)C3=C(NC4=NC=NC5=C4C=C[NH]5)C=N[NH]3)C=C2)CC1

>  <Kd (nM)>


>  <Assay (Kd)>


>  <Ki (nM)>


>  <Assay (Ki)>


>  <IC50 (nM)>


>  <Assay (IC50)>


>  <EC50 (nM)>


>  <Assay (EC50)>


>  <Article DOI>
10.1021/acs.jmedchem.7b01261

>  <Molecular Weight>
431.504

>  <Exact Mass>
431.21820642

>  <XLogP3>
2.2

>  <Heavy Atom Count>
32

>  <Ring Count>
5

>  <Hydrogen Bond Acceptor Count>
7

>  <Hydrogen Bond Donor Count>
4

>  <Rotatable Bond Count>
6

>  <Topological Polar Surface Area>
117.86

>  <Molecular Formula>
C22H25N9O

>  <InChI>
InChI=1S/C22H25N9O/c1-30-8-10-31(11-9-30)13-15-2-4-16(5-3-15)27-22(32)19-18(12-26-29-19)28-21-17-6-7-23-20(17)24-14-25-21/h2-7,12,14H,8-11,13H2,1H3,(H,26,29)(H,27,32)(H2,23,24,25,28)

>  <InChI Key>
VXLAKHWYGRKCGI-UHFFFAOYSA-N

>  <BindingDB>
50270304

>  <PubChem>
72195175

>  <ChEMBL>
CHEMBL4077071

$$$$
Compound 277
Actelion Java MolfileCreator 2.0

  0  0  0  0  0  0              0 V3000
M  V30 BEGIN CTAB
M  V30 COUNTS 65 71 0 0 0
M  V30 BEGIN ATOM
M  V30 1 Cl 0.0 0.0 0.0 0
M  V30 2 C 0.9022 -1.1871 0.0 0
M  V30 3 C 2.3861 -0.9853 0.0 0
M  V30 4 C 0.3086 -2.5642 0.0 0
M  V30 5 C 3.2884 -2.1725 0.0 0
M  V30 6 C 1.2109 -3.7514 0.0 0
M  V30 7 C 2.6948 -3.5496 0.0 0
M  V30 8 C 3.5971 -4.7367 0.0 0
M  V30 9 C 5.081 -4.5349 0.0 0
M  V30 10 C 3.0035 -6.1138 0.0 0
M  V30 11 C 5.9833 -5.7221 0.0 0
M  V30 12 C 5.6508 -3.1341 0.0 0
M  V30 13 C 3.9057 -7.301 0.0 0
M  V30 14 C 5.3897 -7.0992 0.0 0
M  V30 15 N 7.1348 -2.9322 0.0 0
M  V30 16 C 6.8499 -7.4197 0.0 0
M  V30 17 C 5.3066 -8.595 0.0 0
M  V30 18 C 8.037 -4.1194 0.0 0
M  V30 19 C 7.7046 -1.5314 0.0 0
M  V30 20 C 9.521 -3.9176 0.0 0
M  V30 21 C 9.1886 -1.3296 0.0 0
M  V30 22 N 10.0908 -2.5167 0.0 0
M  V30 23 C 11.5748 -2.3149 0.0 0
M  V30 24 C 12.477 -3.5021 0.0 0
M  V30 25 C 12.1446 -0.9141 0.0 0
M  V30 26 C 13.961 -3.3003 0.0 0
M  V30 27 C 13.6286 -0.7122 0.0 0
M  V30 28 C 14.5308 -1.8994 0.0 0
M  V30 29 C 16.0148 -1.6976 0.0 0
M  V30 30 O 16.5846 -0.2967 0.0 0
M  V30 31 N 16.917 -2.8848 0.0 0
M  V30 32 S 18.401 -2.6829 0.0 0
M  V30 33 O 18.1992 -1.1752 0.0 0
M  V30 34 O 18.579 -4.1669 0.0 0
M  V30 35 C 19.8849 -2.4811 0.0 0
M  V30 36 C 20.4548 -1.0803 0.0 0
M  V30 37 C 20.7872 -3.6683 0.0 0
M  V30 38 C 21.9387 -0.8785 0.0 0
M  V30 39 C 22.2711 -3.4665 0.0 0
M  V30 40 S 22.5086 0.5223 0.0 0
M  V30 41 C 22.841 -2.0656 0.0 0
M  V30 42 O 21.1077 1.1159 0.0 0
M  V30 43 O 23.8857 -0.0474 0.0 0
M  V30 44 C 23.0784 1.9232 0.0 0
M  V30 45 N 24.3249 -1.8638 0.0 0
M  V30 46 F 24.4555 1.3533 0.0 0
M  V30 47 F 21.6775 2.5167 0.0 0
M  V30 48 F 23.6482 3.324 0.0 0
M  V30 49 C 25.2272 -3.051 0.0 0 CFG=1
M  V30 50 C 24.6336 -4.4281 0.0 0
M  V30 51 C 26.7111 -2.8491 0.0 0
M  V30 52 S 25.5358 -5.6152 0.0 0
M  V30 53 C 27.6134 -4.0363 0.0 0
M  V30 54 C 24.9422 -6.9923 0.0 0
M  V30 55 N 29.0973 -3.8345 0.0 0
M  V30 56 C 23.4345 -7.1704 0.0 0
M  V30 57 C 25.8445 -8.1795 0.0 0
M  V30 58 C 29.9996 -5.0216 0.0 0
M  V30 59 C 29.6671 -2.4336 0.0 0
M  V30 60 C 22.841 -8.5475 0.0 0
M  V30 61 C 25.2509 -9.5566 0.0 0
M  V30 62 C 31.4835 -4.8198 0.0 0
M  V30 63 C 31.1511 -2.2318 0.0 0
M  V30 64 C 23.7432 -9.7347 0.0 0
M  V30 65 O 32.0533 -3.419 0.0 0
M  V30 END ATOM
M  V30 BEGIN BOND
M  V30 1 1 1 2
M  V30 2 2 2 3
M  V30 3 1 2 4
M  V30 4 1 3 5
M  V30 5 2 4 6
M  V30 6 2 5 7
M  V30 7 1 7 8
M  V30 8 2 8 9
M  V30 9 1 8 10
M  V30 10 1 9 11
M  V30 11 1 9 12
M  V30 12 1 10 13
M  V30 13 1 11 14
M  V30 14 1 12 15
M  V30 15 1 14 16
M  V30 16 1 14 17
M  V30 17 1 15 18
M  V30 18 1 15 19
M  V30 19 1 18 20
M  V30 20 1 19 21
M  V30 21 1 20 22
M  V30 22 1 22 23
M  V30 23 2 23 24
M  V30 24 1 23 25
M  V30 25 1 24 26
M  V30 26 2 25 27
M  V30 27 2 26 28
M  V30 28 1 28 29
M  V30 29 2 29 30
M  V30 30 1 29 31
M  V30 31 1 31 32
M  V30 32 2 32 33
M  V30 33 2 32 34
M  V30 34 1 32 35
M  V30 35 2 35 36
M  V30 36 1 35 37
M  V30 37 1 36 38
M  V30 38 2 37 39
M  V30 39 1 38 40
M  V30 40 2 38 41
M  V30 41 2 40 42
M  V30 42 2 40 43
M  V30 43 1 40 44
M  V30 44 1 41 45
M  V30 45 1 44 46
M  V30 46 1 44 47
M  V30 47 1 44 48
M  V30 48 1 49 45 CFG=3
M  V30 49 1 49 50
M  V30 50 1 49 51
M  V30 51 1 50 52
M  V30 52 1 51 53
M  V30 53 1 52 54
M  V30 54 1 53 55
M  V30 55 2 54 56
M  V30 56 1 54 57
M  V30 57 1 55 58
M  V30 58 1 55 59
M  V30 59 1 56 60
M  V30 60 2 57 61
M  V30 61 1 58 62
M  V30 62 1 59 63
M  V30 63 2 60 64
M  V30 64 1 62 65
M  V30 65 1 6 7
M  V30 66 1 13 14
M  V30 67 1 21 22
M  V30 68 1 27 28
M  V30 69 1 39 41
M  V30 70 1 61 64
M  V30 71 1 63 65
M  V30 END BOND
M  V30 BEGIN COLLECTION
M  V30 MDLV30/STEABS ATOMS=(1 49)
M  V30 END COLLECTION
M  V30 END CTAB
M  END
>  <Compound ID>
73

>  <Name>
ABT-263

>  <Uniprot>
P10415

>  <Target>
BCL2

>  <Smiles>
CC1(C)CCC(C2=CC=C(Cl)C=C2)=C(CN2CCN(C3=CC=C(C(=O)NS(=O)(=O)C4=CC=C(N[C@H](CCN5CCOCC5)CSC5=CC=CC=C5)C(S(=O)(=O)C(F)(F)F)=C4)C=C3)CC2)C1

>  <Kd (nM)>


>  <Assay (Kd)>


>  <Ki (nM)>
1.03

>  <Assay (Ki)>
Ki was tested by the AlphaScreen competitive binding assay

>  <IC50 (nM)>


>  <Assay (IC50)>


>  <EC50 (nM)>


>  <Assay (EC50)>


>  <Article DOI>
10.1038/s41467-020-15838-0

>  <Molecular Weight>
974.634

>  <Exact Mass>
973.29550982

>  <XLogP3>
9.58

>  <Heavy Atom Count>
65

>  <Ring Count>
7

>  <Hydrogen Bond Acceptor Count>
11

>  <Hydrogen Bond Donor Count>
2

>  <Rotatable Bond Count>
16

>  <Topological Polar Surface Area>
128.36

>  <Molecular Formula>
C47H55ClF3N5O6S3

>  <InChI>
InChI=1S/C47H55ClF3N5O6S3/c1-46(2)20-18-42(34-8-12-37(48)13-9-34)36(31-46)32-55-22-24-56(25-23-55)39-14-10-35(11-15-39)45(57)53-65(60,61)41-16-17-43(44(30-41)64(58,59)47(49,50)51)52-38(19-21-54-26-28-62-29-27-54)33-63-40-6-4-3-5-7-40/h3-17,30,38,52H,18-29,31-33H2,1-2H3,(H,53,57)/t38-/m1/s1

>  <InChI Key>
JLYAXFNOILIKPP-KXQOOQHDSA-N

>  <BindingDB>
50270877

>  <PubChem>
24978538

>  <ChEMBL>
CHEMBL443684

$$$$
Compound 278
Actelion Java MolfileCreator 2.0

  0  0  0  0  0  0              0 V3000
M  V30 BEGIN CTAB
M  V30 COUNTS 65 71 0 0 0
M  V30 BEGIN ATOM
M  V30 1 Cl 0.0 0.0 0.0 0
M  V30 2 C 0.9022 -1.1871 0.0 0
M  V30 3 C 2.3861 -0.9853 0.0 0
M  V30 4 C 0.3086 -2.5642 0.0 0
M  V30 5 C 3.2884 -2.1725 0.0 0
M  V30 6 C 1.2109 -3.7514 0.0 0
M  V30 7 C 2.6948 -3.5496 0.0 0
M  V30 8 C 3.5971 -4.7367 0.0 0
M  V30 9 C 5.081 -4.5349 0.0 0
M  V30 10 C 3.0035 -6.1138 0.0 0
M  V30 11 C 5.9833 -5.7221 0.0 0
M  V30 12 C 5.6508 -3.1341 0.0 0
M  V30 13 C 3.9057 -7.301 0.0 0
M  V30 14 C 5.3897 -7.0992 0.0 0
M  V30 15 N 7.1348 -2.9322 0.0 0
M  V30 16 C 6.8499 -7.4197 0.0 0
M  V30 17 C 5.3066 -8.595 0.0 0
M  V30 18 C 8.037 -4.1194 0.0 0
M  V30 19 C 7.7046 -1.5314 0.0 0
M  V30 20 C 9.521 -3.9176 0.0 0
M  V30 21 C 9.1886 -1.3296 0.0 0
M  V30 22 N 10.0908 -2.5167 0.0 0
M  V30 23 C 11.5748 -2.3149 0.0 0
M  V30 24 C 12.477 -3.5021 0.0 0
M  V30 25 C 12.1446 -0.9141 0.0 0
M  V30 26 C 13.961 -3.3003 0.0 0
M  V30 27 C 13.6286 -0.7122 0.0 0
M  V30 28 C 14.5308 -1.8994 0.0 0
M  V30 29 C 16.0148 -1.6976 0.0 0
M  V30 30 O 16.5846 -0.2967 0.0 0
M  V30 31 N 16.917 -2.8848 0.0 0
M  V30 32 S 18.401 -2.6829 0.0 0
M  V30 33 O 18.1992 -1.1752 0.0 0
M  V30 34 O 18.579 -4.1669 0.0 0
M  V30 35 C 19.8849 -2.4811 0.0 0
M  V30 36 C 20.4548 -1.0803 0.0 0
M  V30 37 C 20.7872 -3.6683 0.0 0
M  V30 38 C 21.9387 -0.8785 0.0 0
M  V30 39 C 22.2711 -3.4665 0.0 0
M  V30 40 S 22.5086 0.5223 0.0 0
M  V30 41 C 22.841 -2.0656 0.0 0
M  V30 42 O 21.1077 1.1159 0.0 0
M  V30 43 O 23.8857 -0.0474 0.0 0
M  V30 44 C 23.0784 1.9232 0.0 0
M  V30 45 N 24.3249 -1.8638 0.0 0
M  V30 46 F 24.4555 1.3533 0.0 0
M  V30 47 F 21.6775 2.5167 0.0 0
M  V30 48 F 23.6482 3.324 0.0 0
M  V30 49 C 25.2272 -3.051 0.0 0 CFG=1
M  V30 50 C 24.6336 -4.4281 0.0 0
M  V30 51 C 26.7111 -2.8491 0.0 0
M  V30 52 S 25.5358 -5.6152 0.0 0
M  V30 53 C 27.6134 -4.0363 0.0 0
M  V30 54 C 24.9422 -6.9923 0.0 0
M  V30 55 N 29.0973 -3.8345 0.0 0
M  V30 56 C 23.4345 -7.1704 0.0 0
M  V30 57 C 25.8445 -8.1795 0.0 0
M  V30 58 C 29.9996 -5.0216 0.0 0
M  V30 59 C 29.6671 -2.4336 0.0 0
M  V30 60 C 22.841 -8.5475 0.0 0
M  V30 61 C 25.2509 -9.5566 0.0 0
M  V30 62 C 31.4835 -4.8198 0.0 0
M  V30 63 C 31.1511 -2.2318 0.0 0
M  V30 64 C 23.7432 -9.7347 0.0 0
M  V30 65 O 32.0533 -3.419 0.0 0
M  V30 END ATOM
M  V30 BEGIN BOND
M  V30 1 1 1 2
M  V30 2 2 2 3
M  V30 3 1 2 4
M  V30 4 1 3 5
M  V30 5 2 4 6
M  V30 6 2 5 7
M  V30 7 1 7 8
M  V30 8 2 8 9
M  V30 9 1 8 10
M  V30 10 1 9 11
M  V30 11 1 9 12
M  V30 12 1 10 13
M  V30 13 1 11 14
M  V30 14 1 12 15
M  V30 15 1 14 16
M  V30 16 1 14 17
M  V30 17 1 15 18
M  V30 18 1 15 19
M  V30 19 1 18 20
M  V30 20 1 19 21
M  V30 21 1 20 22
M  V30 22 1 22 23
M  V30 23 2 23 24
M  V30 24 1 23 25
M  V30 25 1 24 26
M  V30 26 2 25 27
M  V30 27 2 26 28
M  V30 28 1 28 29
M  V30 29 2 29 30
M  V30 30 1 29 31
M  V30 31 1 31 32
M  V30 32 2 32 33
M  V30 33 2 32 34
M  V30 34 1 32 35
M  V30 35 2 35 36
M  V30 36 1 35 37
M  V30 37 1 36 38
M  V30 38 2 37 39
M  V30 39 1 38 40
M  V30 40 2 38 41
M  V30 41 2 40 42
M  V30 42 2 40 43
M  V30 43 1 40 44
M  V30 44 1 41 45
M  V30 45 1 44 46
M  V30 46 1 44 47
M  V30 47 1 44 48
M  V30 48 1 49 45 CFG=3
M  V30 49 1 49 50
M  V30 50 1 49 51
M  V30 51 1 50 52
M  V30 52 1 51 53
M  V30 53 1 52 54
M  V30 54 1 53 55
M  V30 55 2 54 56
M  V30 56 1 54 57
M  V30 57 1 55 58
M  V30 58 1 55 59
M  V30 59 1 56 60
M  V30 60 2 57 61
M  V30 61 1 58 62
M  V30 62 1 59 63
M  V30 63 2 60 64
M  V30 64 1 62 65
M  V30 65 1 6 7
M  V30 66 1 13 14
M  V30 67 1 21 22
M  V30 68 1 27 28
M  V30 69 1 39 41
M  V30 70 1 61 64
M  V30 71 1 63 65
M  V30 END BOND
M  V30 BEGIN COLLECTION
M  V30 MDLV30/STEABS ATOMS=(1 49)
M  V30 END COLLECTION
M  V30 END CTAB
M  END
>  <Compound ID>
73

>  <Name>
ABT-263

>  <Uniprot>
Q07817

>  <Target>
BCL-xL

>  <Smiles>
CC1(C)CCC(C2=CC=C(Cl)C=C2)=C(CN2CCN(C3=CC=C(C(=O)NS(=O)(=O)C4=CC=C(N[C@H](CCN5CCOCC5)CSC5=CC=CC=C5)C(S(=O)(=O)C(F)(F)F)=C4)C=C3)CC2)C1

>  <Kd (nM)>


>  <Assay (Kd)>


>  <Ki (nM)>
1.53

>  <Assay (Ki)>
Ki was tested by the AlphaScreen competitive binding assay

>  <IC50 (nM)>


>  <Assay (IC50)>


>  <EC50 (nM)>


>  <Assay (EC50)>


>  <Article DOI>
10.1038/s41467-020-15838-0

>  <Molecular Weight>
974.634

>  <Exact Mass>
973.29550982

>  <XLogP3>
9.58

>  <Heavy Atom Count>
65

>  <Ring Count>
7

>  <Hydrogen Bond Acceptor Count>
11

>  <Hydrogen Bond Donor Count>
2

>  <Rotatable Bond Count>
16

>  <Topological Polar Surface Area>
128.36

>  <Molecular Formula>
C47H55ClF3N5O6S3

>  <InChI>
InChI=1S/C47H55ClF3N5O6S3/c1-46(2)20-18-42(34-8-12-37(48)13-9-34)36(31-46)32-55-22-24-56(25-23-55)39-14-10-35(11-15-39)45(57)53-65(60,61)41-16-17-43(44(30-41)64(58,59)47(49,50)51)52-38(19-21-54-26-28-62-29-27-54)33-63-40-6-4-3-5-7-40/h3-17,30,38,52H,18-29,31-33H2,1-2H3,(H,53,57)/t38-/m1/s1

>  <InChI Key>
JLYAXFNOILIKPP-KXQOOQHDSA-N

>  <BindingDB>
50270877

>  <PubChem>
24978538

>  <ChEMBL>
CHEMBL443684

$$$$
Compound 279
Actelion Java MolfileCreator 2.0

  0  0  0  0  0  0              0 V3000
M  V30 BEGIN CTAB
M  V30 COUNTS 46 51 0 0 0
M  V30 BEGIN ATOM
M  V30 1 Cl 0.0 0.0 0.0 0
M  V30 2 C -1.311 0.7559 0.0 0
M  V30 3 C -1.3346 2.2678 0.0 0
M  V30 4 C -2.6221 0.0118 0.0 0
M  V30 5 O -0.0472 3.0355 0.0 0
M  V30 6 C -2.6457 3.0237 0.0 0
M  V30 7 C -3.9332 0.7677 0.0 0
M  V30 8 C 1.2402 2.3032 0.0 0
M  V30 9 C -3.9568 2.2796 0.0 0
M  V30 10 C -5.2442 0.0236 0.0 0
M  V30 11 C 2.5276 3.0709 0.0 0
M  V30 12 O -5.2679 3.0355 0.0 0
M  V30 13 N -5.2442 -1.4646 0.0 0
M  V30 14 C 3.8151 2.3386 0.0 0
M  V30 15 C 2.504 4.5828 0.0 0
M  V30 16 C -5.2915 4.5474 0.0 0
M  V30 17 C -6.5553 -2.2087 0.0 0 CFG=2
M  V30 18 C -3.9568 -2.1969 0.0 0
M  V30 19 C 5.1025 3.1064 0.0 0
M  V30 20 C 3.8151 0.8504 0.0 0
M  V30 21 C 3.7914 5.3506 0.0 0
M  V30 22 C -6.6026 5.3033 0.0 0
M  V30 23 C -7.8664 -1.4528 0.0 0
M  V30 24 C -6.5553 -3.6969 0.0 0
M  V30 25 C -3.9568 -3.6851 0.0 0
M  V30 26 C 6.39 2.3741 0.0 0
M  V30 27 C 5.0789 4.6182 0.0 0
M  V30 28 C -7.9136 4.5592 0.0 0
M  V30 29 C -6.6262 6.8152 0.0 0
M  V30 30 O -7.89 0.059 0.0 0
M  V30 31 O -9.1775 -2.1969 0.0 0
M  V30 32 C -5.2679 -4.4293 0.0 0
M  V30 33 C 7.6774 3.1418 0.0 0
M  V30 34 C 6.39 0.8858 0.0 0
M  V30 35 C -9.2247 5.3151 0.0 0
M  V30 36 C -7.9373 7.5711 0.0 0
M  V30 37 C 8.9649 2.4095 0.0 0
M  V30 38 C 7.6774 0.1535 0.0 0
M  V30 39 C -10.5358 4.571 0.0 0
M  V30 40 C -9.2483 6.827 0.0 0
M  V30 41 O 10.2523 3.1772 0.0 0
M  V30 42 C 8.9649 0.9212 0.0 0
M  V30 43 N -11.8469 3.8269 0.0 0
M  V30 44 C 11.5398 2.4449 0.0 0
M  V30 45 O 10.2523 0.1889 0.0 0
M  V30 46 C 11.5398 0.9567 0.0 0
M  V30 END ATOM
M  V30 BEGIN BOND
M  V30 1 1 1 2
M  V30 2 2 2 3
M  V30 3 1 2 4
M  V30 4 1 3 5
M  V30 5 1 3 6
M  V30 6 2 4 7
M  V30 7 1 5 8
M  V30 8 2 6 9
M  V30 9 1 7 10
M  V30 10 1 8 11
M  V30 11 1 9 12
M  V30 12 1 10 13
M  V30 13 2 11 14
M  V30 14 1 11 15
M  V30 15 1 12 16
M  V30 16 1 13 17
M  V30 17 1 13 18
M  V30 18 1 14 19
M  V30 19 1 14 20
M  V30 20 2 15 21
M  V30 21 1 16 22
M  V30 22 1 17 23 CFG=1
M  V30 23 1 17 24
M  V30 24 1 18 25
M  V30 25 1 19 26
M  V30 26 2 19 27
M  V30 27 2 22 28
M  V30 28 1 22 29
M  V30 29 2 23 30
M  V30 30 1 23 31
M  V30 31 1 24 32
M  V30 32 2 26 33
M  V30 33 1 26 34
M  V30 34 1 28 35
M  V30 35 2 29 36
M  V30 36 1 33 37
M  V30 37 2 34 38
M  V30 38 1 35 39
M  V30 39 2 35 40
M  V30 40 1 37 41
M  V30 41 2 37 42
M  V30 42 3 39 43
M  V30 43 1 41 44
M  V30 44 1 42 45
M  V30 45 1 44 46
M  V30 46 1 7 9
M  V30 47 1 21 27
M  V30 48 1 25 32
M  V30 49 1 36 40
M  V30 50 1 38 42
M  V30 51 1 45 46
M  V30 END BOND
M  V30 BEGIN COLLECTION
M  V30 MDLV30/STERAC1 ATOMS=(1 17)
M  V30 END COLLECTION
M  V30 END CTAB
M  END
>  <Compound ID>
74

>  <Name>
BMS-1198

>  <Uniprot>
Q9NZQ7

>  <Target>
PD-L1

>  <Smiles>
CC1=C(COC2=CC(OCC3=CC=CC(C#N)=C3)=C(CN3CCCCC3C(=O)O)C=C2Cl)C=CC=C1C1=CC=C2OCCOC2=C1

>  <Kd (nM)>


>  <Assay (Kd)>


>  <Ki (nM)>


>  <Assay (Ki)>


>  <IC50 (nM)>
56.6

>  <Assay (IC50)>
IC50 of PD-1/PD-L1 interaction was tested by the HTRF binding assay

>  <EC50 (nM)>


>  <Assay (EC50)>


>  <Article DOI>
10.1016/j.ejmech.2020.112377

>  <Molecular Weight>
639.148

>  <Exact Mass>
638.21836452

>  <XLogP3>
4.94

>  <Heavy Atom Count>
46

>  <Ring Count>
6

>  <Hydrogen Bond Acceptor Count>
7

>  <Hydrogen Bond Donor Count>
1

>  <Rotatable Bond Count>
10

>  <Topological Polar Surface Area>
101.25

>  <Molecular Formula>
C37H35ClN2O6

>  <InChI>
InChI=1S/C37H35ClN2O6/c1-24-28(8-5-9-30(24)27-11-12-33-36(18-27)44-15-14-43-33)23-46-35-19-34(45-22-26-7-4-6-25(16-26)20-39)29(17-31(35)38)21-40-13-3-2-10-32(40)37(41)42/h4-9,11-12,16-19,32H,2-3,10,13-15,21-23H2,1H3,(H,41,42)

>  <InChI Key>
RELGDHKISWTSBN-UHFFFAOYSA-N

>  <BindingDB>


>  <PubChem>
118434619

>  <ChEMBL>


$$$$
Compound 280
Actelion Java MolfileCreator 2.0

  0  0  0  0  0  0              0 V3000
M  V30 BEGIN CTAB
M  V30 COUNTS 27 30 0 0 0
M  V30 BEGIN ATOM
M  V30 1 O 0.0 0.0 0.0 0
M  V30 2 C 0.2324 1.4874 0.0 0
M  V30 3 C -0.9413 2.4404 0.0 0
M  V30 4 C 1.6153 2.0336 0.0 0
M  V30 5 C -0.7088 3.9279 0.0 0
M  V30 6 C -2.3474 1.9174 0.0 0
M  V30 7 C 1.8477 3.5211 0.0 0
M  V30 8 O 0.674 4.4741 0.0 0
M  V30 9 C -1.8826 4.8808 0.0 0
M  V30 10 C -3.5211 2.8704 0.0 0
M  V30 11 C 3.2306 4.0673 0.0 0
M  V30 12 C -3.2887 4.3578 0.0 0
M  V30 13 C -1.6501 6.3683 0.0 0
M  V30 14 O -4.9273 2.3474 0.0 0
M  V30 15 C 4.3811 3.1376 0.0 0
M  V30 16 C 3.463 5.5548 0.0 0
M  V30 17 C -4.4624 5.3108 0.0 0
M  V30 18 O -0.2672 6.9145 0.0 0
M  V30 19 C -2.8239 7.3212 0.0 0
M  V30 20 C -5.1829 0.8832 0.0 0
M  V30 21 C 5.764 3.6838 0.0 0
M  V30 22 C 4.8459 6.101 0.0 0
M  V30 23 O -5.8686 4.7878 0.0 0
M  V30 24 C -4.23 6.7983 0.0 0
M  V30 25 C -0.0348 8.402 0.0 0
M  V30 26 C 5.9964 5.1713 0.0 0
M  V30 27 C -7.0423 5.7408 0.0 0
M  V30 END ATOM
M  V30 BEGIN BOND
M  V30 1 2 1 2
M  V30 2 1 2 3
M  V30 3 1 2 4
M  V30 4 2 3 5
M  V30 5 1 3 6
M  V30 6 2 4 7
M  V30 7 1 5 8
M  V30 8 1 5 9
M  V30 9 2 6 10
M  V30 10 1 7 11
M  V30 11 1 9 12
M  V30 12 2 9 13
M  V30 13 1 10 14
M  V30 14 2 11 15
M  V30 15 1 11 16
M  V30 16 2 12 17
M  V30 17 1 13 18
M  V30 18 1 13 19
M  V30 19 1 14 20
M  V30 20 1 15 21
M  V30 21 2 16 22
M  V30 22 1 17 23
M  V30 23 1 17 24
M  V30 24 1 18 25
M  V30 25 2 21 26
M  V30 26 1 23 27
M  V30 27 1 7 8
M  V30 28 1 10 12
M  V30 29 2 19 24
M  V30 30 1 22 26
M  V30 END BOND
M  V30 END CTAB
M  END
>  <Compound ID>
75

>  <Name>


>  <Uniprot>
Q16678

>  <Target>
CYP1B1

>  <Smiles>
COC1=CC=C(OC)C2=C1C(OC)=CC1=C2OC(C2=CC=CC=C2)=CC1=O

>  <Kd (nM)>


>  <Assay (Kd)>


>  <Ki (nM)>


>  <Assay (Ki)>


>  <IC50 (nM)>
1.4

>  <Assay (IC50)>
IC50 of CYP1B1 was determined by the standard EROD assay

>  <EC50 (nM)>


>  <Assay (EC50)>


>  <Article DOI>
10.1016/j.ejmech.2019.112028

>  <Molecular Weight>
362.381

>  <Exact Mass>
362.115423676

>  <XLogP3>
4.34

>  <Heavy Atom Count>
27

>  <Ring Count>
4

>  <Hydrogen Bond Acceptor Count>
5

>  <Hydrogen Bond Donor Count>
0

>  <Rotatable Bond Count>
4

>  <Topological Polar Surface Area>
57.9

>  <Molecular Formula>
C22H18O5

>  <InChI>
InChI=1S/C22H18O5/c1-24-16-9-10-17(25-2)21-20(16)19(26-3)11-14-15(23)12-18(27-22(14)21)13-7-5-4-6-8-13/h4-12H,1-3H3

>  <InChI Key>
RWKCNXGHHHVDGY-UHFFFAOYSA-N

>  <BindingDB>
50081709

>  <PubChem>
118735488

>  <ChEMBL>
CHEMBL3422257

$$$$
Compound 281
Actelion Java MolfileCreator 2.0

  0  0  0  0  0  0              0 V3000
M  V30 BEGIN CTAB
M  V30 COUNTS 31 34 0 0 0
M  V30 BEGIN ATOM
M  V30 1 P 0.0 0.0 0.0 0
M  V30 2 O -0.3899 1.4652 0.0 0
M  V30 3 O 1.4416 0.3899 0.0 0
M  V30 4 O 0.3663 -1.4416 0.0 0
M  V30 5 O -1.4652 -0.3663 0.0 0
M  V30 6 C 2.4932 -0.6617 0.0 0
M  V30 7 C 3.9348 -0.2717 0.0 0 CFG=1
M  V30 8 O 5.0929 -1.2052 0.0 0
M  V30 9 C 4.4666 1.1462 0.0 0 CFG=1
M  V30 10 C 6.3454 -0.3781 0.0 0 CFG=2
M  V30 11 O 3.6394 2.4223 0.0 0
M  V30 12 C 5.9555 1.0753 0.0 0 CFG=2
M  V30 13 N 7.7398 -0.9098 0.0 0
M  V30 14 O 6.889 2.2569 0.0 0
M  V30 15 C 8.1061 -2.3514 0.0 0
M  V30 16 C 8.9923 -0.0827 0.0 0
M  V30 17 N 7.2671 -3.5922 0.0 0
M  V30 18 C 9.5949 -2.4223 0.0 0
M  V30 19 N 10.1503 -1.0162 0.0 0 CHG=1
M  V30 20 C 7.9288 -4.9274 0.0 0
M  V30 21 C 10.2567 -3.7576 0.0 0
M  V30 22 C 11.5919 -0.6262 0.0 0
M  V30 23 N 9.4177 -4.9983 0.0 0
M  V30 24 N 7.0899 -6.1682 0.0 0
M  V30 25 O 11.7456 -3.8285 0.0 0
M  V30 26 C 11.9701 0.8389 0.0 0
M  V30 27 C 13.4117 1.2289 0.0 0
M  V30 28 C 10.8948 1.9142 0.0 0
M  V30 29 C 13.7898 2.6941 0.0 0
M  V30 30 C 11.2729 3.3795 0.0 0
M  V30 31 C 12.7145 3.7694 0.0 0
M  V30 END ATOM
M  V30 BEGIN BOND
M  V30 1 2 1 2
M  V30 2 1 1 3
M  V30 3 1 1 4
M  V30 4 1 1 5
M  V30 5 1 3 6
M  V30 6 1 7 6 CFG=3
M  V30 7 1 7 8
M  V30 8 1 7 9
M  V30 9 1 8 10
M  V30 10 1 9 11 CFG=1
M  V30 11 1 9 12
M  V30 12 1 10 13 CFG=3
M  V30 13 1 12 14 CFG=1
M  V30 14 1 13 15
M  V30 15 1 13 16
M  V30 16 1 15 17
M  V30 17 2 15 18
M  V30 18 2 16 19
M  V30 19 2 17 20
M  V30 20 1 18 21
M  V30 21 1 19 22
M  V30 22 1 20 23
M  V30 23 1 20 24
M  V30 24 2 21 25
M  V30 25 1 22 26
M  V30 26 2 26 27
M  V30 27 1 26 28
M  V30 28 1 27 29
M  V30 29 2 28 30
M  V30 30 2 29 31
M  V30 31 1 10 12
M  V30 32 1 18 19
M  V30 33 1 21 23
M  V30 34 1 30 31
M  V30 END BOND
M  V30 BEGIN COLLECTION
M  V30 MDLV30/STEABS ATOMS=(4 7 9 10 12)
M  V30 END COLLECTION
M  V30 END CTAB
M  END
>  <Compound ID>
76

>  <Name>
7-BnGMP

>  <Uniprot>
P06730

>  <Target>
eIF4E

>  <Smiles>
NC1=NC2=C(C(=O)[NH]1)[N+](CC1=CC=CC=C1)=CN2[C@@H]1O[C@H](COP(=O)(O)O)[C@@H](O)[C@H]1O

>  <Kd (nM)>
6950

>  <Assay (Kd)>
Kd was determined by the mass spectrometry

>  <Ki (nM)>


>  <Assay (Ki)>


>  <IC50 (nM)>


>  <Assay (IC50)>


>  <EC50 (nM)>


>  <Assay (EC50)>


>  <Article DOI>
10.1016/j.jmb.2007.06.033

>  <Molecular Weight>
454.356

>  <Exact Mass>
454.112225682

>  <XLogP3>
-1.81

>  <Heavy Atom Count>
31

>  <Ring Count>
4

>  <Hydrogen Bond Acceptor Count>
9

>  <Hydrogen Bond Donor Count>
6

>  <Rotatable Bond Count>
6

>  <Topological Polar Surface Area>
197.03

>  <Molecular Formula>
C17H21N5O8P+

>  <InChI>
InChI=1S/C17H20N5O8P/c18-17-19-14-11(15(25)20-17)21(6-9-4-2-1-3-5-9)8-22(14)16-13(24)12(23)10(30-16)7-29-31(26,27)28/h1-5,8,10,12-13,16,23-24H,6-7H2,(H4-,18,19,20,25,26,27,28)/p+1/t10-,12-,13-,16-/m1/s1

>  <InChI Key>
WMKJRKYLDWLLPS-XNIJJKJLSA-O

>  <BindingDB>
50249977

>  <PubChem>
135566346

>  <ChEMBL>
CHEMBL1094975

$$$$
Compound 282
Actelion Java MolfileCreator 2.0

  0  0  0  0  0  0              0 V3000
M  V30 BEGIN CTAB
M  V30 COUNTS 32 35 0 0 0
M  V30 BEGIN ATOM
M  V30 1 P 0.0 0.0 0.0 0
M  V30 2 O -0.2702 1.4921 0.0 0
M  V30 3 O 1.4686 0.2702 0.0 0
M  V30 4 O 0.2467 -1.4686 0.0 0
M  V30 5 O -1.4921 -0.2467 0.0 0
M  V30 6 C 2.4203 -0.8694 0.0 0
M  V30 7 C 3.889 -0.5992 0.0 0 CFG=1
M  V30 8 O 4.9582 -1.6331 0.0 0
M  V30 9 C 4.5352 0.7637 0.0 0 CFG=1
M  V30 10 C 6.2741 -0.9164 0.0 0 CFG=2
M  V30 11 O 3.8185 2.1031 0.0 0
M  V30 12 C 6.0156 0.5639 0.0 0 CFG=2
M  V30 13 N 7.6135 -1.5626 0.0 0
M  V30 14 O 7.0496 1.6566 0.0 0
M  V30 15 C 7.8603 -3.0313 0.0 0
M  V30 16 C 8.9295 -0.8459 0.0 0
M  V30 17 N 6.9203 -4.2062 0.0 0
M  V30 18 C 9.3407 -3.231 0.0 0
M  V30 19 N 9.9987 -1.8798 0.0 0 CHG=1
M  V30 20 C 7.4726 -5.5927 0.0 0
M  V30 21 C 9.8929 -4.6175 0.0 0
M  V30 22 C 11.4673 -1.6096 0.0 0
M  V30 23 N 8.953 -5.7924 0.0 0
M  V30 24 N 6.5326 -6.7676 0.0 0
M  V30 25 O 11.3733 -4.8172 0.0 0
M  V30 26 C 11.9726 -0.1879 0.0 0
M  V30 27 C 13.4412 0.0822 0.0 0
M  V30 28 C 10.9974 0.9751 0.0 0
M  V30 29 C 13.9465 1.5039 0.0 0
M  V30 30 C 11.5026 2.3968 0.0 0
M  V30 31 C 12.9713 2.6671 0.0 0
M  V30 32 F 13.4765 4.0887 0.0 0
M  V30 END ATOM
M  V30 BEGIN BOND
M  V30 1 2 1 2
M  V30 2 1 1 3
M  V30 3 1 1 4
M  V30 4 1 1 5
M  V30 5 1 3 6
M  V30 6 1 7 6 CFG=3
M  V30 7 1 7 8
M  V30 8 1 7 9
M  V30 9 1 8 10
M  V30 10 1 9 11 CFG=1
M  V30 11 1 9 12
M  V30 12 1 10 13 CFG=3
M  V30 13 1 12 14 CFG=1
M  V30 14 1 13 15
M  V30 15 1 13 16
M  V30 16 1 15 17
M  V30 17 2 15 18
M  V30 18 2 16 19
M  V30 19 2 17 20
M  V30 20 1 18 21
M  V30 21 1 19 22
M  V30 22 1 20 23
M  V30 23 1 20 24
M  V30 24 2 21 25
M  V30 25 1 22 26
M  V30 26 2 26 27
M  V30 27 1 26 28
M  V30 28 1 27 29
M  V30 29 2 28 30
M  V30 30 2 29 31
M  V30 31 1 31 32
M  V30 32 1 10 12
M  V30 33 1 18 19
M  V30 34 1 21 23
M  V30 35 1 30 31
M  V30 END BOND
M  V30 BEGIN COLLECTION
M  V30 MDLV30/STEABS ATOMS=(4 7 9 10 12)
M  V30 END COLLECTION
M  V30 END CTAB
M  END
>  <Compound ID>
77

>  <Name>
FBn7GMP

>  <Uniprot>
P06730

>  <Target>
eIF4E

>  <Smiles>
NC1=NC2=C(C(=O)[NH]1)[N+](CC1=CC=C(F)C=C1)=CN2[C@@H]1O[C@H](COP(=O)(O)O)[C@@H](O)[C@H]1O

>  <Kd (nM)>
1960

>  <Assay (Kd)>
Kd was determined by the mass spectrometry

>  <Ki (nM)>


>  <Assay (Ki)>


>  <IC50 (nM)>


>  <Assay (IC50)>


>  <EC50 (nM)>


>  <Assay (EC50)>


>  <Article DOI>
10.1016/j.jmb.2007.06.033

>  <Molecular Weight>
472.346

>  <Exact Mass>
472.10280387

>  <XLogP3>
-1.71

>  <Heavy Atom Count>
32

>  <Ring Count>
4

>  <Hydrogen Bond Acceptor Count>
9

>  <Hydrogen Bond Donor Count>
6

>  <Rotatable Bond Count>
6

>  <Topological Polar Surface Area>
197.03

>  <Molecular Formula>
C17H20FN5O8P+

>  <InChI>
InChI=1S/C17H19FN5O8P/c18-9-3-1-8(2-4-9)5-22-7-23(14-11(22)15(26)21-17(19)20-14)16-13(25)12(24)10(31-16)6-30-32(27,28)29/h1-4,7,10,12-13,16,24-25H,5-6H2,(H4-,19,20,21,26,27,28,29)/p+1/t10-,12-,13-,16-/m1/s1

>  <InChI Key>
VLABRVWLURSKLS-XNIJJKJLSA-O

>  <BindingDB>
50316315

>  <PubChem>
135566347

>  <ChEMBL>
CHEMBL1097971

$$$$
Compound 283
Actelion Java MolfileCreator 2.0

  0  0  0  0  0  0              0 V3000
M  V30 BEGIN CTAB
M  V30 COUNTS 35 38 0 0 0
M  V30 BEGIN ATOM
M  V30 1 P 0.0 0.0 0.0 0
M  V30 2 O 0.2581 -1.4666 0.0 0
M  V30 3 O -1.49 -0.2581 0.0 0
M  V30 4 O 1.4666 0.2815 0.0 0
M  V30 5 O -0.2815 1.49 0.0 0
M  V30 6 P -2.0063 -1.666 0.0 0
M  V30 7 C 2.4287 -0.8447 0.0 0
M  V30 8 O -3.4377 -1.1498 0.0 0
M  V30 9 O -0.5983 -2.1588 0.0 0
M  V30 10 O -2.5225 -3.074 0.0 0
M  V30 11 C 3.8953 -0.5631 0.0 0 CFG=1
M  V30 12 O 4.9747 -1.5839 0.0 0
M  V30 13 C 4.5289 0.8095 0.0 0 CFG=1
M  V30 14 C 6.2888 -0.8565 0.0 0 CFG=2
M  V30 15 O 3.8014 2.1471 0.0 0
M  V30 16 C 6.0072 0.6218 0.0 0 CFG=2
M  V30 17 N 7.6381 -1.49 0.0 0
M  V30 18 O 7.028 1.7247 0.0 0
M  V30 19 C 7.8963 -2.9567 0.0 0
M  V30 20 C 8.9522 -0.7626 0.0 0
M  V30 21 N 6.9693 -4.1417 0.0 0
M  V30 22 C 9.3746 -3.1444 0.0 0
M  V30 23 N 10.0317 -1.7834 0.0 0 CHG=1
M  V30 24 C 7.5325 -5.5145 0.0 0
M  V30 25 C 9.9378 -4.5172 0.0 0
M  V30 26 C 11.4983 -1.5018 0.0 0
M  V30 27 N 9.0109 -5.7022 0.0 0
M  V30 28 N 6.6056 -6.6995 0.0 0
M  V30 29 O 11.4162 -4.7049 0.0 0
M  V30 30 C 11.9911 -0.0703 0.0 0
M  V30 31 C 13.4577 0.2111 0.0 0
M  V30 32 C 11.0055 1.0794 0.0 0
M  V30 33 C 13.9505 1.6426 0.0 0
M  V30 34 C 11.4983 2.5108 0.0 0
M  V30 35 C 12.9649 2.7924 0.0 0
M  V30 END ATOM
M  V30 BEGIN BOND
M  V30 1 2 1 2
M  V30 2 1 1 3
M  V30 3 1 1 4
M  V30 4 1 1 5
M  V30 5 1 3 6
M  V30 6 1 4 7
M  V30 7 2 6 8
M  V30 8 1 6 9
M  V30 9 1 6 10
M  V30 10 1 11 7 CFG=3
M  V30 11 1 11 12
M  V30 12 1 11 13
M  V30 13 1 12 14
M  V30 14 1 13 15 CFG=1
M  V30 15 1 13 16
M  V30 16 1 14 17 CFG=3
M  V30 17 1 16 18 CFG=1
M  V30 18 1 17 19
M  V30 19 1 17 20
M  V30 20 1 19 21
M  V30 21 2 19 22
M  V30 22 2 20 23
M  V30 23 2 21 24
M  V30 24 1 22 25
M  V30 25 1 23 26
M  V30 26 1 24 27
M  V30 27 1 24 28
M  V30 28 2 25 29
M  V30 29 1 26 30
M  V30 30 2 30 31
M  V30 31 1 30 32
M  V30 32 1 31 33
M  V30 33 2 32 34
M  V30 34 2 33 35
M  V30 35 1 14 16
M  V30 36 1 22 23
M  V30 37 1 25 27
M  V30 38 1 34 35
M  V30 END BOND
M  V30 BEGIN COLLECTION
M  V30 MDLV30/STEABS ATOMS=(4 11 13 14 16)
M  V30 END COLLECTION
M  V30 END CTAB
M  END
>  <Compound ID>
78

>  <Name>
Bn7GDP

>  <Uniprot>
P06730

>  <Target>
eIF4E

>  <Smiles>
NC1=NC2=C(C(=O)[NH]1)[N+](CC1=CC=CC=C1)=CN2[C@@H]1O[C@H](COP(=O)(O)OP(=O)(O)O)[C@@H](O)[C@H]1O

>  <Kd (nM)>


>  <Assay (Kd)>


>  <Ki (nM)>


>  <Assay (Ki)>


>  <IC50 (nM)>


>  <Assay (IC50)>


>  <EC50 (nM)>


>  <Assay (EC50)>


>  <Article DOI>


>  <Molecular Weight>
534.335

>  <Exact Mass>
534.078556204

>  <XLogP3>
-3.75

>  <Heavy Atom Count>
35

>  <Ring Count>
4

>  <Hydrogen Bond Acceptor Count>
11

>  <Hydrogen Bond Donor Count>
7

>  <Rotatable Bond Count>
8

>  <Topological Polar Surface Area>
243.56

>  <Molecular Formula>
C17H22N5O11P2+

>  <InChI>
InChI=1S/C17H21N5O11P2/c18-17-19-14-11(15(25)20-17)21(6-9-4-2-1-3-5-9)8-22(14)16-13(24)12(23)10(32-16)7-31-35(29,30)33-34(26,27)28/h1-5,8,10,12-13,16,23-24H,6-7H2,(H5-,18,19,20,25,26,27,28,29,30)/p+1/t10-,12-,13-,16-/m1/s1

>  <InChI Key>
CUFZLUFOVYCPQJ-XNIJJKJLSA-O

>  <BindingDB>


>  <PubChem>
146019273

>  <ChEMBL>


$$$$
Compound 284
Actelion Java MolfileCreator 2.0

  0  0  0  0  0  0              0 V3000
M  V30 BEGIN CTAB
M  V30 COUNTS 36 39 0 0 0
M  V30 BEGIN ATOM
M  V30 1 Cl 0.0 0.0 0.0 0
M  V30 2 C -0.585 -1.369 0.0 0
M  V30 3 C 0.3159 -2.5509 0.0 0
M  V30 4 C -2.0828 -1.5446 0.0 0
M  V30 5 C -0.2691 -3.92 0.0 0
M  V30 6 C -2.6679 -2.9137 0.0 0
M  V30 7 C -1.7669 -4.0955 0.0 0
M  V30 8 C -2.352 -5.4646 0.0 0
M  V30 9 N -3.8498 -5.6402 0.0 0 CHG=1
M  V30 10 C -4.5753 -6.939 0.0 0
M  V30 11 C -4.8913 -4.5402 0.0 0
M  V30 12 C -4.0955 -8.3432 0.0 0
M  V30 13 C -6.0614 -6.6465 0.0 0
M  V30 14 N -6.2603 -5.1721 0.0 0
M  V30 15 O -2.6328 -8.6124 0.0 0
M  V30 16 N -5.0785 -9.4666 0.0 0
M  V30 17 N -7.0444 -7.7699 0.0 0
M  V30 18 C -7.5826 -4.4466 0.0 0 CFG=2
M  V30 19 C -6.5646 -9.1741 0.0 0
M  V30 20 O -8.9517 -5.0785 0.0 0
M  V30 21 C -7.7816 -2.9488 0.0 0 CFG=2
M  V30 22 N -7.5475 -10.2974 0.0 0
M  V30 23 C -9.9932 -3.9785 0.0 0 CFG=1
M  V30 24 O -6.705 -1.9073 0.0 0
M  V30 25 C -9.2677 -2.6562 0.0 0 CFG=1
M  V30 26 C -11.491 -4.154 0.0 0
M  V30 27 O -9.923 -1.2871 0.0 0
M  V30 28 O -12.4154 -2.9488 0.0 0
M  V30 29 P -13.9132 -3.1243 0.0 0
M  V30 30 O -13.7377 -4.5987 0.0 0
M  V30 31 O -15.4111 -3.2998 0.0 0
M  V30 32 O -14.1122 -1.6265 0.0 0
M  V30 33 P -15.9961 -4.6689 0.0 0
M  V30 34 O -17.3886 -4.0838 0.0 0
M  V30 35 O -14.627 -5.2306 0.0 0
M  V30 36 O -16.5812 -6.038 0.0 0
M  V30 END ATOM
M  V30 BEGIN BOND
M  V30 1 1 1 2
M  V30 2 2 2 3
M  V30 3 1 2 4
M  V30 4 1 3 5
M  V30 5 2 4 6
M  V30 6 2 5 7
M  V30 7 1 7 8
M  V30 8 1 8 9
M  V30 9 1 9 10
M  V30 10 2 9 11
M  V30 11 1 10 12
M  V30 12 2 10 13
M  V30 13 1 11 14
M  V30 14 2 12 15
M  V30 15 1 12 16
M  V30 16 1 13 17
M  V30 17 1 18 14 CFG=3
M  V30 18 1 16 19
M  V30 19 1 18 20
M  V30 20 1 18 21
M  V30 21 1 19 22
M  V30 22 1 20 23
M  V30 23 1 21 24 CFG=1
M  V30 24 1 21 25
M  V30 25 1 23 26 CFG=3
M  V30 26 1 25 27 CFG=1
M  V30 27 1 26 28
M  V30 28 1 28 29
M  V30 29 2 29 30
M  V30 30 1 29 31
M  V30 31 1 29 32
M  V30 32 1 31 33
M  V30 33 2 33 34
M  V30 34 1 33 35
M  V30 35 1 33 36
M  V30 36 1 6 7
M  V30 37 1 13 14
M  V30 38 2 17 19
M  V30 39 1 23 25
M  V30 END BOND
M  V30 BEGIN COLLECTION
M  V30 MDLV30/STEABS ATOMS=(4 18 21 23 25)
M  V30 END COLLECTION
M  V30 END CTAB
M  END
>  <Compound ID>
79

>  <Name>
7-(p-chlorobenzyl) GDP

>  <Uniprot>
P06730

>  <Target>
eIF4E

>  <Smiles>
NC1=NC2=C(C(=O)[NH]1)[N+](CC1=CC=C(Cl)C=C1)=CN2[C@@H]1O[C@H](COP(=O)(O)OP(=O)(O)O)[C@@H](O)[C@H]1O

>  <Kd (nM)>


>  <Assay (Kd)>


>  <Ki (nM)>


>  <Assay (Ki)>


>  <IC50 (nM)>


>  <Assay (IC50)>


>  <EC50 (nM)>


>  <Assay (EC50)>


>  <Article DOI>
10.1021/bi9830213

>  <Molecular Weight>
568.78

>  <Exact Mass>
568.039583852

>  <XLogP3>
-3.12

>  <Heavy Atom Count>
36

>  <Ring Count>
4

>  <Hydrogen Bond Acceptor Count>
11

>  <Hydrogen Bond Donor Count>
7

>  <Rotatable Bond Count>
8

>  <Topological Polar Surface Area>
243.56

>  <Molecular Formula>
C17H21ClN5O11P2+

>  <InChI>
InChI=1S/C17H20ClN5O11P2/c18-9-3-1-8(2-4-9)5-22-7-23(14-11(22)15(26)21-17(19)20-14)16-13(25)12(24)10(33-16)6-32-36(30,31)34-35(27,28)29/h1-4,7,10,12-13,16,24-25H,5-6H2,(H5-,19,20,21,26,27,28,29,30,31)/p+1/t10-,12-,13-,16-/m1/s1

>  <InChI Key>
AGDQKNOWUGPBCP-XNIJJKJLSA-O

>  <BindingDB>


>  <PubChem>


>  <ChEMBL>


$$$$
Compound 285
Actelion Java MolfileCreator 2.0

  0  0  0  0  0  0              0 V3000
M  V30 BEGIN CTAB
M  V30 COUNTS 24 26 0 0 0
M  V30 BEGIN ATOM
M  V30 1 P 0.0 0.0 0.0 0
M  V30 2 O -0.4015 1.4644 0.0 0
M  V30 3 O 1.4408 0.4015 0.0 0
M  V30 4 O 0.3779 -1.4408 0.0 0
M  V30 5 O -1.4644 -0.3779 0.0 0
M  V30 6 C 2.4919 -0.6495 0.0 0
M  V30 7 C 3.9328 -0.248 0.0 0 CFG=1
M  V30 8 O 5.0902 -1.181 0.0 0
M  V30 9 C 4.4524 1.1692 0.0 0 CFG=1
M  V30 10 C 6.3421 -0.3543 0.0 0 CFG=2
M  V30 11 O 3.6257 2.4447 0.0 0
M  V30 12 C 5.9405 1.1101 0.0 0 CFG=2
M  V30 13 N 7.7357 -0.8739 0.0 0
M  V30 14 O 6.8735 2.2911 0.0 0
M  V30 15 C 8.9876 -0.0472 0.0 0
M  V30 16 C 8.1136 -2.3148 0.0 0
M  V30 17 N 9.212 1.4526 0.0 0
M  V30 18 C 10.145 -0.9802 0.0 0
M  V30 19 N 9.6017 -2.3738 0.0 0
M  V30 20 C 10.6056 2.0077 0.0 0
M  V30 21 C 11.5386 -0.4251 0.0 0
M  V30 22 N 11.763 1.0747 0.0 0
M  V30 23 N 10.83 3.5076 0.0 0
M  V30 24 O 12.696 -1.3581 0.0 0
M  V30 END ATOM
M  V30 BEGIN BOND
M  V30 1 2 1 2
M  V30 2 1 1 3
M  V30 3 1 1 4
M  V30 4 1 1 5
M  V30 5 1 3 6
M  V30 6 1 7 6 CFG=3
M  V30 7 1 7 8
M  V30 8 1 7 9
M  V30 9 1 8 10
M  V30 10 1 9 11 CFG=1
M  V30 11 1 9 12
M  V30 12 1 10 13 CFG=3
M  V30 13 1 12 14 CFG=1
M  V30 14 1 13 15
M  V30 15 1 13 16
M  V30 16 1 15 17
M  V30 17 2 15 18
M  V30 18 2 16 19
M  V30 19 2 17 20
M  V30 20 1 18 21
M  V30 21 1 20 22
M  V30 22 1 20 23
M  V30 23 2 21 24
M  V30 24 1 10 12
M  V30 25 1 18 19
M  V30 26 1 21 22
M  V30 END BOND
M  V30 BEGIN COLLECTION
M  V30 MDLV30/STEABS ATOMS=(4 7 9 10 12)
M  V30 END COLLECTION
M  V30 END CTAB
M  END
>  <Compound ID>
80

>  <Name>
GMP

>  <Uniprot>
P06730

>  <Target>
eIF4E

>  <Smiles>
NC1=NC2=C(N=CN2[C@@H]2O[C@H](COP(=O)(O)O)[C@@H](O)[C@H]2O)C(=O)[NH]1

>  <Kd (nM)>
55730

>  <Assay (Kd)>
Kd was determined by the mass spectrometry

>  <Ki (nM)>


>  <Assay (Ki)>


>  <IC50 (nM)>


>  <Assay (IC50)>


>  <EC50 (nM)>


>  <Assay (EC50)>


>  <Article DOI>
10.1016/j.jmb.2007.06.033

>  <Molecular Weight>
363.223

>  <Exact Mass>
363.057999038

>  <XLogP3>
-3.54

>  <Heavy Atom Count>
24

>  <Ring Count>
3

>  <Hydrogen Bond Acceptor Count>
10

>  <Hydrogen Bond Donor Count>
6

>  <Rotatable Bond Count>
4

>  <Topological Polar Surface Area>
206.04

>  <Molecular Formula>
C10H14N5O8P

>  <InChI>
InChI=1S/C10H14N5O8P/c11-10-13-7-4(8(18)14-10)12-2-15(7)9-6(17)5(16)3(23-9)1-22-24(19,20)21/h2-3,5-6,9,16-17H,1H2,(H2,19,20,21)(H3,11,13,14,18)/t3-,5-,6-,9-/m1/s1

>  <InChI Key>
RQFCJASXJCIDSX-UUOKFMHZSA-N

>  <BindingDB>
50010318

>  <PubChem>
135398631

>  <ChEMBL>
CHEMBL283807

$$$$
Compound 286
Actelion Java MolfileCreator 2.0

  0  0  0  0  0  0              0 V3000
M  V30 BEGIN CTAB
M  V30 COUNTS 28 30 0 0 0
M  V30 BEGIN ATOM
M  V30 1 P 0.0 0.0 0.0 0
M  V30 2 O 0.2223 -1.4746 0.0 0
M  V30 3 O -1.498 -0.2223 0.0 0
M  V30 4 O 1.4746 0.2457 0.0 0
M  V30 5 O -0.2457 1.498 0.0 0
M  V30 6 P -2.0481 -1.615 0.0 0
M  V30 7 C 2.4109 -0.9128 0.0 0
M  V30 8 O -3.4642 -1.065 0.0 0
M  V30 9 O -0.6553 -2.1417 0.0 0
M  V30 10 O -2.5981 -3.0078 0.0 0
M  V30 11 C 3.8855 -0.6671 0.0 0 CFG=1
M  V30 12 O 4.9388 -1.7204 0.0 0
M  V30 13 C 4.5643 0.6788 0.0 0 CFG=1
M  V30 14 C 6.273 -1.0299 0.0 0 CFG=2
M  V30 15 O 3.8738 2.0364 0.0 0
M  V30 16 C 6.039 0.4564 0.0 0 CFG=2
M  V30 17 N 7.5955 -1.7087 0.0 0
M  V30 18 O 7.0923 1.5331 0.0 0
M  V30 19 C 8.9297 -1.0182 0.0 0
M  V30 20 C 7.8179 -3.1833 0.0 0
M  V30 21 N 9.316 0.4447 0.0 0
M  V30 22 C 9.9831 -2.0715 0.0 0
M  V30 23 N 9.2926 -3.4057 0.0 0
M  V30 24 C 10.7555 0.8426 0.0 0
M  V30 25 C 11.4226 -1.6736 0.0 0
M  V30 26 N 11.8088 -0.2106 0.0 0
M  V30 27 N 11.1417 2.3055 0.0 0
M  V30 28 O 12.4759 -2.7269 0.0 0
M  V30 END ATOM
M  V30 BEGIN BOND
M  V30 1 2 1 2
M  V30 2 1 1 3
M  V30 3 1 1 4
M  V30 4 1 1 5
M  V30 5 1 3 6
M  V30 6 1 4 7
M  V30 7 2 6 8
M  V30 8 1 6 9
M  V30 9 1 6 10
M  V30 10 1 11 7 CFG=3
M  V30 11 1 11 12
M  V30 12 1 11 13
M  V30 13 1 12 14
M  V30 14 1 13 15 CFG=1
M  V30 15 1 13 16
M  V30 16 1 14 17 CFG=3
M  V30 17 1 16 18 CFG=1
M  V30 18 1 17 19
M  V30 19 1 17 20
M  V30 20 1 19 21
M  V30 21 2 19 22
M  V30 22 2 20 23
M  V30 23 2 21 24
M  V30 24 1 22 25
M  V30 25 1 24 26
M  V30 26 1 24 27
M  V30 27 2 25 28
M  V30 28 1 14 16
M  V30 29 1 22 23
M  V30 30 1 25 26
M  V30 END BOND
M  V30 BEGIN COLLECTION
M  V30 MDLV30/STEABS ATOMS=(4 11 13 14 16)
M  V30 END COLLECTION
M  V30 END CTAB
M  END
>  <Compound ID>
81

>  <Name>
GDP

>  <Uniprot>
P06730

>  <Target>
eIF4E

>  <Smiles>
NC1=NC2=C(N=CN2[C@@H]2O[C@H](COP(=O)(O)OP(=O)(O)O)[C@@H](O)[C@H]2O)C(=O)[NH]1

>  <Kd (nM)>


>  <Assay (Kd)>


>  <Ki (nM)>


>  <Assay (Ki)>


>  <IC50 (nM)>


>  <Assay (IC50)>


>  <EC50 (nM)>


>  <Assay (EC50)>


>  <Article DOI>
10.1016/j.ejmech.2019.01.080

>  <Molecular Weight>
443.202

>  <Exact Mass>
443.02432956

>  <XLogP3>
-4.63

>  <Heavy Atom Count>
28

>  <Ring Count>
3

>  <Hydrogen Bond Acceptor Count>
12

>  <Hydrogen Bond Donor Count>
7

>  <Rotatable Bond Count>
6

>  <Topological Polar Surface Area>
252.57

>  <Molecular Formula>
C10H15N5O11P2

>  <InChI>
InChI=1S/C10H15N5O11P2/c11-10-13-7-4(8(18)14-10)12-2-15(7)9-6(17)5(16)3(25-9)1-24-28(22,23)26-27(19,20)21/h2-3,5-6,9,16-17H,1H2,(H,22,23)(H2,19,20,21)(H3,11,13,14,18)/t3-,5-,6-,9-/m1/s1

>  <InChI Key>
QGWNDRXFNXRZMB-UUOKFMHZSA-N

>  <BindingDB>
92459

>  <PubChem>
135398619

>  <ChEMBL>
CHEMBL384759

$$$$
Compound 287
Actelion Java MolfileCreator 2.0

  0  0  0  0  0  0              0 V3000
M  V30 BEGIN CTAB
M  V30 COUNTS 22 22 0 0 0
M  V30 BEGIN ATOM
M  V30 1 O 0.0 0.0 0.0 0
M  V30 2 C 0.118 -1.4874 0.0 0
M  V30 3 O -1.1214 -2.3374 0.0 0
M  V30 4 C 1.4756 -2.1131 0.0 0
M  V30 5 C 2.6915 -1.2395 0.0 0
M  V30 6 C 4.0491 -1.8652 0.0 0
M  V30 7 C 2.5499 0.2715 0.0 0
M  V30 8 C 5.2651 -0.9916 0.0 0
M  V30 9 C 6.6227 -1.6173 0.0 0
M  V30 10 C 7.8386 -0.7437 0.0 0
M  V30 11 C 9.1962 -1.3694 0.0 0
M  V30 12 C 7.6851 0.7673 0.0 0
M  V30 13 C 10.4121 -0.4958 0.0 0
M  V30 14 C 11.7697 -1.1214 0.0 0
M  V30 15 C 11.8996 -2.6089 0.0 0
M  V30 16 C 12.9857 -0.2479 0.0 0
M  V30 17 C 13.2572 -3.2346 0.0 0
M  V30 18 C 10.6601 -3.4589 0.0 0
M  V30 19 C 14.3433 -0.8735 0.0 0
M  V30 20 C 11.9114 0.8263 0.0 0
M  V30 21 C 13.8357 1.0034 0.0 0
M  V30 22 C 14.4731 -2.361 0.0 0
M  V30 END ATOM
M  V30 BEGIN BOND
M  V30 1 2 1 2
M  V30 2 1 2 3
M  V30 3 1 2 4
M  V30 4 2 4 5
M  V30 5 1 5 6
M  V30 6 1 5 7
M  V30 7 2 6 8
M  V30 8 1 8 9
M  V30 9 2 9 10
M  V30 10 1 10 11
M  V30 11 1 10 12
M  V30 12 2 11 13
M  V30 13 1 13 14
M  V30 14 2 14 15
M  V30 15 1 14 16
M  V30 16 1 15 17
M  V30 17 1 15 18
M  V30 18 1 16 19
M  V30 19 1 16 20
M  V30 20 1 16 21
M  V30 21 1 17 22
M  V30 22 1 19 22
M  V30 END BOND
M  V30 END CTAB
M  END
>  <Compound ID>
82

>  <Name>
ATRA

>  <Uniprot>
P29373

>  <Target>
CRABP-II

>  <Smiles>
CC1=C(/C=C/C(C)=C/C=C/C(C)=C/C(=O)O)C(C)(C)CCC1

>  <Kd (nM)>
2

>  <Assay (Kd)>
Inhibition of [3H]-ATRA binding to murine CRABP-II

>  <Ki (nM)>


>  <Assay (Ki)>


>  <IC50 (nM)>


>  <Assay (IC50)>


>  <EC50 (nM)>


>  <Assay (EC50)>


>  <Article DOI>
10.1021/jm9603126

>  <Molecular Weight>
300.442

>  <Exact Mass>
300.208930136

>  <XLogP3>
6.3

>  <Heavy Atom Count>
22

>  <Ring Count>
1

>  <Hydrogen Bond Acceptor Count>
1

>  <Hydrogen Bond Donor Count>
1

>  <Rotatable Bond Count>
5

>  <Topological Polar Surface Area>
37.3

>  <Molecular Formula>
C20H28O2

>  <InChI>
InChI=1S/C20H28O2/c1-15(8-6-9-16(2)14-19(21)22)11-12-18-17(3)10-7-13-20(18,4)5/h6,8-9,11-12,14H,7,10,13H2,1-5H3,(H,21,22)/b9-6+,12-11+,15-8+,16-14+

>  <InChI Key>
SHGAZHPCJJPHSC-YCNIQYBTSA-N

>  <BindingDB>
31883

>  <PubChem>
444795

>  <ChEMBL>


$$$$
Compound 288
Actelion Java MolfileCreator 2.0

  0  0  0  0  0  0              0 V3000
M  V30 BEGIN CTAB
M  V30 COUNTS 22 22 0 0 0
M  V30 BEGIN ATOM
M  V30 1 O 0.0 0.0 0.0 0
M  V30 2 C 0.118 -1.4874 0.0 0
M  V30 3 O -1.1214 -2.3374 0.0 0
M  V30 4 C 1.4756 -2.1131 0.0 0
M  V30 5 C 2.6915 -1.2395 0.0 0
M  V30 6 C 4.0491 -1.8652 0.0 0
M  V30 7 C 2.5499 0.2715 0.0 0
M  V30 8 C 5.2651 -0.9916 0.0 0
M  V30 9 C 6.6227 -1.6173 0.0 0
M  V30 10 C 7.8386 -0.7437 0.0 0
M  V30 11 C 9.1962 -1.3694 0.0 0
M  V30 12 C 7.6851 0.7673 0.0 0
M  V30 13 C 10.4121 -0.4958 0.0 0
M  V30 14 C 11.7697 -1.1214 0.0 0
M  V30 15 C 11.8996 -2.6089 0.0 0
M  V30 16 C 12.9857 -0.2479 0.0 0
M  V30 17 C 13.2572 -3.2346 0.0 0
M  V30 18 C 10.6601 -3.4589 0.0 0
M  V30 19 C 14.3433 -0.8735 0.0 0
M  V30 20 C 11.9114 0.8263 0.0 0
M  V30 21 C 13.8357 1.0034 0.0 0
M  V30 22 C 14.4731 -2.361 0.0 0
M  V30 END ATOM
M  V30 BEGIN BOND
M  V30 1 2 1 2
M  V30 2 1 2 3
M  V30 3 1 2 4
M  V30 4 2 4 5
M  V30 5 1 5 6
M  V30 6 1 5 7
M  V30 7 2 6 8
M  V30 8 1 8 9
M  V30 9 2 9 10
M  V30 10 1 10 11
M  V30 11 1 10 12
M  V30 12 2 11 13
M  V30 13 1 13 14
M  V30 14 2 14 15
M  V30 15 1 14 16
M  V30 16 1 15 17
M  V30 17 1 15 18
M  V30 18 1 16 19
M  V30 19 1 16 20
M  V30 20 1 16 21
M  V30 21 1 17 22
M  V30 22 1 19 22
M  V30 END BOND
M  V30 END CTAB
M  END
>  <Compound ID>
82

>  <Name>
ATRA

>  <Uniprot>
P29762

>  <Target>
CRABP-I

>  <Smiles>
CC1=C(/C=C/C(C)=C/C=C/C(C)=C/C(=O)O)C(C)(C)CCC1

>  <Kd (nM)>
0.4

>  <Assay (Kd)>
Inhibition of [3H]-ATRA binding to murine CRABP-I

>  <Ki (nM)>


>  <Assay (Ki)>


>  <IC50 (nM)>


>  <Assay (IC50)>


>  <EC50 (nM)>


>  <Assay (EC50)>


>  <Article DOI>
10.1021/jm9603126

>  <Molecular Weight>
300.442

>  <Exact Mass>
300.208930136

>  <XLogP3>
6.3

>  <Heavy Atom Count>
22

>  <Ring Count>
1

>  <Hydrogen Bond Acceptor Count>
1

>  <Hydrogen Bond Donor Count>
1

>  <Rotatable Bond Count>
5

>  <Topological Polar Surface Area>
37.3

>  <Molecular Formula>
C20H28O2

>  <InChI>
InChI=1S/C20H28O2/c1-15(8-6-9-16(2)14-19(21)22)11-12-18-17(3)10-7-13-20(18,4)5/h6,8-9,11-12,14H,7,10,13H2,1-5H3,(H,21,22)/b9-6+,12-11+,15-8+,16-14+

>  <InChI Key>
SHGAZHPCJJPHSC-YCNIQYBTSA-N

>  <BindingDB>
31883

>  <PubChem>
444795

>  <ChEMBL>


$$$$
Compound 289
Actelion Java MolfileCreator 2.0

  0  0  0  0  0  0              0 V3000
M  V30 BEGIN CTAB
M  V30 COUNTS 41 45 0 0 0
M  V30 BEGIN ATOM
M  V30 1 Cl 0.0 0.0 0.0 0
M  V30 2 C -1.5086 0.0707 0.0 0
M  V30 3 C -2.3101 -1.1904 0.0 0
M  V30 4 C -2.2276 1.4025 0.0 0
M  V30 5 C -3.8187 -1.1196 0.0 0
M  V30 6 C -3.7362 1.4732 0.0 0
M  V30 7 C -4.5377 0.2121 0.0 0
M  V30 8 C -6.0463 0.2828 0.0 0
M  V30 9 N -6.8478 -0.9782 0.0 0
M  V30 10 S -8.3564 -0.9075 0.0 0
M  V30 11 C -6.1524 -2.2865 0.0 0
M  V30 12 O -8.4271 -2.3926 0.0 0
M  V30 13 O -8.3093 0.601 0.0 0
M  V30 14 C -9.8651 -0.8368 0.0 0
M  V30 15 C -4.6791 -2.4869 0.0 0
M  V30 16 C -6.8242 -3.6183 0.0 0
M  V30 17 C -10.6665 -2.0979 0.0 0
M  V30 18 C -10.584 0.495 0.0 0
M  V30 19 C -4.4316 -3.9483 0.0 0
M  V30 20 C -5.7634 -4.6437 0.0 0
M  V30 21 C -12.1752 -2.0272 0.0 0
M  V30 22 C -12.0927 0.5657 0.0 0
M  V30 23 C -12.8941 -0.6953 0.0 0
M  V30 24 S -14.4028 -0.6246 0.0 0
M  V30 25 O -14.3556 0.8839 0.0 0
M  V30 26 O -14.4735 -2.1097 0.0 0
M  V30 27 N -15.9114 -0.5539 0.0 0
M  V30 28 C -16.6304 0.7778 0.0 0
M  V30 29 C -16.7129 -1.815 0.0 0
M  V30 30 C -18.139 0.8486 0.0 0
M  V30 31 C -16.0175 -3.1233 0.0 0
M  V30 32 C -18.858 2.1804 0.0 0
M  V30 33 C -18.9405 -0.4125 0.0 0
M  V30 34 C -14.5324 -3.1705 0.0 0
M  V30 35 C -16.8189 -4.3844 0.0 0
M  V30 36 C -20.3666 2.2511 0.0 0
M  V30 37 C -20.4491 -0.3418 0.0 0
M  V30 38 C -13.837 -4.4787 0.0 0
M  V30 39 C -16.1236 -5.6927 0.0 0
M  V30 40 C -21.1681 0.99 0.0 0
M  V30 41 N -14.6385 -5.7399 0.0 0
M  V30 END ATOM
M  V30 BEGIN BOND
M  V30 1 1 1 2
M  V30 2 2 2 3
M  V30 3 1 2 4
M  V30 4 1 3 5
M  V30 5 2 4 6
M  V30 6 2 5 7
M  V30 7 1 7 8
M  V30 8 1 8 9
M  V30 9 1 9 10
M  V30 10 1 9 11
M  V30 11 2 10 12
M  V30 12 2 10 13
M  V30 13 1 10 14
M  V30 14 1 11 15
M  V30 15 1 11 16
M  V30 16 2 14 17
M  V30 17 1 14 18
M  V30 18 1 15 19
M  V30 19 1 16 20
M  V30 20 1 17 21
M  V30 21 2 18 22
M  V30 22 2 21 23
M  V30 23 1 23 24
M  V30 24 2 24 25
M  V30 25 2 24 26
M  V30 26 1 24 27
M  V30 27 1 27 28
M  V30 28 1 27 29
M  V30 29 1 28 30
M  V30 30 1 29 31
M  V30 31 2 30 32
M  V30 32 1 30 33
M  V30 33 1 31 34
M  V30 34 1 31 35
M  V30 35 1 32 36
M  V30 36 2 33 37
M  V30 37 1 34 38
M  V30 38 1 35 39
M  V30 39 2 36 40
M  V30 40 1 38 41
M  V30 41 1 6 7
M  V30 42 1 19 20
M  V30 43 1 22 23
M  V30 44 1 37 40
M  V30 45 1 39 41
M  V30 END BOND
M  V30 END CTAB
M  END
>  <Compound ID>
83

>  <Name>


>  <Uniprot>
O43924

>  <Target>
PDEdelta

>  <Smiles>
O=S(=O)(C1=CC=C(S(=O)(=O)N(CC2=CC=C(Cl)C=C2)C2CCCC2)C=C1)N(CC1=CC=CC=C1)CC1CCNCC1

>  <Kd (nM)>
8

>  <Assay (Kd)>
Kd was determined by competitive fluorescent polarization analysis

>  <Ki (nM)>


>  <Assay (Ki)>


>  <IC50 (nM)>


>  <Assay (IC50)>


>  <EC50 (nM)>


>  <Assay (EC50)>


>  <Article DOI>
10.1002/anie.201610957

>  <Molecular Weight>
616.249

>  <Exact Mass>
615.199226376

>  <XLogP3>
5.42

>  <Heavy Atom Count>
41

>  <Ring Count>
5

>  <Hydrogen Bond Acceptor Count>
5

>  <Hydrogen Bond Donor Count>
1

>  <Rotatable Bond Count>
11

>  <Topological Polar Surface Area>
86.79

>  <Molecular Formula>
C31H38ClN3O4S2

>  <InChI>
InChI=1S/C31H38ClN3O4S2/c32-28-12-10-26(11-13-28)24-35(29-8-4-5-9-29)41(38,39)31-16-14-30(15-17-31)40(36,37)34(22-25-6-2-1-3-7-25)23-27-18-20-33-21-19-27/h1-3,6-7,10-17,27,29,33H,4-5,8-9,18-24H2

>  <InChI Key>
SCLQBRLPJHXGKJ-UHFFFAOYSA-N

>  <BindingDB>


>  <PubChem>
124080852

>  <ChEMBL>


$$$$
Compound 290
Actelion Java MolfileCreator 2.0

  0  0  0  0  0  0              0 V3000
M  V30 BEGIN CTAB
M  V30 COUNTS 50 56 0 0 0
M  V30 BEGIN ATOM
M  V30 1 S 0.0 0.0 0.0 0
M  V30 2 C -1.4591 0.3647 0.0 0
M  V30 3 C 0.0941 -1.4826 0.0 0
M  V30 4 N -2.2593 -0.8943 0.0 0
M  V30 5 N -2.0357 1.765 0.0 0
M  V30 6 C -1.3061 -2.0357 0.0 0
M  V30 7 C 1.259 -2.3887 0.0 0
M  V30 8 C -3.5301 1.9768 0.0 0
M  V30 9 C -1.5179 -3.5066 0.0 0
M  V30 10 C 1.0472 -3.8596 0.0 0
M  V30 11 O -4.4597 0.8119 0.0 0
M  V30 12 C -4.1067 3.3771 0.0 0
M  V30 13 C -0.353 -4.4127 0.0 0
M  V30 14 C -5.6011 3.589 0.0 0
M  V30 15 C -3.2006 4.5656 0.0 0
M  V30 16 C -6.1777 4.9892 0.0 0
M  V30 17 C -6.5308 2.424 0.0 0
M  V30 18 C -3.7772 5.9659 0.0 0
M  V30 19 C -5.2717 6.1777 0.0 0
M  V30 20 C -7.6722 5.2011 0.0 0
M  V30 21 N -8.0252 2.6358 0.0 0
M  V30 22 C -8.6018 4.0361 0.0 0
M  V30 23 C -8.9548 1.4709 0.0 0
M  V30 24 S -10.461 1.5297 0.0 0
M  V30 25 N -8.5429 0.047 0.0 0
M  V30 26 C -10.9788 0.1294 0.0 0
M  V30 27 C -9.7903 -0.7766 0.0 0
M  V30 28 C -12.4261 -0.2824 0.0 0
M  V30 29 C -9.8491 -2.2593 0.0 0
M  V30 30 C -13.5205 0.7648 0.0 0
M  V30 31 O -8.59 -3.0359 0.0 0
M  V30 32 O -11.1788 -2.9535 0.0 0
M  V30 33 C -14.9678 0.353 0.0 0
M  V30 34 O -16.0622 1.4002 0.0 0
M  V30 35 C -17.5096 0.9884 0.0 0
M  V30 36 C -17.8744 -0.4471 0.0 0
M  V30 37 C -18.6039 2.0357 0.0 0
M  V30 38 F -16.8035 -1.4709 0.0 0
M  V30 39 C -19.3217 -0.859 0.0 0
M  V30 40 C -20.0513 1.6238 0.0 0
M  V30 41 C -20.4161 0.1882 0.0 0
M  V30 42 C -21.8634 -0.2235 0.0 0
M  V30 43 C -23.3108 -0.6354 0.0 0
M  V30 44 C -24.7582 -1.0472 0.0 0
M  V30 45 N -25.8525 0.0 0.0 0
M  V30 46 C -25.5113 1.4591 0.0 0
M  V30 47 C -27.2999 -0.4118 0.0 0
M  V30 48 C -26.6056 2.5064 0.0 0
M  V30 49 C -28.3942 0.6354 0.0 0
M  V30 50 N -28.053 2.0945 0.0 0
M  V30 END ATOM
M  V30 BEGIN BOND
M  V30 1 1 1 2
M  V30 2 1 1 3
M  V30 3 2 2 4
M  V30 4 1 2 5
M  V30 5 2 3 6
M  V30 6 1 3 7
M  V30 7 1 5 8
M  V30 8 1 6 9
M  V30 9 2 7 10
M  V30 10 2 8 11
M  V30 11 1 8 12
M  V30 12 2 9 13
M  V30 13 2 12 14
M  V30 14 1 12 15
M  V30 15 1 14 16
M  V30 16 1 14 17
M  V30 17 2 15 18
M  V30 18 2 16 19
M  V30 19 1 16 20
M  V30 20 1 17 21
M  V30 21 1 20 22
M  V30 22 1 21 23
M  V30 23 1 23 24
M  V30 24 2 23 25
M  V30 25 1 24 26
M  V30 26 1 25 27
M  V30 27 1 26 28
M  V30 28 1 27 29
M  V30 29 1 28 30
M  V30 30 2 29 31
M  V30 31 1 29 32
M  V30 32 1 30 33
M  V30 33 1 33 34
M  V30 34 1 34 35
M  V30 35 2 35 36
M  V30 36 1 35 37
M  V30 37 1 36 38
M  V30 38 1 36 39
M  V30 39 2 37 40
M  V30 40 2 39 41
M  V30 41 1 41 42
M  V30 42 3 42 43
M  V30 43 1 43 44
M  V30 44 1 44 45
M  V30 45 1 45 46
M  V30 46 1 45 47
M  V30 47 1 46 48
M  V30 48 1 47 49
M  V30 49 1 48 50
M  V30 50 1 4 6
M  V30 51 1 10 13
M  V30 52 1 18 19
M  V30 53 1 21 22
M  V30 54 2 26 27
M  V30 55 1 40 41
M  V30 56 1 49 50
M  V30 END BOND
M  V30 END CTAB
M  END
>  <Compound ID>
84

>  <Name>


>  <Uniprot>
Q07817

>  <Target>
BCL-xL

>  <Smiles>
O=C(NC1=NC2=CC=CC=C2S1)C1=CC=CC2=C1CN(C1=NC(C(=O)O)=C(CCCOC3=CC=C(C#CCN4CCNCC4)C=C3F)S1)CC2

>  <Kd (nM)>


>  <Assay (Kd)>


>  <Ki (nM)>
0.001

>  <Assay (Ki)>
Ki was determined by AlphaScreen competitive binding assay

>  <IC50 (nM)>


>  <Assay (IC50)>


>  <EC50 (nM)>


>  <Assay (EC50)>


>  <Article DOI>
10.1039/c9cc07217a

>  <Molecular Weight>
710.857

>  <Exact Mass>
710.21452382

>  <XLogP3>
4.14

>  <Heavy Atom Count>
50

>  <Ring Count>
7

>  <Hydrogen Bond Acceptor Count>
10

>  <Hydrogen Bond Donor Count>
3

>  <Rotatable Bond Count>
10

>  <Topological Polar Surface Area>
119.92

>  <Molecular Formula>
C37H35FN6O4S2

>  <InChI>
InChI=1S/C37H35FN6O4S2/c38-28-22-24(6-4-17-43-19-15-39-16-20-43)12-13-30(28)48-21-5-11-32-33(35(46)47)41-37(50-32)44-18-14-25-7-3-8-26(27(25)23-44)34(45)42-36-40-29-9-1-2-10-31(29)49-36/h1-3,7-10,12-13,22,39H,5,11,14-21,23H2,(H,46,47)(H,40,42,45)

>  <InChI Key>
GYVGTEWZTVGKGM-UHFFFAOYSA-N

>  <BindingDB>


>  <PubChem>
132020374

>  <ChEMBL>


$$$$
Compound 291
Actelion Java MolfileCreator 2.0

  0  0  0  0  0  0              0 V3000
M  V30 BEGIN CTAB
M  V30 COUNTS 25 26 0 0 0
M  V30 BEGIN ATOM
M  V30 1 O 0.0 0.0 0.0 0
M  V30 2 C -1.2498 -0.8253 0.0 0
M  V30 3 N -1.1555 -2.311 0.0 0
M  V30 4 N -2.6058 -0.1532 0.0 0
M  V30 5 C 0.1768 -2.9595 0.0 0
M  V30 6 C -2.4053 -3.1364 0.0 0
M  V30 7 C -2.7237 1.3559 0.0 0
M  V30 8 C 1.4031 -2.1106 0.0 0
M  V30 9 C -3.7613 -2.4643 0.0 0
M  V30 10 C -1.4974 2.2049 0.0 0
M  V30 11 C -4.0797 2.028 0.0 0
M  V30 12 C 2.7355 -2.7591 0.0 0
M  V30 13 C 1.2852 -0.6013 0.0 0
M  V30 14 C -5.0112 -3.2897 0.0 0
M  V30 15 C -1.6153 3.7142 0.0 0
M  V30 16 C -4.1976 3.5373 0.0 0
M  V30 17 C 3.9618 -1.9101 0.0 0
M  V30 18 C 2.5115 0.2476 0.0 0
M  V30 19 C -6.3672 -2.6176 0.0 0
M  V30 20 C -2.9713 4.3863 0.0 0
M  V30 21 C 3.8439 -0.4008 0.0 0
M  V30 22 C 5.0701 0.448 0.0 0
M  V30 23 O 4.9522 1.9573 0.0 0
M  V30 24 N 6.4025 -0.2004 0.0 0
M  V30 25 O 7.6288 0.6485 0.0 0
M  V30 END ATOM
M  V30 BEGIN BOND
M  V30 1 2 1 2
M  V30 2 1 2 3
M  V30 3 1 2 4
M  V30 4 1 3 5
M  V30 5 1 3 6
M  V30 6 1 4 7
M  V30 7 1 5 8
M  V30 8 1 6 9
M  V30 9 2 7 10
M  V30 10 1 7 11
M  V30 11 2 8 12
M  V30 12 1 8 13
M  V30 13 1 9 14
M  V30 14 1 10 15
M  V30 15 2 11 16
M  V30 16 1 12 17
M  V30 17 2 13 18
M  V30 18 1 14 19
M  V30 19 2 15 20
M  V30 20 2 17 21
M  V30 21 1 21 22
M  V30 22 2 22 23
M  V30 23 1 22 24
M  V30 24 1 24 25
M  V30 25 1 16 20
M  V30 26 1 18 21
M  V30 END BOND
M  V30 END CTAB
M  END
>  <Compound ID>
85

>  <Name>
Nexturastat A

>  <Uniprot>
Q9UBN7

>  <Target>
HDAC6

>  <Smiles>
CCCCN(CC1=CC=C(C(=O)NO)C=C1)C(=O)NC1=CC=CC=C1

>  <Kd (nM)>


>  <Assay (Kd)>


>  <Ki (nM)>


>  <Assay (Ki)>


>  <IC50 (nM)>
5.02

>  <Assay (IC50)>
IC50 of HDAC6

>  <EC50 (nM)>


>  <Assay (EC50)>


>  <Article DOI>
10.1021/jm301098e

>  <Molecular Weight>
341.411

>  <Exact Mass>
341.173941596

>  <XLogP3>
2.64

>  <Heavy Atom Count>
25

>  <Ring Count>
2

>  <Hydrogen Bond Acceptor Count>
3

>  <Hydrogen Bond Donor Count>
3

>  <Rotatable Bond Count>
7

>  <Topological Polar Surface Area>
81.67

>  <Molecular Formula>
C19H23N3O3

>  <InChI>
InChI=1S/C19H23N3O3/c1-2-3-13-22(19(24)20-17-7-5-4-6-8-17)14-15-9-11-16(12-10-15)18(23)21-25/h4-12,25H,2-3,13-14H2,1H3,(H,20,24)(H,21,23)

>  <InChI Key>
JZWXMCPARMXZQV-UHFFFAOYSA-N

>  <BindingDB>
50398716

>  <PubChem>
71462653

>  <ChEMBL>
CHEMBL2179618

$$$$
Compound 292
Actelion Java MolfileCreator 2.0

  0  0  0  0  0  0              0 V3000
M  V30 BEGIN CTAB
M  V30 COUNTS 20 21 0 0 0
M  V30 BEGIN ATOM
M  V30 1 O 0.0 0.0 0.0 0
M  V30 2 C -0.4854 -1.41 0.0 0
M  V30 3 N 0.4969 -2.5195 0.0 0
M  V30 4 C -1.9647 -1.6989 0.0 0
M  V30 5 C 1.9532 -2.2074 0.0 0
M  V30 6 C -2.9703 -0.5663 0.0 0
M  V30 7 C -2.4502 -3.1089 0.0 0
M  V30 8 C 2.4155 -0.7743 0.0 0
M  V30 9 C 2.9356 -3.317 0.0 0
M  V30 10 C -4.4496 -0.8552 0.0 0
M  V30 11 C -3.9295 -3.3979 0.0 0
M  V30 12 N 1.41 0.3582 0.0 0
M  V30 13 C 3.8717 -0.4623 0.0 0
M  V30 14 C 4.3918 -3.0049 0.0 0
M  V30 15 C -4.935 -2.2652 0.0 0
M  V30 16 C 4.8541 -1.5718 0.0 0
M  V30 17 N -6.4144 -2.5542 0.0 0
M  V30 18 C -7.4199 -1.4215 0.0 0
M  V30 19 O -6.9576 0.0115 0.0 0
M  V30 20 C -8.8993 -1.7105 0.0 0
M  V30 END ATOM
M  V30 BEGIN BOND
M  V30 1 2 1 2
M  V30 2 1 2 3
M  V30 3 1 2 4
M  V30 4 1 3 5
M  V30 5 2 4 6
M  V30 6 1 4 7
M  V30 7 2 5 8
M  V30 8 1 5 9
M  V30 9 1 6 10
M  V30 10 2 7 11
M  V30 11 1 8 12
M  V30 12 1 8 13
M  V30 13 2 9 14
M  V30 14 2 10 15
M  V30 15 2 13 16
M  V30 16 1 15 17
M  V30 17 1 17 18
M  V30 18 2 18 19
M  V30 19 1 18 20
M  V30 20 1 11 15
M  V30 21 1 14 16
M  V30 END BOND
M  V30 END CTAB
M  END
>  <Compound ID>
86

>  <Name>
CI-994

>  <Uniprot>
Q13547

>  <Target>
HDAC1

>  <Smiles>
CC(=O)NC1=CC=C(C(=O)NC2=CC=CC=C2N)C=C1

>  <Kd (nM)>


>  <Assay (Kd)>


>  <Ki (nM)>
37

>  <Assay (Ki)>
Ki of HDAC1

>  <IC50 (nM)>
41

>  <Assay (IC50)>
IC50 of HDAC1 was assessed by microfluidic capillary electrophoresis

>  <EC50 (nM)>


>  <Assay (EC50)>


>  <Article DOI>
10.1021/acschembio.5b00640

>  <Molecular Weight>
269.304

>  <Exact Mass>
269.11642672

>  <XLogP3>
1.25

>  <Heavy Atom Count>
20

>  <Ring Count>
2

>  <Hydrogen Bond Acceptor Count>
3

>  <Hydrogen Bond Donor Count>
3

>  <Rotatable Bond Count>
3

>  <Topological Polar Surface Area>
84.22

>  <Molecular Formula>
C15H15N3O2

>  <InChI>
InChI=1S/C15H15N3O2/c1-10(19)17-12-8-6-11(7-9-12)15(20)18-14-5-3-2-4-13(14)16/h2-9H,16H2,1H3,(H,17,19)(H,18,20)

>  <InChI Key>
VAZAPHZUAVEOMC-UHFFFAOYSA-N

>  <BindingDB>
19422

>  <PubChem>
2746

>  <ChEMBL>
CHEMBL235191

$$$$
Compound 293
Actelion Java MolfileCreator 2.0

  0  0  0  0  0  0              0 V3000
M  V30 BEGIN CTAB
M  V30 COUNTS 20 21 0 0 0
M  V30 BEGIN ATOM
M  V30 1 O 0.0 0.0 0.0 0
M  V30 2 C -0.4854 -1.41 0.0 0
M  V30 3 N 0.4969 -2.5195 0.0 0
M  V30 4 C -1.9647 -1.6989 0.0 0
M  V30 5 C 1.9532 -2.2074 0.0 0
M  V30 6 C -2.9703 -0.5663 0.0 0
M  V30 7 C -2.4502 -3.1089 0.0 0
M  V30 8 C 2.4155 -0.7743 0.0 0
M  V30 9 C 2.9356 -3.317 0.0 0
M  V30 10 C -4.4496 -0.8552 0.0 0
M  V30 11 C -3.9295 -3.3979 0.0 0
M  V30 12 N 1.41 0.3582 0.0 0
M  V30 13 C 3.8717 -0.4623 0.0 0
M  V30 14 C 4.3918 -3.0049 0.0 0
M  V30 15 C -4.935 -2.2652 0.0 0
M  V30 16 C 4.8541 -1.5718 0.0 0
M  V30 17 N -6.4144 -2.5542 0.0 0
M  V30 18 C -7.4199 -1.4215 0.0 0
M  V30 19 O -6.9576 0.0115 0.0 0
M  V30 20 C -8.8993 -1.7105 0.0 0
M  V30 END ATOM
M  V30 BEGIN BOND
M  V30 1 2 1 2
M  V30 2 1 2 3
M  V30 3 1 2 4
M  V30 4 1 3 5
M  V30 5 2 4 6
M  V30 6 1 4 7
M  V30 7 2 5 8
M  V30 8 1 5 9
M  V30 9 1 6 10
M  V30 10 2 7 11
M  V30 11 1 8 12
M  V30 12 1 8 13
M  V30 13 2 9 14
M  V30 14 2 10 15
M  V30 15 2 13 16
M  V30 16 1 15 17
M  V30 17 1 17 18
M  V30 18 2 18 19
M  V30 19 1 18 20
M  V30 20 1 11 15
M  V30 21 1 14 16
M  V30 END BOND
M  V30 END CTAB
M  END
>  <Compound ID>
86

>  <Name>
CI-994

>  <Uniprot>
Q92769

>  <Target>
HDAC2

>  <Smiles>
CC(=O)NC1=CC=C(C(=O)NC2=CC=CC=C2N)C=C1

>  <Kd (nM)>


>  <Assay (Kd)>


>  <Ki (nM)>
223

>  <Assay (Ki)>
Ki of HDAC2

>  <IC50 (nM)>
147

>  <Assay (IC50)>
IC50 of HDAC2 was assessed by microfluidic capillary electrophoresis

>  <EC50 (nM)>


>  <Assay (EC50)>


>  <Article DOI>
10.1021/acschembio.5b00640

>  <Molecular Weight>
269.304

>  <Exact Mass>
269.11642672

>  <XLogP3>
1.25

>  <Heavy Atom Count>
20

>  <Ring Count>
2

>  <Hydrogen Bond Acceptor Count>
3

>  <Hydrogen Bond Donor Count>
3

>  <Rotatable Bond Count>
3

>  <Topological Polar Surface Area>
84.22

>  <Molecular Formula>
C15H15N3O2

>  <InChI>
InChI=1S/C15H15N3O2/c1-10(19)17-12-8-6-11(7-9-12)15(20)18-14-5-3-2-4-13(14)16/h2-9H,16H2,1H3,(H,17,19)(H,18,20)

>  <InChI Key>
VAZAPHZUAVEOMC-UHFFFAOYSA-N

>  <BindingDB>
19422

>  <PubChem>
2746

>  <ChEMBL>
CHEMBL235191

$$$$
Compound 294
Actelion Java MolfileCreator 2.0

  0  0  0  0  0  0              0 V3000
M  V30 BEGIN CTAB
M  V30 COUNTS 20 21 0 0 0
M  V30 BEGIN ATOM
M  V30 1 O 0.0 0.0 0.0 0
M  V30 2 C -0.4854 -1.41 0.0 0
M  V30 3 N 0.4969 -2.5195 0.0 0
M  V30 4 C -1.9647 -1.6989 0.0 0
M  V30 5 C 1.9532 -2.2074 0.0 0
M  V30 6 C -2.9703 -0.5663 0.0 0
M  V30 7 C -2.4502 -3.1089 0.0 0
M  V30 8 C 2.4155 -0.7743 0.0 0
M  V30 9 C 2.9356 -3.317 0.0 0
M  V30 10 C -4.4496 -0.8552 0.0 0
M  V30 11 C -3.9295 -3.3979 0.0 0
M  V30 12 N 1.41 0.3582 0.0 0
M  V30 13 C 3.8717 -0.4623 0.0 0
M  V30 14 C 4.3918 -3.0049 0.0 0
M  V30 15 C -4.935 -2.2652 0.0 0
M  V30 16 C 4.8541 -1.5718 0.0 0
M  V30 17 N -6.4144 -2.5542 0.0 0
M  V30 18 C -7.4199 -1.4215 0.0 0
M  V30 19 O -6.9576 0.0115 0.0 0
M  V30 20 C -8.8993 -1.7105 0.0 0
M  V30 END ATOM
M  V30 BEGIN BOND
M  V30 1 2 1 2
M  V30 2 1 2 3
M  V30 3 1 2 4
M  V30 4 1 3 5
M  V30 5 2 4 6
M  V30 6 1 4 7
M  V30 7 2 5 8
M  V30 8 1 5 9
M  V30 9 1 6 10
M  V30 10 2 7 11
M  V30 11 1 8 12
M  V30 12 1 8 13
M  V30 13 2 9 14
M  V30 14 2 10 15
M  V30 15 2 13 16
M  V30 16 1 15 17
M  V30 17 1 17 18
M  V30 18 2 18 19
M  V30 19 1 18 20
M  V30 20 1 11 15
M  V30 21 1 14 16
M  V30 END BOND
M  V30 END CTAB
M  END
>  <Compound ID>
86

>  <Name>
CI-994

>  <Uniprot>
O15379

>  <Target>
HDAC3

>  <Smiles>
CC(=O)NC1=CC=C(C(=O)NC2=CC=CC=C2N)C=C1

>  <Kd (nM)>


>  <Assay (Kd)>


>  <Ki (nM)>
25

>  <Assay (Ki)>
Ki of HDAC3

>  <IC50 (nM)>
46

>  <Assay (IC50)>
IC50 of HDAC3 was assessed by microfluidic capillary electrophoresis

>  <EC50 (nM)>


>  <Assay (EC50)>


>  <Article DOI>
10.1021/acschembio.5b00640

>  <Molecular Weight>
269.304

>  <Exact Mass>
269.11642672

>  <XLogP3>
1.25

>  <Heavy Atom Count>
20

>  <Ring Count>
2

>  <Hydrogen Bond Acceptor Count>
3

>  <Hydrogen Bond Donor Count>
3

>  <Rotatable Bond Count>
3

>  <Topological Polar Surface Area>
84.22

>  <Molecular Formula>
C15H15N3O2

>  <InChI>
InChI=1S/C15H15N3O2/c1-10(19)17-12-8-6-11(7-9-12)15(20)18-14-5-3-2-4-13(14)16/h2-9H,16H2,1H3,(H,17,19)(H,18,20)

>  <InChI Key>
VAZAPHZUAVEOMC-UHFFFAOYSA-N

>  <BindingDB>
19422

>  <PubChem>
2746

>  <ChEMBL>
CHEMBL235191

$$$$
Compound 295
Actelion Java MolfileCreator 2.0

  0  0  0  0  0  0              0 V3000
M  V30 BEGIN CTAB
M  V30 COUNTS 27 28 0 0 0
M  V30 BEGIN ATOM
M  V30 1 O 0.0 0.0 0.0 0
M  V30 2 C 1.2286 0.8624 0.0 0
M  V30 3 O 1.1105 2.3746 0.0 0
M  V30 4 C 2.5754 0.2244 0.0 0
M  V30 5 C 3.8041 1.0869 0.0 0
M  V30 6 C 2.67 -1.2641 0.0 0
M  V30 7 C 5.1509 0.4489 0.0 0
M  V30 8 C 4.0168 -1.902 0.0 0
M  V30 9 C 5.2454 -1.0396 0.0 0
M  V30 10 C 6.5923 -1.6776 0.0 0
M  V30 11 C 7.8209 -0.8151 0.0 0
M  V30 12 C 9.1678 -1.4531 0.0 0
M  V30 13 O 9.2623 -2.9417 0.0 0
M  V30 14 C 10.3964 -0.5907 0.0 0
M  V30 15 C 11.7433 -1.2286 0.0 0
M  V30 16 C 10.2783 0.9215 0.0 0
M  V30 17 C 12.9719 -0.3662 0.0 0
M  V30 18 C 11.507 1.7839 0.0 0
M  V30 19 C 12.8538 1.1459 0.0 0
M  V30 20 C 14.3187 -1.0042 0.0 0
M  V30 21 C 11.3888 3.2961 0.0 0
M  V30 22 C 13.6571 -2.351 0.0 0
M  V30 23 C 14.9567 0.3662 0.0 0
M  V30 24 C 15.6656 -1.6421 0.0 0
M  V30 25 C 12.8774 3.4142 0.0 0
M  V30 26 C 9.8766 3.2016 0.0 0
M  V30 27 C 11.2707 4.8083 0.0 0
M  V30 END ATOM
M  V30 BEGIN BOND
M  V30 1 2 1 2
M  V30 2 1 2 3
M  V30 3 1 2 4
M  V30 4 2 4 5
M  V30 5 1 4 6
M  V30 6 1 5 7
M  V30 7 2 6 8
M  V30 8 2 7 9
M  V30 9 1 9 10
M  V30 10 2 10 11
M  V30 11 1 11 12
M  V30 12 2 12 13
M  V30 13 1 12 14
M  V30 14 2 14 15
M  V30 15 1 14 16
M  V30 16 1 15 17
M  V30 17 2 16 18
M  V30 18 2 17 19
M  V30 19 1 17 20
M  V30 20 1 18 21
M  V30 21 1 20 22
M  V30 22 1 20 23
M  V30 23 1 20 24
M  V30 24 1 21 25
M  V30 25 1 21 26
M  V30 26 1 21 27
M  V30 27 1 8 9
M  V30 28 1 18 19
M  V30 END BOND
M  V30 END CTAB
M  END
>  <Compound ID>
87

>  <Name>
Ch55

>  <Uniprot>


>  <Target>
RAR

>  <Smiles>
CC(C)(C)C1=CC(C(=O)/C=C/C2=CC=C(C(=O)O)C=C2)=CC(C(C)(C)C)=C1

>  <Kd (nM)>


>  <Assay (Kd)>


>  <Ki (nM)>


>  <Assay (Ki)>


>  <IC50 (nM)>


>  <Assay (IC50)>


>  <EC50 (nM)>


>  <Assay (EC50)>


>  <Article DOI>
10.1016/j.bmc.2011.09.041

>  <Molecular Weight>
364.485

>  <Exact Mass>
364.203844756

>  <XLogP3>
6.56

>  <Heavy Atom Count>
27

>  <Ring Count>
2

>  <Hydrogen Bond Acceptor Count>
2

>  <Hydrogen Bond Donor Count>
1

>  <Rotatable Bond Count>
4

>  <Topological Polar Surface Area>
54.37

>  <Molecular Formula>
C24H28O3

>  <InChI>
InChI=1S/C24H28O3/c1-23(2,3)19-13-18(14-20(15-19)24(4,5)6)21(25)12-9-16-7-10-17(11-8-16)22(26)27/h7-15H,1-6H3,(H,26,27)/b12-9+

>  <InChI Key>
FOUVTBKPJRMLPE-FMIVXFBMSA-N

>  <BindingDB>


>  <PubChem>
6184667

>  <ChEMBL>
CHEMBL285480

$$$$
Compound 296
Actelion Java MolfileCreator 2.0

  0  0  0  0  0  0              0 V3000
M  V30 BEGIN CTAB
M  V30 COUNTS 20 23 0 0 0
M  V30 BEGIN ATOM
M  V30 1 O 0.0 0.0 0.0 0
M  V30 2 C 1.0907 1.0433 0.0 0
M  V30 3 C 2.561 0.7706 0.0 0 CFG=2
M  V30 4 C 0.901 2.5491 0.0 0
M  V30 5 C 3.2842 2.0986 0.0 0 CFG=1
M  V30 6 C 3.3198 -0.5098 0.0 0
M  V30 7 C 1.6836 -0.4505 0.0 0
M  V30 8 C 2.2527 3.2012 0.0 0
M  V30 9 C 4.7781 2.1341 0.0 0 CFG=1
M  V30 10 C 4.8137 -0.4742 0.0 0
M  V30 11 C 5.5369 0.8536 0.0 0 CFG=2
M  V30 12 C 5.5014 3.462 0.0 0
M  V30 13 C 7.0309 0.8892 0.0 0
M  V30 14 C 6.9953 3.4976 0.0 0
M  V30 15 C 7.7541 2.2171 0.0 0
M  V30 16 C 7.7897 -0.3912 0.0 0
M  V30 17 C 9.248 2.2527 0.0 0
M  V30 18 C 9.2836 -0.3556 0.0 0
M  V30 19 C 10.0068 0.9722 0.0 0
M  V30 20 O 11.5008 1.0078 0.0 0
M  V30 END ATOM
M  V30 BEGIN BOND
M  V30 1 2 1 2
M  V30 2 1 2 3
M  V30 3 1 2 4
M  V30 4 1 3 5
M  V30 5 1 3 6
M  V30 6 1 3 7 CFG=1
M  V30 7 1 4 8
M  V30 8 1 5 9
M  V30 9 1 6 10
M  V30 10 1 9 11
M  V30 11 1 9 12 CFG=3
M  V30 12 1 11 13
M  V30 13 1 12 14
M  V30 14 2 13 15
M  V30 15 1 13 16
M  V30 16 1 15 17
M  V30 17 2 16 18
M  V30 18 2 17 19
M  V30 19 1 19 20
M  V30 20 1 5 8 CFG=1
M  V30 21 1 11 10 CFG=1
M  V30 22 1 14 15
M  V30 23 1 18 19
M  V30 END BOND
M  V30 BEGIN COLLECTION
M  V30 MDLV30/STEABS ATOMS=(4 3 5 9 11)
M  V30 END COLLECTION
M  V30 END CTAB
M  END
>  <Compound ID>
88

>  <Name>
estrone

>  <Uniprot>
P03372

>  <Target>
ER

>  <Smiles>
C[C@]12CC[C@@H]3C4=CC=C(O)C=C4CC[C@H]3[C@@H]1CCC2=O

>  <Kd (nM)>


>  <Assay (Kd)>


>  <Ki (nM)>


>  <Assay (Ki)>


>  <IC50 (nM)>
29/31

>  <Assay (IC50)>
IC50 of ERalpha/ERbeta was determined using a scintillation proximity assay

>  <EC50 (nM)>


>  <Assay (EC50)>


>  <Article DOI>
10.1021/jm0509389

>  <Molecular Weight>
270.372

>  <Exact Mass>
270.161979944

>  <XLogP3>
3.13

>  <Heavy Atom Count>
20

>  <Ring Count>
4

>  <Hydrogen Bond Acceptor Count>
2

>  <Hydrogen Bond Donor Count>
1

>  <Rotatable Bond Count>
0

>  <Topological Polar Surface Area>
37.3

>  <Molecular Formula>
C18H22O2

>  <InChI>
InChI=1S/C18H22O2/c1-18-9-8-14-13-5-3-12(19)10-11(13)2-4-15(14)16(18)6-7-17(18)20/h3,5,10,14-16,19H,2,4,6-9H2,1H3/t14-,15-,16+,18+/m1/s1

>  <InChI Key>
DNXHEGUUPJUMQT-CBZIJGRNSA-N

>  <BindingDB>
17289

>  <PubChem>
5870

>  <ChEMBL>
CHEMBL1405

$$$$
Compound 297
Actelion Java MolfileCreator 2.0

  0  0  0  0  0  0              0 V3000
M  V30 BEGIN CTAB
M  V30 COUNTS 21 24 0 0 0
M  V30 BEGIN ATOM
M  V30 1 O 0.0 0.0 0.0 0
M  V30 2 C -1.5019 0.0469 0.0 0
M  V30 3 C -2.288 -1.2085 0.0 0
M  V30 4 C -2.2294 1.3728 0.0 0
M  V30 5 C -3.79 -1.1616 0.0 0 CFG=1
M  V30 6 C -3.7313 1.4197 0.0 0
M  V30 7 C -4.5174 0.1642 0.0 0 CFG=2
M  V30 8 C -4.5761 -2.4171 0.0 0
M  V30 9 C -6.0194 0.2112 0.0 0 CFG=2
M  V30 10 C -5.2449 1.4901 0.0 0
M  V30 11 C -6.078 -2.3702 0.0 0
M  V30 12 C -6.8055 -1.0443 0.0 0 CFG=1
M  V30 13 C -6.7469 1.5371 0.0 0
M  V30 14 C -8.3074 -0.9973 0.0 0 CFG=1
M  V30 15 C -8.2488 1.584 0.0 0
M  V30 16 C -9.0349 0.3285 0.0 0 CFG=2
M  V30 17 C -9.34 -2.0651 0.0 0
M  V30 18 C -10.5134 0.0704 0.0 0 CFG=2
M  V30 19 C -9.8915 1.5723 0.0 0
M  V30 20 C -10.7011 -1.408 0.0 0
M  V30 21 O -11.6046 1.1029 0.0 0
M  V30 END ATOM
M  V30 BEGIN BOND
M  V30 1 2 1 2
M  V30 2 1 2 3
M  V30 3 1 2 4
M  V30 4 1 5 3 CFG=3
M  V30 5 1 4 6
M  V30 6 1 5 7
M  V30 7 1 5 8
M  V30 8 1 7 9
M  V30 9 1 7 10 CFG=3
M  V30 10 1 8 11
M  V30 11 1 9 12
M  V30 12 1 9 13 CFG=3
M  V30 13 1 12 14
M  V30 14 1 13 15
M  V30 15 1 14 16
M  V30 16 1 14 17 CFG=3
M  V30 17 1 16 18
M  V30 18 1 16 19 CFG=3
M  V30 19 1 17 20
M  V30 20 1 18 21 CFG=3
M  V30 21 1 6 7
M  V30 22 1 12 11 CFG=1
M  V30 23 1 15 16
M  V30 24 1 18 20
M  V30 END BOND
M  V30 BEGIN COLLECTION
M  V30 MDLV30/STEABS ATOMS=(7 5 7 9 12 14 16 18)
M  V30 END COLLECTION
M  V30 END CTAB
M  END
>  <Compound ID>
89

>  <Name>
DHT

>  <Uniprot>
P10275

>  <Target>
AR

>  <Smiles>
C[C@]12CC[C@H]3[C@@H](CC[C@H]4CC(=O)CC[C@@]43C)[C@@H]1CC[C@@H]2O

>  <Kd (nM)>


>  <Assay (Kd)>


>  <Ki (nM)>
0.2

>  <Assay (Ki)>
Ki was determined in a transcriptional activation assay

>  <IC50 (nM)>


>  <Assay (IC50)>


>  <EC50 (nM)>


>  <Assay (EC50)>


>  <Article DOI>
10.1021/jm060792t

>  <Molecular Weight>
290.447

>  <Exact Mass>
290.2245802

>  <XLogP3>
3.66

>  <Heavy Atom Count>
21

>  <Ring Count>
4

>  <Hydrogen Bond Acceptor Count>
2

>  <Hydrogen Bond Donor Count>
1

>  <Rotatable Bond Count>
0

>  <Topological Polar Surface Area>
37.3

>  <Molecular Formula>
C19H30O2

>  <InChI>
InChI=1S/C19H30O2/c1-18-9-7-13(20)11-12(18)3-4-14-15-5-6-17(21)19(15,2)10-8-16(14)18/h12,14-17,21H,3-11H2,1-2H3/t12-,14-,15-,16-,17-,18-,19-/m0/s1

>  <InChI Key>
NVKAWKQGWWIWPM-ABEVXSGRSA-N

>  <BindingDB>
18161

>  <PubChem>
10635

>  <ChEMBL>
CHEMBL27769

$$$$
Compound 298
Actelion Java MolfileCreator 2.0

  0  0  0  0  0  0              0 V3000
M  V30 BEGIN CTAB
M  V30 COUNTS 26 29 0 0 0
M  V30 BEGIN ATOM
M  V30 1 S 0.0 0.0 0.0 0
M  V30 2 O -0.5179 1.4124 0.0 0
M  V30 3 O 0.4943 -1.3889 0.0 0
M  V30 4 N -1.4124 -0.4943 0.0 0
M  V30 5 C 1.3889 0.5179 0.0 0
M  V30 6 C -2.5659 0.4825 0.0 0
M  V30 7 C 1.6361 2.001 0.0 0
M  V30 8 C 2.5189 -0.4355 0.0 0
M  V30 9 C -3.9784 -0.0117 0.0 0
M  V30 10 C -2.3188 1.9656 0.0 0
M  V30 11 O 0.4825 2.9779 0.0 0
M  V30 12 C 3.025 2.5189 0.0 0
M  V30 13 C 3.9078 0.0823 0.0 0
M  V30 14 C -5.1319 0.9651 0.0 0
M  V30 15 C -4.2491 -1.4713 0.0 0
M  V30 16 C -3.4723 2.9426 0.0 0
M  V30 17 C 0.7297 4.461 0.0 0
M  V30 18 C 4.155 1.5654 0.0 0
M  V30 19 C -4.8848 2.4482 0.0 0
M  V30 20 C -6.5444 0.4708 0.0 0
M  V30 21 C -5.6616 -1.9656 0.0 0
M  V30 22 N -6.3914 2.8955 0.0 0
M  V30 23 C -7.3448 1.7538 0.0 0
M  V30 24 C -6.8151 -0.9887 0.0 0
M  V30 25 C -6.7681 4.3551 0.0 0
M  V30 26 O -8.8515 1.8715 0.0 0
M  V30 END ATOM
M  V30 BEGIN BOND
M  V30 1 2 1 2
M  V30 2 2 1 3
M  V30 3 1 1 4
M  V30 4 1 1 5
M  V30 5 1 4 6
M  V30 6 2 5 7
M  V30 7 1 5 8
M  V30 8 1 6 9
M  V30 9 2 6 10
M  V30 10 1 7 11
M  V30 11 1 7 12
M  V30 12 2 8 13
M  V30 13 1 9 14
M  V30 14 2 9 15
M  V30 15 1 10 16
M  V30 16 1 11 17
M  V30 17 2 12 18
M  V30 18 1 14 19
M  V30 19 2 14 20
M  V30 20 1 15 21
M  V30 21 1 19 22
M  V30 22 1 20 23
M  V30 23 1 20 24
M  V30 24 1 22 25
M  V30 25 2 23 26
M  V30 26 1 13 18
M  V30 27 2 16 19
M  V30 28 2 21 24
M  V30 29 1 22 23
M  V30 END BOND
M  V30 END CTAB
M  END
>  <Compound ID>
90

>  <Name>


>  <Uniprot>
O60885

>  <Target>
BRD4

>  <Smiles>
COC1=CC=CC=C1S(=O)(=O)NC1=CC=C2C3=C(C=CC=C13)C(=O)N2C

>  <Kd (nM)>


>  <Assay (Kd)>


>  <Ki (nM)>


>  <Assay (Ki)>


>  <IC50 (nM)>
49.5/2479

>  <Assay (IC50)>
IC50 of BRD4 BD1/2 was tested using AlphaScreen assay

>  <EC50 (nM)>


>  <Assay (EC50)>


>  <Article DOI>
10.1016/j.bmc.2019.115181

>  <Molecular Weight>
368.414

>  <Exact Mass>
368.083077992

>  <XLogP3>
2.76

>  <Heavy Atom Count>
26

>  <Ring Count>
4

>  <Hydrogen Bond Acceptor Count>
4

>  <Hydrogen Bond Donor Count>
1

>  <Rotatable Bond Count>
4

>  <Topological Polar Surface Area>
75.71

>  <Molecular Formula>
C19H16N2O4S

>  <InChI>
InChI=1S/C19H16N2O4S/c1-21-15-11-10-14(12-6-5-7-13(18(12)15)19(21)22)20-26(23,24)17-9-4-3-8-16(17)25-2/h3-11,20H,1-2H3

>  <InChI Key>
QETWZQZUXAGMTQ-UHFFFAOYSA-N

>  <BindingDB>


>  <PubChem>
145829182

>  <ChEMBL>


$$$$
Compound 299
Actelion Java MolfileCreator 2.0

  0  0  0  0  0  0              0 V3000
M  V30 BEGIN CTAB
M  V30 COUNTS 26 28 0 0 0
M  V30 BEGIN ATOM
M  V30 1 Cl 0.0 0.0 0.0 0
M  V30 2 C -1.4925 0.2115 0.0 0
M  V30 3 C -2.0684 1.61 0.0 0
M  V30 4 C -2.421 -0.9519 0.0 0
M  V30 5 N -3.5609 1.8216 0.0 0
M  V30 6 N -1.1634 2.797 0.0 0
M  V30 7 N -3.9135 -0.7404 0.0 0
M  V30 8 C -4.4894 0.6581 0.0 0
M  V30 9 C 0.3055 2.609 0.0 0
M  V30 10 N -5.982 0.8696 0.0 0
M  V30 11 C 1.2105 3.796 0.0 0
M  V30 12 C -6.5578 2.2682 0.0 0
M  V30 13 C 0.6346 5.1945 0.0 0
M  V30 14 C 2.6795 3.608 0.0 0
M  V30 15 C -5.7822 3.5492 0.0 0
M  V30 16 C -8.0151 2.6325 0.0 0
M  V30 17 F -0.8579 5.4061 0.0 0
M  V30 18 C 1.5395 6.3815 0.0 0
M  V30 19 C 3.5844 4.795 0.0 0
M  V30 20 N -6.7576 4.7009 0.0 0
M  V30 21 N -8.1327 4.1368 0.0 0
M  V30 22 C 3.0086 6.1935 0.0 0
M  V30 23 F 5.0535 4.6069 0.0 0
M  V30 24 C -9.4137 4.936 0.0 0
M  V30 25 C -9.3784 6.4403 0.0 0
M  V30 26 O -10.6594 7.2395 0.0 0
M  V30 END ATOM
M  V30 BEGIN BOND
M  V30 1 1 1 2
M  V30 2 2 2 3
M  V30 3 1 2 4
M  V30 4 1 3 5
M  V30 5 1 3 6
M  V30 6 2 4 7
M  V30 7 2 5 8
M  V30 8 1 6 9
M  V30 9 1 8 10
M  V30 10 1 9 11
M  V30 11 1 10 12
M  V30 12 2 11 13
M  V30 13 1 11 14
M  V30 14 1 12 15
M  V30 15 2 12 16
M  V30 16 1 13 17
M  V30 17 1 13 18
M  V30 18 2 14 19
M  V30 19 2 15 20
M  V30 20 1 16 21
M  V30 21 2 18 22
M  V30 22 1 19 23
M  V30 23 1 21 24
M  V30 24 1 24 25
M  V30 25 1 25 26
M  V30 26 1 7 8
M  V30 27 1 19 22
M  V30 28 1 20 21
M  V30 END BOND
M  V30 END CTAB
M  END
>  <Compound ID>
91

>  <Name>
Pyrimidine 1

>  <Uniprot>
P23458

>  <Target>
JAK1

>  <Smiles>
OCCN1C=C(NC2=NC=C(Cl)C(NCC3=CC(F)=CC=C3F)=N2)C=N1

>  <Kd (nM)>


>  <Assay (Kd)>


>  <Ki (nM)>


>  <Assay (Ki)>


>  <IC50 (nM)>
<0.2

>  <Assay (IC50)>
Inhibition of JAK1

>  <EC50 (nM)>


>  <Assay (EC50)>


>  <Article DOI>
10.1016/j.bmc.2020.115326

>  <Molecular Weight>
380.786

>  <Exact Mass>
380.09639322

>  <XLogP3>
2.28

>  <Heavy Atom Count>
26

>  <Ring Count>
3

>  <Hydrogen Bond Acceptor Count>
7

>  <Hydrogen Bond Donor Count>
3

>  <Rotatable Bond Count>
7

>  <Topological Polar Surface Area>
87.89

>  <Molecular Formula>
C16H15ClF2N6O

>  <InChI>
InChI=1S/C16H15ClF2N6O/c17-13-8-21-16(23-12-7-22-25(9-12)3-4-26)24-15(13)20-6-10-5-11(18)1-2-14(10)19/h1-2,5,7-9,26H,3-4,6H2,(H2,20,21,23,24)

>  <InChI Key>
NROLQUCDBSGNQD-UHFFFAOYSA-N

>  <BindingDB>


>  <PubChem>


>  <ChEMBL>


$$$$
Compound 300
Actelion Java MolfileCreator 2.0

  0  0  0  0  0  0              0 V3000
M  V30 BEGIN CTAB
M  V30 COUNTS 26 28 0 0 0
M  V30 BEGIN ATOM
M  V30 1 Cl 0.0 0.0 0.0 0
M  V30 2 C -1.4925 0.2115 0.0 0
M  V30 3 C -2.0684 1.61 0.0 0
M  V30 4 C -2.421 -0.9519 0.0 0
M  V30 5 N -3.5609 1.8216 0.0 0
M  V30 6 N -1.1634 2.797 0.0 0
M  V30 7 N -3.9135 -0.7404 0.0 0
M  V30 8 C -4.4894 0.6581 0.0 0
M  V30 9 C 0.3055 2.609 0.0 0
M  V30 10 N -5.982 0.8696 0.0 0
M  V30 11 C 1.2105 3.796 0.0 0
M  V30 12 C -6.5578 2.2682 0.0 0
M  V30 13 C 0.6346 5.1945 0.0 0
M  V30 14 C 2.6795 3.608 0.0 0
M  V30 15 C -5.7822 3.5492 0.0 0
M  V30 16 C -8.0151 2.6325 0.0 0
M  V30 17 F -0.8579 5.4061 0.0 0
M  V30 18 C 1.5395 6.3815 0.0 0
M  V30 19 C 3.5844 4.795 0.0 0
M  V30 20 N -6.7576 4.7009 0.0 0
M  V30 21 N -8.1327 4.1368 0.0 0
M  V30 22 C 3.0086 6.1935 0.0 0
M  V30 23 F 5.0535 4.6069 0.0 0
M  V30 24 C -9.4137 4.936 0.0 0
M  V30 25 C -9.3784 6.4403 0.0 0
M  V30 26 O -10.6594 7.2395 0.0 0
M  V30 END ATOM
M  V30 BEGIN BOND
M  V30 1 1 1 2
M  V30 2 2 2 3
M  V30 3 1 2 4
M  V30 4 1 3 5
M  V30 5 1 3 6
M  V30 6 2 4 7
M  V30 7 2 5 8
M  V30 8 1 6 9
M  V30 9 1 8 10
M  V30 10 1 9 11
M  V30 11 1 10 12
M  V30 12 2 11 13
M  V30 13 1 11 14
M  V30 14 1 12 15
M  V30 15 2 12 16
M  V30 16 1 13 17
M  V30 17 1 13 18
M  V30 18 2 14 19
M  V30 19 2 15 20
M  V30 20 1 16 21
M  V30 21 2 18 22
M  V30 22 1 19 23
M  V30 23 1 21 24
M  V30 24 1 24 25
M  V30 25 1 25 26
M  V30 26 1 7 8
M  V30 27 1 19 22
M  V30 28 1 20 21
M  V30 END BOND
M  V30 END CTAB
M  END
>  <Compound ID>
91

>  <Name>
Pyrimidine 1

>  <Uniprot>
O60674

>  <Target>
JAK2

>  <Smiles>
OCCN1C=C(NC2=NC=C(Cl)C(NCC3=CC(F)=CC=C3F)=N2)C=N1

>  <Kd (nM)>


>  <Assay (Kd)>


>  <Ki (nM)>


>  <Assay (Ki)>


>  <IC50 (nM)>
0.3

>  <Assay (IC50)>
Inhibition of JAK2

>  <EC50 (nM)>


>  <Assay (EC50)>


>  <Article DOI>
10.1016/j.bmc.2020.115326

>  <Molecular Weight>
380.786

>  <Exact Mass>
380.09639322

>  <XLogP3>
2.28

>  <Heavy Atom Count>
26

>  <Ring Count>
3

>  <Hydrogen Bond Acceptor Count>
7

>  <Hydrogen Bond Donor Count>
3

>  <Rotatable Bond Count>
7

>  <Topological Polar Surface Area>
87.89

>  <Molecular Formula>
C16H15ClF2N6O

>  <InChI>
InChI=1S/C16H15ClF2N6O/c17-13-8-21-16(23-12-7-22-25(9-12)3-4-26)24-15(13)20-6-10-5-11(18)1-2-14(10)19/h1-2,5,7-9,26H,3-4,6H2,(H2,20,21,23,24)

>  <InChI Key>
NROLQUCDBSGNQD-UHFFFAOYSA-N

>  <BindingDB>


>  <PubChem>


>  <ChEMBL>


$$$$
Compound 301
Actelion Java MolfileCreator 2.0

  0  0  0  0  0  0              0 V3000
M  V30 BEGIN CTAB
M  V30 COUNTS 45 50 0 0 0
M  V30 BEGIN ATOM
M  V30 1 S 0.0 0.0 0.0 0
M  V30 2 O -1.4742 -0.2948 0.0 0
M  V30 3 O -0.566 1.4034 0.0 0
M  V30 4 C 1.2619 0.8019 0.0 0
M  V30 5 C 0.0353 -1.486 0.0 0
M  V30 6 C 2.571 0.1061 0.0 0
M  V30 7 C 1.3444 -2.1818 0.0 0
M  V30 8 N 2.6064 -1.3798 0.0 0
M  V30 9 C 3.9155 -2.0756 0.0 0
M  V30 10 C 3.9509 -3.5617 0.0 0
M  V30 11 C 5.26 -4.2575 0.0 0
M  V30 12 C 2.6653 -4.34 0.0 0
M  V30 13 F 6.5219 -3.4555 0.0 0
M  V30 14 C 5.2953 -5.7435 0.0 0
M  V30 15 F 1.3326 -3.6206 0.0 0
M  V30 16 C 2.7007 -5.8261 0.0 0
M  V30 17 C 4.0098 -6.5219 0.0 0
M  V30 18 C 4.0452 -8.0079 0.0 0
M  V30 19 C 2.7597 -8.7863 0.0 0
M  V30 20 C 5.3543 -8.7037 0.0 0
M  V30 21 N 1.427 -8.0669 0.0 0
M  V30 22 C 2.7951 -10.2723 0.0 0
M  V30 23 C 5.3897 -10.1897 0.0 0
M  V30 24 C 0.1415 -8.8453 0.0 0
M  V30 25 N 1.5095 -11.0507 0.0 0
M  V30 26 C 4.1042 -10.9681 0.0 0
M  V30 27 C -1.1911 -8.1258 0.0 0
M  V30 28 C 0.1769 -10.3313 0.0 0
M  V30 29 C -1.2501 -6.6162 0.0 0
M  V30 30 C -2.4766 -8.9042 0.0 0
M  V30 31 C -2.5828 -5.8968 0.0 0
M  V30 32 C -3.8093 -8.1848 0.0 0
M  V30 33 O -2.6417 -4.3872 0.0 0
M  V30 34 C -3.8683 -6.6752 0.0 0
M  V30 35 C -1.3798 -3.5852 0.0 0
M  V30 36 O -5.201 -5.9558 0.0 0
M  V30 37 C -6.4865 -6.7342 0.0 0
M  V30 38 C -7.8192 -6.0148 0.0 0
M  V30 39 C -9.1047 -6.7931 0.0 0
M  V30 40 N -10.4374 -6.0737 0.0 0
M  V30 41 C -10.4964 -4.5641 0.0 0
M  V30 42 C -11.7229 -6.8521 0.0 0
M  V30 43 C -11.8291 -3.8447 0.0 0
M  V30 44 C -13.0556 -6.1327 0.0 0
M  V30 45 O -13.1146 -4.6231 0.0 0
M  V30 END ATOM
M  V30 BEGIN BOND
M  V30 1 2 1 2
M  V30 2 2 1 3
M  V30 3 1 1 4
M  V30 4 1 1 5
M  V30 5 1 4 6
M  V30 6 1 5 7
M  V30 7 1 6 8
M  V30 8 1 8 9
M  V30 9 1 9 10
M  V30 10 2 10 11
M  V30 11 1 10 12
M  V30 12 1 11 13
M  V30 13 1 11 14
M  V30 14 1 12 15
M  V30 15 2 12 16
M  V30 16 2 14 17
M  V30 17 1 17 18
M  V30 18 1 18 19
M  V30 19 2 18 20
M  V30 20 2 19 21
M  V30 21 1 19 22
M  V30 22 1 20 23
M  V30 23 1 21 24
M  V30 24 2 22 25
M  V30 25 1 22 26
M  V30 26 1 24 27
M  V30 27 2 24 28
M  V30 28 2 27 29
M  V30 29 1 27 30
M  V30 30 1 29 31
M  V30 31 2 30 32
M  V30 32 1 31 33
M  V30 33 2 31 34
M  V30 34 1 33 35
M  V30 35 1 34 36
M  V30 36 1 36 37
M  V30 37 1 37 38
M  V30 38 1 38 39
M  V30 39 1 39 40
M  V30 40 1 40 41
M  V30 41 1 40 42
M  V30 42 1 41 43
M  V30 43 1 42 44
M  V30 44 1 43 45
M  V30 45 1 7 8
M  V30 46 1 16 17
M  V30 47 2 23 26
M  V30 48 1 25 28
M  V30 49 1 32 34
M  V30 50 1 44 45
M  V30 END BOND
M  V30 END CTAB
M  END
>  <Compound ID>
92

>  <Name>
Quinoxaline 2

>  <Uniprot>
P23458

>  <Target>
JAK1

>  <Smiles>
COC1=CC(C2=CN=C3C=CC=C(C4=CC(F)=C(CN5CCS(=O)(=O)CC5)C(F)=C4)C3=N2)=CC=C1OCCCN1CCOCC1

>  <Kd (nM)>


>  <Assay (Kd)>


>  <Ki (nM)>


>  <Assay (Ki)>


>  <IC50 (nM)>
7.9

>  <Assay (IC50)>
Inhibition of JAK1

>  <EC50 (nM)>


>  <Assay (EC50)>


>  <Article DOI>
10.1016/j.bmc.2020.115326

>  <Molecular Weight>
638.737

>  <Exact Mass>
638.237447692

>  <XLogP3>
3.65

>  <Heavy Atom Count>
45

>  <Ring Count>
6

>  <Hydrogen Bond Acceptor Count>
9

>  <Hydrogen Bond Donor Count>
0

>  <Rotatable Bond Count>
10

>  <Topological Polar Surface Area>
94.09

>  <Molecular Formula>
C33H36F2N4O5S

>  <InChI>
InChI=1S/C33H36F2N4O5S/c1-42-32-20-23(6-7-31(32)44-13-3-8-38-9-14-43-15-10-38)30-21-36-29-5-2-4-25(33(29)37-30)24-18-27(34)26(28(35)19-24)22-39-11-16-45(40,41)17-12-39/h2,4-7,18-21H,3,8-17,22H2,1H3

>  <InChI Key>
NVOIBHOEZNKMBT-UHFFFAOYSA-N

>  <BindingDB>


>  <PubChem>
59392765

>  <ChEMBL>


$$$$
Compound 302
Actelion Java MolfileCreator 2.0

  0  0  0  0  0  0              0 V3000
M  V30 BEGIN CTAB
M  V30 COUNTS 45 50 0 0 0
M  V30 BEGIN ATOM
M  V30 1 S 0.0 0.0 0.0 0
M  V30 2 O -1.4742 -0.2948 0.0 0
M  V30 3 O -0.566 1.4034 0.0 0
M  V30 4 C 1.2619 0.8019 0.0 0
M  V30 5 C 0.0353 -1.486 0.0 0
M  V30 6 C 2.571 0.1061 0.0 0
M  V30 7 C 1.3444 -2.1818 0.0 0
M  V30 8 N 2.6064 -1.3798 0.0 0
M  V30 9 C 3.9155 -2.0756 0.0 0
M  V30 10 C 3.9509 -3.5617 0.0 0
M  V30 11 C 5.26 -4.2575 0.0 0
M  V30 12 C 2.6653 -4.34 0.0 0
M  V30 13 F 6.5219 -3.4555 0.0 0
M  V30 14 C 5.2953 -5.7435 0.0 0
M  V30 15 F 1.3326 -3.6206 0.0 0
M  V30 16 C 2.7007 -5.8261 0.0 0
M  V30 17 C 4.0098 -6.5219 0.0 0
M  V30 18 C 4.0452 -8.0079 0.0 0
M  V30 19 C 2.7597 -8.7863 0.0 0
M  V30 20 C 5.3543 -8.7037 0.0 0
M  V30 21 N 1.427 -8.0669 0.0 0
M  V30 22 C 2.7951 -10.2723 0.0 0
M  V30 23 C 5.3897 -10.1897 0.0 0
M  V30 24 C 0.1415 -8.8453 0.0 0
M  V30 25 N 1.5095 -11.0507 0.0 0
M  V30 26 C 4.1042 -10.9681 0.0 0
M  V30 27 C -1.1911 -8.1258 0.0 0
M  V30 28 C 0.1769 -10.3313 0.0 0
M  V30 29 C -1.2501 -6.6162 0.0 0
M  V30 30 C -2.4766 -8.9042 0.0 0
M  V30 31 C -2.5828 -5.8968 0.0 0
M  V30 32 C -3.8093 -8.1848 0.0 0
M  V30 33 O -2.6417 -4.3872 0.0 0
M  V30 34 C -3.8683 -6.6752 0.0 0
M  V30 35 C -1.3798 -3.5852 0.0 0
M  V30 36 O -5.201 -5.9558 0.0 0
M  V30 37 C -6.4865 -6.7342 0.0 0
M  V30 38 C -7.8192 -6.0148 0.0 0
M  V30 39 C -9.1047 -6.7931 0.0 0
M  V30 40 N -10.4374 -6.0737 0.0 0
M  V30 41 C -10.4964 -4.5641 0.0 0
M  V30 42 C -11.7229 -6.8521 0.0 0
M  V30 43 C -11.8291 -3.8447 0.0 0
M  V30 44 C -13.0556 -6.1327 0.0 0
M  V30 45 O -13.1146 -4.6231 0.0 0
M  V30 END ATOM
M  V30 BEGIN BOND
M  V30 1 2 1 2
M  V30 2 2 1 3
M  V30 3 1 1 4
M  V30 4 1 1 5
M  V30 5 1 4 6
M  V30 6 1 5 7
M  V30 7 1 6 8
M  V30 8 1 8 9
M  V30 9 1 9 10
M  V30 10 2 10 11
M  V30 11 1 10 12
M  V30 12 1 11 13
M  V30 13 1 11 14
M  V30 14 1 12 15
M  V30 15 2 12 16
M  V30 16 2 14 17
M  V30 17 1 17 18
M  V30 18 1 18 19
M  V30 19 2 18 20
M  V30 20 2 19 21
M  V30 21 1 19 22
M  V30 22 1 20 23
M  V30 23 1 21 24
M  V30 24 2 22 25
M  V30 25 1 22 26
M  V30 26 1 24 27
M  V30 27 2 24 28
M  V30 28 2 27 29
M  V30 29 1 27 30
M  V30 30 1 29 31
M  V30 31 2 30 32
M  V30 32 1 31 33
M  V30 33 2 31 34
M  V30 34 1 33 35
M  V30 35 1 34 36
M  V30 36 1 36 37
M  V30 37 1 37 38
M  V30 38 1 38 39
M  V30 39 1 39 40
M  V30 40 1 40 41
M  V30 41 1 40 42
M  V30 42 1 41 43
M  V30 43 1 42 44
M  V30 44 1 43 45
M  V30 45 1 7 8
M  V30 46 1 16 17
M  V30 47 2 23 26
M  V30 48 1 25 28
M  V30 49 1 32 34
M  V30 50 1 44 45
M  V30 END BOND
M  V30 END CTAB
M  END
>  <Compound ID>
92

>  <Name>
Quinoxaline 2

>  <Uniprot>
O60674

>  <Target>
JAK2

>  <Smiles>
COC1=CC(C2=CN=C3C=CC=C(C4=CC(F)=C(CN5CCS(=O)(=O)CC5)C(F)=C4)C3=N2)=CC=C1OCCCN1CCOCC1

>  <Kd (nM)>


>  <Assay (Kd)>


>  <Ki (nM)>


>  <Assay (Ki)>


>  <IC50 (nM)>
0.3

>  <Assay (IC50)>
Inhibition of JAK2

>  <EC50 (nM)>


>  <Assay (EC50)>


>  <Article DOI>
10.1016/j.bmc.2020.115326

>  <Molecular Weight>
638.737

>  <Exact Mass>
638.237447692

>  <XLogP3>
3.65

>  <Heavy Atom Count>
45

>  <Ring Count>
6

>  <Hydrogen Bond Acceptor Count>
9

>  <Hydrogen Bond Donor Count>
0

>  <Rotatable Bond Count>
10

>  <Topological Polar Surface Area>
94.09

>  <Molecular Formula>
C33H36F2N4O5S

>  <InChI>
InChI=1S/C33H36F2N4O5S/c1-42-32-20-23(6-7-31(32)44-13-3-8-38-9-14-43-15-10-38)30-21-36-29-5-2-4-25(33(29)37-30)24-18-27(34)26(28(35)19-24)22-39-11-16-45(40,41)17-12-39/h2,4-7,18-21H,3,8-17,22H2,1H3

>  <InChI Key>
NVOIBHOEZNKMBT-UHFFFAOYSA-N

>  <BindingDB>


>  <PubChem>
59392765

>  <ChEMBL>


$$$$
Compound 303
Actelion Java MolfileCreator 2.0

  0  0  0  0  0  0              0 V3000
M  V30 BEGIN CTAB
M  V30 COUNTS 25 28 0 0 0
M  V30 BEGIN ATOM
M  V30 1 O 0.0 0.0 0.0 0
M  V30 2 C -1.3582 0.6439 0.0 0
M  V30 3 N -2.5994 -0.199 0.0 0
M  V30 4 N -1.4987 2.1427 0.0 0
M  V30 5 C -3.9576 0.4449 0.0 0
M  V30 6 C -2.4823 -1.6743 0.0 0
M  V30 7 C -2.857 2.7867 0.0 0 CFG=2
M  V30 8 C -4.0981 1.9437 0.0 0
M  V30 9 C -5.1988 -0.3981 0.0 0
M  V30 10 C -2.9975 4.2855 0.0 0
M  V30 11 C -5.4564 2.5877 0.0 0
M  V30 12 C -6.557 0.2458 0.0 0
M  V30 13 C -1.7797 5.1519 0.0 0
M  V30 14 C -4.3557 4.9295 0.0 0
M  V30 15 C -6.6975 1.7446 0.0 0
M  V30 16 C -1.9202 6.6507 0.0 0
M  V30 17 C -4.4962 6.4282 0.0 0
M  V30 18 C -8.0558 2.3886 0.0 0
M  V30 19 C -3.2785 7.2947 0.0 0
M  V30 20 C -9.3789 1.6861 0.0 0
M  V30 21 C -8.3485 3.8639 0.0 0
M  V30 22 O -10.4796 2.7165 0.0 0
M  V30 23 C -9.578 0.2224 0.0 0
M  V30 24 N -9.8356 4.063 0.0 0
M  V30 25 C -7.3415 4.9646 0.0 0
M  V30 END ATOM
M  V30 BEGIN BOND
M  V30 1 2 1 2
M  V30 2 1 2 3
M  V30 3 1 2 4
M  V30 4 1 3 5
M  V30 5 1 3 6
M  V30 6 1 4 7
M  V30 7 2 5 8
M  V30 8 1 5 9
M  V30 9 1 7 10 CFG=3
M  V30 10 1 8 11
M  V30 11 2 9 12
M  V30 12 2 10 13
M  V30 13 1 10 14
M  V30 14 2 11 15
M  V30 15 1 13 16
M  V30 16 2 14 17
M  V30 17 1 15 18
M  V30 18 2 16 19
M  V30 19 2 18 20
M  V30 20 1 18 21
M  V30 21 1 20 22
M  V30 22 1 20 23
M  V30 23 2 21 24
M  V30 24 1 21 25
M  V30 25 1 7 8
M  V30 26 1 12 15
M  V30 27 1 17 19
M  V30 28 1 22 24
M  V30 END BOND
M  V30 BEGIN COLLECTION
M  V30 MDLV30/STERAC1 ATOMS=(1 7)
M  V30 END COLLECTION
M  V30 END CTAB
M  END
>  <Compound ID>
93

>  <Name>


>  <Uniprot>
O60885

>  <Target>
BRD4

>  <Smiles>
CC1=NOC(C)=C1C1=CC=C2C(=C1)C(C1=CC=CC=C1)NC(=O)N2C

>  <Kd (nM)>


>  <Assay (Kd)>


>  <Ki (nM)>


>  <Assay (Ki)>


>  <IC50 (nM)>
46.4

>  <Assay (IC50)>
IC50 of BRD4 BD1 was assessed by the AlphaScreen assay

>  <EC50 (nM)>


>  <Assay (EC50)>


>  <Article DOI>
10.1016/j.bmc.2019.115228

>  <Molecular Weight>
333.391

>  <Exact Mass>
333.147726848

>  <XLogP3>
3.25

>  <Heavy Atom Count>
25

>  <Ring Count>
4

>  <Hydrogen Bond Acceptor Count>
3

>  <Hydrogen Bond Donor Count>
1

>  <Rotatable Bond Count>
2

>  <Topological Polar Surface Area>
58.37

>  <Molecular Formula>
C20H19N3O2

>  <InChI>
InChI=1S/C20H19N3O2/c1-12-18(13(2)25-22-12)15-9-10-17-16(11-15)19(21-20(24)23(17)3)14-7-5-4-6-8-14/h4-11,19H,1-3H3,(H,21,24)

>  <InChI Key>
XFBRDTMFVAACDR-UHFFFAOYSA-N

>  <BindingDB>


>  <PubChem>
141488030

>  <ChEMBL>


$$$$
Compound 304
Actelion Java MolfileCreator 2.0

  0  0  0  0  0  0              0 V3000
M  V30 BEGIN CTAB
M  V30 COUNTS 20 22 0 0 0
M  V30 BEGIN ATOM
M  V30 1 O 0.0 0.0 0.0 0
M  V30 2 C -0.0118 1.5142 0.0 0
M  V30 3 C 1.2776 2.2713 0.0 0
M  V30 4 C -1.3249 2.2832 0.0 0
M  V30 5 C 2.5671 1.526 0.0 0
M  V30 6 C 1.2658 3.7856 0.0 0
M  V30 7 C -1.3368 3.7974 0.0 0
M  V30 8 N 2.5553 0.0354 0.0 0
M  V30 9 C 3.8566 2.2832 0.0 0
M  V30 10 C -0.0473 4.5546 0.0 0
M  V30 11 N 3.8448 -0.7098 0.0 0
M  V30 12 C 5.1461 1.5379 0.0 0
M  V30 13 C 5.1343 0.0473 0.0 0
M  V30 14 N 6.4356 2.295 0.0 0
M  V30 15 N 6.4237 -0.6979 0.0 0
M  V30 16 C 7.7251 1.5497 0.0 0
M  V30 17 C 6.4237 3.8093 0.0 0
M  V30 18 C 9.0146 2.3068 0.0 0
M  V30 19 C 7.7132 4.5664 0.0 0
M  V30 20 N 9.0027 3.8211 0.0 0
M  V30 END ATOM
M  V30 BEGIN BOND
M  V30 1 1 1 2
M  V30 2 2 2 3
M  V30 3 1 2 4
M  V30 4 1 3 5
M  V30 5 1 3 6
M  V30 6 2 4 7
M  V30 7 2 5 8
M  V30 8 1 5 9
M  V30 9 2 6 10
M  V30 10 1 8 11
M  V30 11 2 9 12
M  V30 12 2 11 13
M  V30 13 1 12 14
M  V30 14 1 13 15
M  V30 15 1 14 16
M  V30 16 1 14 17
M  V30 17 1 16 18
M  V30 18 1 17 19
M  V30 19 1 18 20
M  V30 20 1 7 10
M  V30 21 1 12 13
M  V30 22 1 19 20
M  V30 END BOND
M  V30 END CTAB
M  END
>  <Compound ID>
94

>  <Name>


>  <Uniprot>
Q86U86

>  <Target>
PBRM1

>  <Smiles>
NC1=NN=C(C2=CC=CC=C2O)C=C1N1CCNCC1

>  <Kd (nM)>
112

>  <Assay (Kd)>
SPR in PBRM1 BD5

>  <Ki (nM)>


>  <Assay (Ki)>


>  <IC50 (nM)>
430

>  <Assay (IC50)>
IC50 of PBRM1 BD5 was tested by TR-FRET

>  <EC50 (nM)>


>  <Assay (EC50)>


>  <Article DOI>
10.1038/s41589-019-0294-6

>  <Molecular Weight>
271.324

>  <Exact Mass>
271.143310164

>  <XLogP3>
0.27

>  <Heavy Atom Count>
20

>  <Ring Count>
3

>  <Hydrogen Bond Acceptor Count>
6

>  <Hydrogen Bond Donor Count>
3

>  <Rotatable Bond Count>
2

>  <Topological Polar Surface Area>
87.3

>  <Molecular Formula>
C14H17N5O

>  <InChI>
InChI=1S/C14H17N5O/c15-14-12(19-7-5-16-6-8-19)9-11(17-18-14)10-3-1-2-4-13(10)20/h1-4,9,16,20H,5-8H2,(H2,15,18)

>  <InChI Key>
SZKHGLTYXIDOFH-UHFFFAOYSA-N

>  <BindingDB>
394406

>  <PubChem>
137045944

>  <ChEMBL>


$$$$
Compound 305
Actelion Java MolfileCreator 2.0

  0  0  0  0  0  0              0 V3000
M  V30 BEGIN CTAB
M  V30 COUNTS 20 22 0 0 0
M  V30 BEGIN ATOM
M  V30 1 O 0.0 0.0 0.0 0
M  V30 2 C -0.0118 1.5142 0.0 0
M  V30 3 C 1.2776 2.2713 0.0 0
M  V30 4 C -1.3249 2.2832 0.0 0
M  V30 5 C 2.5671 1.526 0.0 0
M  V30 6 C 1.2658 3.7856 0.0 0
M  V30 7 C -1.3368 3.7974 0.0 0
M  V30 8 N 2.5553 0.0354 0.0 0
M  V30 9 C 3.8566 2.2832 0.0 0
M  V30 10 C -0.0473 4.5546 0.0 0
M  V30 11 N 3.8448 -0.7098 0.0 0
M  V30 12 C 5.1461 1.5379 0.0 0
M  V30 13 C 5.1343 0.0473 0.0 0
M  V30 14 N 6.4356 2.295 0.0 0
M  V30 15 N 6.4237 -0.6979 0.0 0
M  V30 16 C 7.7251 1.5497 0.0 0
M  V30 17 C 6.4237 3.8093 0.0 0
M  V30 18 C 9.0146 2.3068 0.0 0
M  V30 19 C 7.7132 4.5664 0.0 0
M  V30 20 N 9.0027 3.8211 0.0 0
M  V30 END ATOM
M  V30 BEGIN BOND
M  V30 1 1 1 2
M  V30 2 2 2 3
M  V30 3 1 2 4
M  V30 4 1 3 5
M  V30 5 1 3 6
M  V30 6 2 4 7
M  V30 7 2 5 8
M  V30 8 1 5 9
M  V30 9 2 6 10
M  V30 10 1 8 11
M  V30 11 2 9 12
M  V30 12 2 11 13
M  V30 13 1 12 14
M  V30 14 1 13 15
M  V30 15 1 14 16
M  V30 16 1 14 17
M  V30 17 1 16 18
M  V30 18 1 17 19
M  V30 19 1 18 20
M  V30 20 1 7 10
M  V30 21 1 12 13
M  V30 22 1 19 20
M  V30 END BOND
M  V30 END CTAB
M  END
>  <Compound ID>
94

>  <Name>


>  <Uniprot>
P51531

>  <Target>
SMARCA2

>  <Smiles>
NC1=NN=C(C2=CC=CC=C2O)C=C1N1CCNCC1

>  <Kd (nM)>
225

>  <Assay (Kd)>
SPR in SMARCA2 BD

>  <Ki (nM)>


>  <Assay (Ki)>


>  <IC50 (nM)>
370

>  <Assay (IC50)>
IC50 of SMARCA2 BD was tested by TR-FRET

>  <EC50 (nM)>


>  <Assay (EC50)>


>  <Article DOI>
10.1038/s41589-019-0294-6

>  <Molecular Weight>
271.324

>  <Exact Mass>
271.143310164

>  <XLogP3>
0.27

>  <Heavy Atom Count>
20

>  <Ring Count>
3

>  <Hydrogen Bond Acceptor Count>
6

>  <Hydrogen Bond Donor Count>
3

>  <Rotatable Bond Count>
2

>  <Topological Polar Surface Area>
87.3

>  <Molecular Formula>
C14H17N5O

>  <InChI>
InChI=1S/C14H17N5O/c15-14-12(19-7-5-16-6-8-19)9-11(17-18-14)10-3-1-2-4-13(10)20/h1-4,9,16,20H,5-8H2,(H2,15,18)

>  <InChI Key>
SZKHGLTYXIDOFH-UHFFFAOYSA-N

>  <BindingDB>
394406

>  <PubChem>
137045944

>  <ChEMBL>


$$$$
Compound 306
Actelion Java MolfileCreator 2.0

  0  0  0  0  0  0              0 V3000
M  V30 BEGIN CTAB
M  V30 COUNTS 20 22 0 0 0
M  V30 BEGIN ATOM
M  V30 1 O 0.0 0.0 0.0 0
M  V30 2 C -0.0118 1.5142 0.0 0
M  V30 3 C 1.2776 2.2713 0.0 0
M  V30 4 C -1.3249 2.2832 0.0 0
M  V30 5 C 2.5671 1.526 0.0 0
M  V30 6 C 1.2658 3.7856 0.0 0
M  V30 7 C -1.3368 3.7974 0.0 0
M  V30 8 N 2.5553 0.0354 0.0 0
M  V30 9 C 3.8566 2.2832 0.0 0
M  V30 10 C -0.0473 4.5546 0.0 0
M  V30 11 N 3.8448 -0.7098 0.0 0
M  V30 12 C 5.1461 1.5379 0.0 0
M  V30 13 C 5.1343 0.0473 0.0 0
M  V30 14 N 6.4356 2.295 0.0 0
M  V30 15 N 6.4237 -0.6979 0.0 0
M  V30 16 C 7.7251 1.5497 0.0 0
M  V30 17 C 6.4237 3.8093 0.0 0
M  V30 18 C 9.0146 2.3068 0.0 0
M  V30 19 C 7.7132 4.5664 0.0 0
M  V30 20 N 9.0027 3.8211 0.0 0
M  V30 END ATOM
M  V30 BEGIN BOND
M  V30 1 1 1 2
M  V30 2 2 2 3
M  V30 3 1 2 4
M  V30 4 1 3 5
M  V30 5 1 3 6
M  V30 6 2 4 7
M  V30 7 2 5 8
M  V30 8 1 5 9
M  V30 9 2 6 10
M  V30 10 1 8 11
M  V30 11 2 9 12
M  V30 12 2 11 13
M  V30 13 1 12 14
M  V30 14 1 13 15
M  V30 15 1 14 16
M  V30 16 1 14 17
M  V30 17 1 16 18
M  V30 18 1 17 19
M  V30 19 1 18 20
M  V30 20 1 7 10
M  V30 21 1 12 13
M  V30 22 1 19 20
M  V30 END BOND
M  V30 END CTAB
M  END
>  <Compound ID>
94

>  <Name>


>  <Uniprot>
P51532

>  <Target>
SMARCA4

>  <Smiles>
NC1=NN=C(C2=CC=CC=C2O)C=C1N1CCNCC1

>  <Kd (nM)>
246

>  <Assay (Kd)>
SPR in SMARCA4 BD

>  <Ki (nM)>


>  <Assay (Ki)>


>  <IC50 (nM)>
550

>  <Assay (IC50)>
IC50 of SMARCA4 BD was tested by TR-FRET

>  <EC50 (nM)>


>  <Assay (EC50)>


>  <Article DOI>
10.1038/s41589-019-0294-6

>  <Molecular Weight>
271.324

>  <Exact Mass>
271.143310164

>  <XLogP3>
0.27

>  <Heavy Atom Count>
20

>  <Ring Count>
3

>  <Hydrogen Bond Acceptor Count>
6

>  <Hydrogen Bond Donor Count>
3

>  <Rotatable Bond Count>
2

>  <Topological Polar Surface Area>
87.3

>  <Molecular Formula>
C14H17N5O

>  <InChI>
InChI=1S/C14H17N5O/c15-14-12(19-7-5-16-6-8-19)9-11(17-18-14)10-3-1-2-4-13(10)20/h1-4,9,16,20H,5-8H2,(H2,15,18)

>  <InChI Key>
SZKHGLTYXIDOFH-UHFFFAOYSA-N

>  <BindingDB>
394406

>  <PubChem>
137045944

>  <ChEMBL>


$$$$
Compound 307
Actelion Java MolfileCreator 2.0

  0  0  0  0  0  0              0 V3000
M  V30 BEGIN CTAB
M  V30 COUNTS 25 27 0 0 0
M  V30 BEGIN ATOM
M  V30 1 S 0.0 0.0 0.0 0
M  V30 2 C 0.9981 1.1273 0.0 0
M  V30 3 C -1.3739 0.6341 0.0 0
M  V30 4 N 0.2466 2.4425 0.0 0
M  V30 5 N 2.4777 0.9746 0.0 0
M  V30 6 S -2.6891 -0.0939 0.0 0
M  V30 7 C -1.2212 2.1372 0.0 0
M  V30 8 C 3.0649 -0.3875 0.0 0
M  V30 9 C -3.9925 0.6693 0.0 0
M  V30 10 O 2.1606 -1.5852 0.0 0
M  V30 11 C 4.5445 -0.5401 0.0 0
M  V30 12 C -5.3078 -0.0587 0.0 0
M  V30 13 C 5.1316 -1.9023 0.0 0
M  V30 14 C 5.4252 0.681 0.0 0
M  V30 15 O -6.6817 0.5636 0.0 0
M  V30 16 N -5.4839 -1.5383 0.0 0
M  V30 17 C 6.6112 -2.055 0.0 0
M  V30 18 C 6.9048 0.5284 0.0 0
M  V30 19 C -7.7033 -0.5401 0.0 0
M  V30 20 C -6.9635 -1.8318 0.0 0
M  V30 21 N 7.4919 -0.8337 0.0 0
M  V30 22 C -9.2064 -0.364 0.0 0
M  V30 23 C -9.0537 1.139 0.0 0
M  V30 24 C -9.3826 -1.8436 0.0 0
M  V30 25 C -10.7095 -0.1878 0.0 0
M  V30 END ATOM
M  V30 BEGIN BOND
M  V30 1 1 1 2
M  V30 2 1 1 3
M  V30 3 2 2 4
M  V30 4 1 2 5
M  V30 5 1 3 6
M  V30 6 2 3 7
M  V30 7 1 5 8
M  V30 8 1 6 9
M  V30 9 2 8 10
M  V30 10 1 8 11
M  V30 11 1 9 12
M  V30 12 1 11 13
M  V30 13 1 11 14
M  V30 14 1 12 15
M  V30 15 2 12 16
M  V30 16 1 13 17
M  V30 17 1 14 18
M  V30 18 1 15 19
M  V30 19 1 16 20
M  V30 20 1 17 21
M  V30 21 1 19 22
M  V30 22 1 22 23
M  V30 23 1 22 24
M  V30 24 1 22 25
M  V30 25 1 4 7
M  V30 26 1 18 21
M  V30 27 2 19 20
M  V30 END BOND
M  V30 END CTAB
M  END
>  <Compound ID>
95

>  <Name>
SNS-032

>  <Uniprot>
P50750

>  <Target>
CDK9

>  <Smiles>
CC(C)(C)C1=CN=C(CSC2=CN=C(NC(=O)C3CCNCC3)S2)O1

>  <Kd (nM)>


>  <Assay (Kd)>


>  <Ki (nM)>
4

>  <Assay (Ki)>
Ki of CDK9

>  <IC50 (nM)>


>  <Assay (IC50)>


>  <EC50 (nM)>


>  <Assay (EC50)>


>  <Article DOI>
10.1021/jm301495v

>  <Molecular Weight>
380.539

>  <Exact Mass>
380.134068008

>  <XLogP3>
2.99

>  <Heavy Atom Count>
25

>  <Ring Count>
3

>  <Hydrogen Bond Acceptor Count>
7

>  <Hydrogen Bond Donor Count>
2

>  <Rotatable Bond Count>
5

>  <Topological Polar Surface Area>
80.05

>  <Molecular Formula>
C17H24N4O2S2

>  <InChI>
InChI=1S/C17H24N4O2S2/c1-17(2,3)12-8-19-13(23-12)10-24-14-9-20-16(25-14)21-15(22)11-4-6-18-7-5-11/h8-9,11,18H,4-7,10H2,1-3H3,(H,20,21,22)

>  <InChI Key>
OUSFTKFNBAZUKL-UHFFFAOYSA-N

>  <BindingDB>
5931

>  <PubChem>
3025986

>  <ChEMBL>
CHEMBL296468

$$$$
Compound 308
Actelion Java MolfileCreator 2.0

  0  0  0  0  0  0              0 V3000
M  V30 BEGIN CTAB
M  V30 COUNTS 25 27 0 0 0
M  V30 BEGIN ATOM
M  V30 1 S 0.0 0.0 0.0 0
M  V30 2 C 0.9981 1.1273 0.0 0
M  V30 3 C -1.3739 0.6341 0.0 0
M  V30 4 N 0.2466 2.4425 0.0 0
M  V30 5 N 2.4777 0.9746 0.0 0
M  V30 6 S -2.6891 -0.0939 0.0 0
M  V30 7 C -1.2212 2.1372 0.0 0
M  V30 8 C 3.0649 -0.3875 0.0 0
M  V30 9 C -3.9925 0.6693 0.0 0
M  V30 10 O 2.1606 -1.5852 0.0 0
M  V30 11 C 4.5445 -0.5401 0.0 0
M  V30 12 C -5.3078 -0.0587 0.0 0
M  V30 13 C 5.1316 -1.9023 0.0 0
M  V30 14 C 5.4252 0.681 0.0 0
M  V30 15 O -6.6817 0.5636 0.0 0
M  V30 16 N -5.4839 -1.5383 0.0 0
M  V30 17 C 6.6112 -2.055 0.0 0
M  V30 18 C 6.9048 0.5284 0.0 0
M  V30 19 C -7.7033 -0.5401 0.0 0
M  V30 20 C -6.9635 -1.8318 0.0 0
M  V30 21 N 7.4919 -0.8337 0.0 0
M  V30 22 C -9.2064 -0.364 0.0 0
M  V30 23 C -9.0537 1.139 0.0 0
M  V30 24 C -9.3826 -1.8436 0.0 0
M  V30 25 C -10.7095 -0.1878 0.0 0
M  V30 END ATOM
M  V30 BEGIN BOND
M  V30 1 1 1 2
M  V30 2 1 1 3
M  V30 3 2 2 4
M  V30 4 1 2 5
M  V30 5 1 3 6
M  V30 6 2 3 7
M  V30 7 1 5 8
M  V30 8 1 6 9
M  V30 9 2 8 10
M  V30 10 1 8 11
M  V30 11 1 9 12
M  V30 12 1 11 13
M  V30 13 1 11 14
M  V30 14 1 12 15
M  V30 15 2 12 16
M  V30 16 1 13 17
M  V30 17 1 14 18
M  V30 18 1 15 19
M  V30 19 1 16 20
M  V30 20 1 17 21
M  V30 21 1 19 22
M  V30 22 1 22 23
M  V30 23 1 22 24
M  V30 24 1 22 25
M  V30 25 1 4 7
M  V30 26 1 18 21
M  V30 27 2 19 20
M  V30 END BOND
M  V30 END CTAB
M  END
>  <Compound ID>
95

>  <Name>
SNS-032

>  <Uniprot>
P49759

>  <Target>
CLK1

>  <Smiles>
CC(C)(C)C1=CN=C(CSC2=CN=C(NC(=O)C3CCNCC3)S2)O1

>  <Kd (nM)>
410

>  <Assay (Kd)>
Kd was assessed by competition binding assays

>  <Ki (nM)>


>  <Assay (Ki)>


>  <IC50 (nM)>


>  <Assay (IC50)>


>  <EC50 (nM)>


>  <Assay (EC50)>


>  <Article DOI>
10.1038/nbt.1990

>  <Molecular Weight>
380.539

>  <Exact Mass>
380.134068008

>  <XLogP3>
2.99

>  <Heavy Atom Count>
25

>  <Ring Count>
3

>  <Hydrogen Bond Acceptor Count>
7

>  <Hydrogen Bond Donor Count>
2

>  <Rotatable Bond Count>
5

>  <Topological Polar Surface Area>
80.05

>  <Molecular Formula>
C17H24N4O2S2

>  <InChI>
InChI=1S/C17H24N4O2S2/c1-17(2,3)12-8-19-13(23-12)10-24-14-9-20-16(25-14)21-15(22)11-4-6-18-7-5-11/h8-9,11,18H,4-7,10H2,1-3H3,(H,20,21,22)

>  <InChI Key>
OUSFTKFNBAZUKL-UHFFFAOYSA-N

>  <BindingDB>
5931

>  <PubChem>
3025986

>  <ChEMBL>
CHEMBL296468

$$$$
Compound 309
Actelion Java MolfileCreator 2.0

  0  0  0  0  0  0              0 V3000
M  V30 BEGIN CTAB
M  V30 COUNTS 36 39 0 0 0
M  V30 BEGIN ATOM
M  V30 1 Cl 0.0 0.0 0.0 0
M  V30 2 C -1.4988 -0.1652 0.0 0
M  V30 3 C -2.1007 -1.5342 0.0 0
M  V30 4 C -2.4193 1.0503 0.0 0
M  V30 5 C -1.2037 -2.7261 0.0 0
M  V30 6 C -3.5995 -1.6994 0.0 0
M  V30 7 N -3.9181 0.8851 0.0 0
M  V30 8 N 0.2714 -2.5373 0.0 0
M  V30 9 C -1.8056 -4.0951 0.0 0
M  V30 10 C -4.52 -0.4838 0.0 0
M  V30 11 C 1.1683 -3.7293 0.0 0
M  V30 12 C -0.9087 -5.2871 0.0 0
M  V30 13 N -6.0188 -0.649 0.0 0
M  V30 14 N 2.6435 -3.5405 0.0 0
M  V30 15 C 0.5664 -5.0983 0.0 0
M  V30 16 C -6.6207 -2.018 0.0 0 CFG=1
M  V30 17 C 3.5405 -4.7324 0.0 0
M  V30 18 C -8.1195 -2.1833 0.0 0
M  V30 19 C -5.7238 -3.21 0.0 0
M  V30 20 C 5.0157 -4.5436 0.0 0
M  V30 21 C -8.7214 -3.5523 0.0 0
M  V30 22 C -6.3257 -4.579 0.0 0
M  V30 23 C 4.5672 -3.092 0.0 0
M  V30 24 C 4.9213 -6.0306 0.0 0
M  V30 25 C 6.3375 -3.8473 0.0 0
M  V30 26 C -7.8245 -4.7442 0.0 0 CFG=1
M  V30 27 N 4.1187 -1.6404 0.0 0
M  V30 28 C 6.1722 -6.8331 0.0 0
M  V30 29 C 7.5884 -4.6498 0.0 0
M  V30 30 N -8.4264 -6.1132 0.0 0
M  V30 31 O 7.494 -6.1368 0.0 0
M  V30 32 C -9.9252 -6.2784 0.0 0 CFG=1
M  V30 33 C -10.8457 -5.0629 0.0 0
M  V30 34 C -10.5271 -7.6474 0.0 0
M  V30 35 O -12.3445 -5.2281 0.0 0
M  V30 36 C -13.265 -4.0125 0.0 0
M  V30 END ATOM
M  V30 BEGIN BOND
M  V30 1 1 1 2
M  V30 2 2 2 3
M  V30 3 1 2 4
M  V30 4 1 3 5
M  V30 5 1 3 6
M  V30 6 2 4 7
M  V30 7 2 5 8
M  V30 8 1 5 9
M  V30 9 2 6 10
M  V30 10 1 8 11
M  V30 11 2 9 12
M  V30 12 1 10 13
M  V30 13 1 11 14
M  V30 14 2 11 15
M  V30 15 1 16 13 CFG=3
M  V30 16 1 14 17
M  V30 17 1 16 18
M  V30 18 1 16 19
M  V30 19 1 17 20
M  V30 20 1 18 21
M  V30 21 1 19 22
M  V30 22 1 20 23
M  V30 23 1 20 24
M  V30 24 1 20 25
M  V30 25 1 21 26
M  V30 26 3 23 27
M  V30 27 1 24 28
M  V30 28 1 25 29
M  V30 29 1 26 30 CFG=1
M  V30 30 1 28 31
M  V30 31 1 32 30 CFG=3
M  V30 32 1 32 33
M  V30 33 1 32 34
M  V30 34 1 33 35
M  V30 35 1 35 36
M  V30 36 1 7 10
M  V30 37 1 12 15
M  V30 38 1 22 26
M  V30 39 1 29 31
M  V30 END BOND
M  V30 BEGIN COLLECTION
M  V30 MDLV30/STEABS ATOMS=(3 16 26 32)
M  V30 END COLLECTION
M  V30 END CTAB
M  END
>  <Compound ID>
96

>  <Name>
NVP-2

>  <Uniprot>
P50750

>  <Target>
CDK9

>  <Smiles>
COC[C@@H](C)N[C@H]1CC[C@H](NC2=CC(C3=CC=CC(NCC4(C#N)CCOCC4)=N3)=C(Cl)C=N2)CC1

>  <Kd (nM)>


>  <Assay (Kd)>


>  <Ki (nM)>


>  <Assay (Ki)>


>  <IC50 (nM)>
<0.5

>  <Assay (IC50)>
IC50 of CDK9/CycT1 was tested by Adapta Eu kinase assays

>  <EC50 (nM)>


>  <Assay (EC50)>


>  <Article DOI>
10.1038/nchembio.2538

>  <Molecular Weight>
513.086

>  <Exact Mass>
512.266652104

>  <XLogP3>
4.34

>  <Heavy Atom Count>
36

>  <Ring Count>
4

>  <Hydrogen Bond Acceptor Count>
8

>  <Hydrogen Bond Donor Count>
3

>  <Rotatable Bond Count>
10

>  <Topological Polar Surface Area>
104.12

>  <Molecular Formula>
C27H37ClN6O2

>  <InChI>
InChI=1S/C27H37ClN6O2/c1-19(16-35-2)32-20-6-8-21(9-7-20)33-26-14-22(23(28)15-30-26)24-4-3-5-25(34-24)31-18-27(17-29)10-12-36-13-11-27/h3-5,14-15,19-21,32H,6-13,16,18H2,1-2H3,(H,30,33)(H,31,34)/t19-,20-,21-/m1/s1

>  <InChI Key>
XWQVQSXLXAXOPJ-NJDAHSKKSA-N

>  <BindingDB>
126500

>  <PubChem>
66937006

>  <ChEMBL>
CHEMBL3656841

$$$$
Compound 310
Actelion Java MolfileCreator 2.0

  0  0  0  0  0  0              0 V3000
M  V30 BEGIN CTAB
M  V30 COUNTS 26 28 0 0 0
M  V30 BEGIN ATOM
M  V30 1 F 0.0 0.0 0.0 0
M  V30 2 C 1.4887 -0.0708 0.0 0 CFG=2
M  V30 3 C 2.4221 1.1106 0.0 0
M  V30 4 C 2.2922 -1.3233 0.0 0 CFG=2
M  V30 5 O 2.0204 2.5757 0.0 0
M  V30 6 N 3.8163 0.5789 0.0 0
M  V30 7 C 3.7336 -0.9216 0.0 0 CFG=2
M  V30 8 C 1.7368 -2.7175 0.0 0
M  V30 9 C 4.8916 -1.855 0.0 0
M  V30 10 C 0.2363 -2.942 0.0 0
M  V30 11 O 6.2858 -1.3115 0.0 0
M  V30 12 C 7.4437 -2.2449 0.0 0
M  V30 13 N 7.1956 -3.7218 0.0 0
M  V30 14 C 8.8379 -1.7014 0.0 0
M  V30 15 C 8.3535 -4.6552 0.0 0
M  V30 16 C 9.9958 -2.6348 0.0 0
M  V30 17 C 9.0624 -0.2008 0.0 0
M  V30 18 C 9.7477 -4.1117 0.0 0
M  V30 19 C 11.3901 -2.0913 0.0 0
M  V30 20 C 10.4566 0.3426 0.0 0
M  V30 21 C 11.6146 -0.5907 0.0 0
M  V30 22 O 10.6811 1.8432 0.0 0
M  V30 23 C 13.0088 -0.0472 0.0 0
M  V30 24 C 9.4996 2.8002 0.0 0
M  V30 25 O 13.2333 1.4533 0.0 0
M  V30 26 N 14.1667 -0.9806 0.0 0
M  V30 END ATOM
M  V30 BEGIN BOND
M  V30 1 1 2 1 CFG=3
M  V30 2 1 2 3
M  V30 3 1 2 4
M  V30 4 2 3 5
M  V30 5 1 3 6
M  V30 6 1 4 7
M  V30 7 1 4 8 CFG=3
M  V30 8 1 7 9 CFG=3
M  V30 9 1 8 10
M  V30 10 1 9 11
M  V30 11 1 11 12
M  V30 12 2 12 13
M  V30 13 1 12 14
M  V30 14 1 13 15
M  V30 15 1 14 16
M  V30 16 2 14 17
M  V30 17 2 15 18
M  V30 18 2 16 19
M  V30 19 1 17 20
M  V30 20 1 19 21
M  V30 21 1 20 22
M  V30 22 1 21 23
M  V30 23 1 22 24
M  V30 24 2 23 25
M  V30 25 1 23 26
M  V30 26 1 6 7
M  V30 27 1 16 18
M  V30 28 2 20 21
M  V30 END BOND
M  V30 BEGIN COLLECTION
M  V30 MDLV30/STEABS ATOMS=(3 2 4 7)
M  V30 END COLLECTION
M  V30 END CTAB
M  END
>  <Compound ID>
97

>  <Name>
PF-06650833

>  <Uniprot>
Q9NWZ3

>  <Target>
IRAK4

>  <Smiles>
CC[C@H]1[C@@H](COC2=NC=CC3=CC(C(N)=O)=C(OC)C=C23)NC(=O)[C@H]1F

>  <Kd (nM)>


>  <Assay (Kd)>


>  <Ki (nM)>


>  <Assay (Ki)>


>  <IC50 (nM)>
0.2

>  <Assay (IC50)>
Inhibition of N-terminal His6-tagged human full length IRAK4

>  <EC50 (nM)>


>  <Assay (EC50)>


>  <Article DOI>
10.1021/acs.jmedchem.7b00231

>  <Molecular Weight>
361.373

>  <Exact Mass>
361.14378434

>  <XLogP3>
1.97

>  <Heavy Atom Count>
26

>  <Ring Count>
3

>  <Hydrogen Bond Acceptor Count>
5

>  <Hydrogen Bond Donor Count>
2

>  <Rotatable Bond Count>
6

>  <Topological Polar Surface Area>
103.54

>  <Molecular Formula>
C18H20FN3O4

>  <InChI>
InChI=1S/C18H20FN3O4/c1-3-10-13(22-17(24)15(10)19)8-26-18-11-7-14(25-2)12(16(20)23)6-9(11)4-5-21-18/h4-7,10,13,15H,3,8H2,1-2H3,(H2,20,23)(H,22,24)/t10-,13+,15-/m0/s1

>  <InChI Key>
JKDGKIBAOAFRPJ-ZBINZKHDSA-N

>  <BindingDB>
50239499

>  <PubChem>
118414016

>  <ChEMBL>
CHEMBL4081711

$$$$
Compound 311
Actelion Java MolfileCreator 2.0

  0  0  0  0  0  0              0 V3000
M  V30 BEGIN CTAB
M  V30 COUNTS 24 26 0 0 0
M  V30 BEGIN ATOM
M  V30 1 Br 0.0 0.0 0.0 0
M  V30 2 C -1.2401 -0.8622 0.0 0
M  V30 3 C -1.1102 -2.3386 0.0 0
M  V30 4 C -2.6103 -0.2244 0.0 0
M  V30 5 C -2.3504 -3.2008 0.0 0
M  V30 6 C 0.248 -2.9528 0.0 0
M  V30 7 N -3.8504 -1.0866 0.0 0
M  V30 8 C -3.7323 -2.563 0.0 0
M  V30 9 C -2.2205 -4.6772 0.0 0
M  V30 10 C 0.3779 -4.4292 0.0 0
M  V30 11 O -4.9725 -3.4252 0.0 0
M  V30 12 C -0.8622 -5.2914 0.0 0
M  V30 13 C 1.7362 -5.0434 0.0 0
M  V30 14 C -6.3426 -2.7874 0.0 0
M  V30 15 O -0.7323 -6.7678 0.0 0
M  V30 16 O 2.9528 -4.1575 0.0 0
M  V30 17 N 1.8661 -6.5198 0.0 0
M  V30 18 C -7.5828 -3.6497 0.0 0 CFG=1
M  V30 19 C -1.9724 -7.6301 0.0 0
M  V30 20 N -9.012 -3.1654 0.0 0
M  V30 21 C -7.6065 -5.1379 0.0 0
M  V30 22 C -9.9215 -4.3583 0.0 0
M  V30 23 C -9.0474 -5.5749 0.0 0
M  V30 24 O -11.4333 -4.3347 0.0 0
M  V30 END ATOM
M  V30 BEGIN BOND
M  V30 1 1 1 2
M  V30 2 1 2 3
M  V30 3 2 2 4
M  V30 4 1 3 5
M  V30 5 2 3 6
M  V30 6 1 4 7
M  V30 7 1 5 8
M  V30 8 2 5 9
M  V30 9 1 6 10
M  V30 10 1 8 11
M  V30 11 1 9 12
M  V30 12 1 10 13
M  V30 13 1 11 14
M  V30 14 1 12 15
M  V30 15 2 13 16
M  V30 16 1 13 17
M  V30 17 1 18 14 CFG=3
M  V30 18 1 15 19
M  V30 19 1 18 20
M  V30 20 1 18 21
M  V30 21 1 20 22
M  V30 22 1 21 23
M  V30 23 2 22 24
M  V30 24 2 7 8
M  V30 25 2 10 12
M  V30 26 1 22 23
M  V30 END BOND
M  V30 BEGIN COLLECTION
M  V30 MDLV30/STEABS ATOMS=(1 18)
M  V30 END COLLECTION
M  V30 END CTAB
M  END
>  <Compound ID>
98

>  <Name>


>  <Uniprot>
Q9NWZ3

>  <Target>
IRAK4

>  <Smiles>
COC1=CC2=C(OC[C@@H]3CCC(=O)N3)N=CC(Br)=C2C=C1C(N)=O

>  <Kd (nM)>


>  <Assay (Kd)>


>  <Ki (nM)>


>  <Assay (Ki)>


>  <IC50 (nM)>
2.1

>  <Assay (IC50)>
Inhibition of IRAK4

>  <EC50 (nM)>


>  <Assay (EC50)>


>  <Article DOI>
10.1021/acsmedchemlett.9b00219

>  <Molecular Weight>
394.225

>  <Exact Mass>
393.032418092

>  <XLogP3>
1.39

>  <Heavy Atom Count>
24

>  <Ring Count>
3

>  <Hydrogen Bond Acceptor Count>
5

>  <Hydrogen Bond Donor Count>
2

>  <Rotatable Bond Count>
5

>  <Topological Polar Surface Area>
103.54

>  <Molecular Formula>
C16H16BrN3O4

>  <InChI>
InChI=1S/C16H16BrN3O4/c1-23-13-5-10-9(4-11(13)15(18)22)12(17)6-19-16(10)24-7-8-2-3-14(21)20-8/h4-6,8H,2-3,7H2,1H3,(H2,18,22)(H,20,21)/t8-/m0/s1

>  <InChI Key>
IPUGCJLTEYLCFC-QMMMGPOBSA-N

>  <BindingDB>
50515374

>  <PubChem>
155548286

>  <ChEMBL>
CHEMBL4536517

$$$$
Compound 312
Actelion Java MolfileCreator 2.0

  0  0  0  0  0  0              0 V3000
M  V30 BEGIN CTAB
M  V30 COUNTS 38 42 0 0 0
M  V30 BEGIN ATOM
M  V30 1 O 0.0 0.0 0.0 0
M  V30 2 C 0.9205 1.192 0.0 0
M  V30 3 N 2.3958 0.9913 0.0 0
M  V30 4 C 0.354 2.5965 0.0 0 CFG=2
M  V30 5 C 3.3164 2.1834 0.0 0
M  V30 6 C 2.9387 -0.3894 0.0 0
M  V30 7 N 1.2746 3.7885 0.0 0
M  V30 8 C -1.1448 2.8207 0.0 0
M  V30 9 C 2.7499 3.5879 0.0 0
M  V30 10 C 4.7917 1.9827 0.0 0
M  V30 11 C 0.7081 5.193 0.0 0
M  V30 12 C -1.7113 4.2252 0.0 0
M  V30 13 N 3.6705 4.7799 0.0 0
M  V30 14 N 5.7123 3.1748 0.0 0
M  V30 15 C -0.7553 5.5825 0.0 0
M  V30 16 C 1.4988 6.4794 0.0 0
M  V30 17 C 5.1458 4.5793 0.0 0
M  V30 18 C -0.8615 7.0932 0.0 0
M  V30 19 C 0.5311 7.6479 0.0 0
M  V30 20 N 6.0664 5.7713 0.0 0
M  V30 21 C 7.5417 5.5707 0.0 0
M  V30 22 C 8.4622 6.7627 0.0 0
M  V30 23 C 8.0846 4.1898 0.0 0
M  V30 24 O 7.8957 8.1672 0.0 0
M  V30 25 C 9.9375 6.5621 0.0 0
M  V30 26 C 9.5599 3.9891 0.0 0
M  V30 27 C 8.8163 9.3592 0.0 0
M  V30 28 C 10.4804 5.1812 0.0 0
M  V30 29 C 11.9557 4.9805 0.0 0
M  V30 30 O 12.8763 6.1726 0.0 0
M  V30 31 N 12.4986 3.5997 0.0 0
M  V30 32 C 13.9739 3.399 0.0 0
M  V30 33 C 14.5168 2.0182 0.0 0
M  V30 34 C 14.8945 4.5911 0.0 0
M  V30 35 C 15.9921 1.8175 0.0 0
M  V30 36 C 16.3698 4.3904 0.0 0
M  V30 37 N 16.9127 3.0095 0.0 0
M  V30 38 C 18.388 2.8089 0.0 0
M  V30 END ATOM
M  V30 BEGIN BOND
M  V30 1 2 1 2
M  V30 2 1 2 3
M  V30 3 1 2 4
M  V30 4 1 3 5
M  V30 5 1 3 6
M  V30 6 1 4 7
M  V30 7 1 4 8 CFG=1
M  V30 8 2 5 9
M  V30 9 1 5 10
M  V30 10 1 7 11
M  V30 11 1 8 12
M  V30 12 1 9 13
M  V30 13 2 10 14
M  V30 14 1 11 15
M  V30 15 1 11 16
M  V30 16 2 13 17
M  V30 17 1 15 18
M  V30 18 1 16 19
M  V30 19 1 17 20
M  V30 20 1 20 21
M  V30 21 2 21 22
M  V30 22 1 21 23
M  V30 23 1 22 24
M  V30 24 1 22 25
M  V30 25 2 23 26
M  V30 26 1 24 27
M  V30 27 2 25 28
M  V30 28 1 28 29
M  V30 29 2 29 30
M  V30 30 1 29 31
M  V30 31 1 31 32
M  V30 32 1 32 33
M  V30 33 1 32 34
M  V30 34 1 33 35
M  V30 35 1 34 36
M  V30 36 1 35 37
M  V30 37 1 37 38
M  V30 38 1 7 9
M  V30 39 1 14 17
M  V30 40 1 18 19
M  V30 41 1 26 28
M  V30 42 1 36 37
M  V30 END BOND
M  V30 BEGIN COLLECTION
M  V30 MDLV30/STEABS ATOMS=(1 4)
M  V30 END COLLECTION
M  V30 END CTAB
M  END
>  <Compound ID>
99

>  <Name>
BI2536

>  <Uniprot>
O60885

>  <Target>
BRD4

>  <Smiles>
CC[C@@H]1C(=O)N(C)C2=CN=C(NC3=CC=C(C(=O)NC4CCN(C)CC4)C=C3OC)N=C2N1C1CCCC1

>  <Kd (nM)>


>  <Assay (Kd)>


>  <Ki (nM)>
56

>  <Assay (Ki)>
Ki was determined in a proprietary competition assay

>  <IC50 (nM)>


>  <Assay (IC50)>


>  <EC50 (nM)>


>  <Assay (EC50)>


>  <Article DOI>
10.1021/acsmedchemlett.5b00084

>  <Molecular Weight>
521.666

>  <Exact Mass>
521.311438108

>  <XLogP3>
3.74

>  <Heavy Atom Count>
38

>  <Ring Count>
5

>  <Hydrogen Bond Acceptor Count>
8

>  <Hydrogen Bond Donor Count>
2

>  <Rotatable Bond Count>
7

>  <Topological Polar Surface Area>
102.93

>  <Molecular Formula>
C28H39N7O3

>  <InChI>
InChI=1S/C28H39N7O3/c1-5-22-27(37)34(3)23-17-29-28(32-25(23)35(22)20-8-6-7-9-20)31-21-11-10-18(16-24(21)38-4)26(36)30-19-12-14-33(2)15-13-19/h10-11,16-17,19-20,22H,5-9,12-15H2,1-4H3,(H,30,36)(H,29,31,32)/t22-/m1/s1

>  <InChI Key>
XQVVPGYIWAGRNI-JOCHJYFZSA-N

>  <BindingDB>
25121

>  <PubChem>
11364421

>  <ChEMBL>
CHEMBL513909

$$$$
Compound 313
Actelion Java MolfileCreator 2.0

  0  0  0  0  0  0              0 V3000
M  V30 BEGIN CTAB
M  V30 COUNTS 38 42 0 0 0
M  V30 BEGIN ATOM
M  V30 1 O 0.0 0.0 0.0 0
M  V30 2 C 0.9205 1.192 0.0 0
M  V30 3 N 2.3958 0.9913 0.0 0
M  V30 4 C 0.354 2.5965 0.0 0 CFG=2
M  V30 5 C 3.3164 2.1834 0.0 0
M  V30 6 C 2.9387 -0.3894 0.0 0
M  V30 7 N 1.2746 3.7885 0.0 0
M  V30 8 C -1.1448 2.8207 0.0 0
M  V30 9 C 2.7499 3.5879 0.0 0
M  V30 10 C 4.7917 1.9827 0.0 0
M  V30 11 C 0.7081 5.193 0.0 0
M  V30 12 C -1.7113 4.2252 0.0 0
M  V30 13 N 3.6705 4.7799 0.0 0
M  V30 14 N 5.7123 3.1748 0.0 0
M  V30 15 C -0.7553 5.5825 0.0 0
M  V30 16 C 1.4988 6.4794 0.0 0
M  V30 17 C 5.1458 4.5793 0.0 0
M  V30 18 C -0.8615 7.0932 0.0 0
M  V30 19 C 0.5311 7.6479 0.0 0
M  V30 20 N 6.0664 5.7713 0.0 0
M  V30 21 C 7.5417 5.5707 0.0 0
M  V30 22 C 8.4622 6.7627 0.0 0
M  V30 23 C 8.0846 4.1898 0.0 0
M  V30 24 O 7.8957 8.1672 0.0 0
M  V30 25 C 9.9375 6.5621 0.0 0
M  V30 26 C 9.5599 3.9891 0.0 0
M  V30 27 C 8.8163 9.3592 0.0 0
M  V30 28 C 10.4804 5.1812 0.0 0
M  V30 29 C 11.9557 4.9805 0.0 0
M  V30 30 O 12.8763 6.1726 0.0 0
M  V30 31 N 12.4986 3.5997 0.0 0
M  V30 32 C 13.9739 3.399 0.0 0
M  V30 33 C 14.5168 2.0182 0.0 0
M  V30 34 C 14.8945 4.5911 0.0 0
M  V30 35 C 15.9921 1.8175 0.0 0
M  V30 36 C 16.3698 4.3904 0.0 0
M  V30 37 N 16.9127 3.0095 0.0 0
M  V30 38 C 18.388 2.8089 0.0 0
M  V30 END ATOM
M  V30 BEGIN BOND
M  V30 1 2 1 2
M  V30 2 1 2 3
M  V30 3 1 2 4
M  V30 4 1 3 5
M  V30 5 1 3 6
M  V30 6 1 4 7
M  V30 7 1 4 8 CFG=1
M  V30 8 2 5 9
M  V30 9 1 5 10
M  V30 10 1 7 11
M  V30 11 1 8 12
M  V30 12 1 9 13
M  V30 13 2 10 14
M  V30 14 1 11 15
M  V30 15 1 11 16
M  V30 16 2 13 17
M  V30 17 1 15 18
M  V30 18 1 16 19
M  V30 19 1 17 20
M  V30 20 1 20 21
M  V30 21 2 21 22
M  V30 22 1 21 23
M  V30 23 1 22 24
M  V30 24 1 22 25
M  V30 25 2 23 26
M  V30 26 1 24 27
M  V30 27 2 25 28
M  V30 28 1 28 29
M  V30 29 2 29 30
M  V30 30 1 29 31
M  V30 31 1 31 32
M  V30 32 1 32 33
M  V30 33 1 32 34
M  V30 34 1 33 35
M  V30 35 1 34 36
M  V30 36 1 35 37
M  V30 37 1 37 38
M  V30 38 1 7 9
M  V30 39 1 14 17
M  V30 40 1 18 19
M  V30 41 1 26 28
M  V30 42 1 36 37
M  V30 END BOND
M  V30 BEGIN COLLECTION
M  V30 MDLV30/STEABS ATOMS=(1 4)
M  V30 END COLLECTION
M  V30 END CTAB
M  END
>  <Compound ID>
99

>  <Name>
BI2536

>  <Uniprot>
P53350

>  <Target>
PLK1

>  <Smiles>
CC[C@@H]1C(=O)N(C)C2=CN=C(NC3=CC=C(C(=O)NC4CCN(C)CC4)C=C3OC)N=C2N1C1CCCC1

>  <Kd (nM)>


>  <Assay (Kd)>


>  <Ki (nM)>
0.22

>  <Assay (Ki)>
Ki was determined in a proprietary competition assay

>  <IC50 (nM)>


>  <Assay (IC50)>


>  <EC50 (nM)>


>  <Assay (EC50)>


>  <Article DOI>
10.1021/acsmedchemlett.5b00084

>  <Molecular Weight>
521.666

>  <Exact Mass>
521.311438108

>  <XLogP3>
3.74

>  <Heavy Atom Count>
38

>  <Ring Count>
5

>  <Hydrogen Bond Acceptor Count>
8

>  <Hydrogen Bond Donor Count>
2

>  <Rotatable Bond Count>
7

>  <Topological Polar Surface Area>
102.93

>  <Molecular Formula>
C28H39N7O3

>  <InChI>
InChI=1S/C28H39N7O3/c1-5-22-27(37)34(3)23-17-29-28(32-25(23)35(22)20-8-6-7-9-20)31-21-11-10-18(16-24(21)38-4)26(36)30-19-12-14-33(2)15-13-19/h10-11,16-17,19-20,22H,5-9,12-15H2,1-4H3,(H,30,36)(H,29,31,32)/t22-/m1/s1

>  <InChI Key>
XQVVPGYIWAGRNI-JOCHJYFZSA-N

>  <BindingDB>
25121

>  <PubChem>
11364421

>  <ChEMBL>
CHEMBL513909

$$$$
Compound 314
Actelion Java MolfileCreator 2.0

  0  0  0  0  0  0              0 V3000
M  V30 BEGIN CTAB
M  V30 COUNTS 37 41 0 0 0
M  V30 BEGIN ATOM
M  V30 1 Cl 0.0 0.0 0.0 0
M  V30 2 C 1.4843 0.106 0.0 0
M  V30 3 C 2.1441 1.4608 0.0 0
M  V30 4 C 2.2972 -1.1309 0.0 0
M  V30 5 S 1.3076 2.7213 0.0 0
M  V30 6 C 3.6284 1.5668 0.0 0
M  V30 7 C 3.7816 -1.0249 0.0 0
M  V30 8 O 0.0471 1.9084 0.0 0
M  V30 9 O 2.5446 3.5577 0.0 0
M  V30 10 N 0.4712 3.9819 0.0 0
M  V30 11 C 4.4413 0.3298 0.0 0
M  V30 12 C -1.0367 3.8994 0.0 0
M  V30 13 O 5.9257 0.4358 0.0 0
M  V30 14 C -1.8731 5.1599 0.0 0
M  V30 15 C -1.7199 2.5682 0.0 0
M  V30 16 C 6.7386 -0.801 0.0 0
M  V30 17 C -3.381 5.0775 0.0 0
M  V30 18 C -3.2279 2.4857 0.0 0
M  V30 19 C -4.0643 3.7462 0.0 0
M  V30 20 C -5.5723 3.6638 0.0 0
M  V30 21 N -6.2555 2.3325 0.0 0
M  V30 22 N -6.4087 4.9243 0.0 0
M  V30 23 C -7.7635 2.2501 0.0 0
M  V30 24 C -7.9166 4.8418 0.0 0
M  V30 25 O -8.4468 0.9189 0.0 0
M  V30 26 C -8.5999 3.5106 0.0 0
M  V30 27 N -9.0005 5.9021 0.0 0
M  V30 28 C -7.6339 -0.318 0.0 0
M  V30 29 C -10.0961 3.7462 0.0 0
M  V30 30 N -10.3435 5.2188 0.0 0
M  V30 31 C -8.3172 -1.6493 0.0 0 CFG=2
M  V30 32 C -11.1563 2.686 0.0 0
M  V30 33 O -7.5043 -2.8862 0.0 0
M  V30 34 C -9.8251 -1.7317 0.0 0
M  V30 35 C -8.1876 -4.2175 0.0 0
M  V30 36 N -10.5084 -3.063 0.0 0
M  V30 37 C -9.6955 -4.2999 0.0 0
M  V30 END ATOM
M  V30 BEGIN BOND
M  V30 1 1 1 2
M  V30 2 2 2 3
M  V30 3 1 2 4
M  V30 4 1 3 5
M  V30 5 1 3 6
M  V30 6 2 4 7
M  V30 7 2 5 8
M  V30 8 2 5 9
M  V30 9 1 5 10
M  V30 10 2 6 11
M  V30 11 1 10 12
M  V30 12 1 11 13
M  V30 13 2 12 14
M  V30 14 1 12 15
M  V30 15 1 13 16
M  V30 16 1 14 17
M  V30 17 2 15 18
M  V30 18 2 17 19
M  V30 19 1 19 20
M  V30 20 2 20 21
M  V30 21 1 20 22
M  V30 22 1 21 23
M  V30 23 2 22 24
M  V30 24 1 23 25
M  V30 25 2 23 26
M  V30 26 1 24 27
M  V30 27 1 25 28
M  V30 28 1 26 29
M  V30 29 1 27 30
M  V30 30 1 31 28 CFG=3
M  V30 31 1 29 32
M  V30 32 1 31 33
M  V30 33 1 31 34
M  V30 34 1 33 35
M  V30 35 1 34 36
M  V30 36 1 35 37
M  V30 37 1 7 11
M  V30 38 1 18 19
M  V30 39 1 24 26
M  V30 40 2 29 30
M  V30 41 1 36 37
M  V30 END BOND
M  V30 BEGIN COLLECTION
M  V30 MDLV30/STEABS ATOMS=(1 31)
M  V30 END COLLECTION
M  V30 END CTAB
M  END
>  <Compound ID>
100

>  <Name>
290-R

>  <Uniprot>
Q96BR1

>  <Target>
SGK3

>  <Smiles>
COC1=CC=C(Cl)C(S(=O)(=O)NC2=CC=C(C3=NC(OC[C@H]4CNCCO4)=C4C(C)=N[NH]C4=N3)C=C2)=C1

>  <Kd (nM)>


>  <Assay (Kd)>


>  <Ki (nM)>


>  <Assay (Ki)>


>  <IC50 (nM)>
35

>  <Assay (IC50)>
Inhibition of SGK3

>  <EC50 (nM)>


>  <Assay (EC50)>


>  <Article DOI>
10.1021/acschembio.9b00505

>  <Molecular Weight>
545.021

>  <Exact Mass>
544.12956658

>  <XLogP3>
2.92

>  <Heavy Atom Count>
37

>  <Ring Count>
5

>  <Hydrogen Bond Acceptor Count>
9

>  <Hydrogen Bond Donor Count>
3

>  <Rotatable Bond Count>
8

>  <Topological Polar Surface Area>
140.35

>  <Molecular Formula>
C24H25ClN6O5S

>  <InChI>
InChI=1S/C24H25ClN6O5S/c1-14-21-23(30-29-14)27-22(28-24(21)36-13-18-12-26-9-10-35-18)15-3-5-16(6-4-15)31-37(32,33)20-11-17(34-2)7-8-19(20)25/h3-8,11,18,26,31H,9-10,12-13H2,1-2H3,(H,27,28,29,30)/t18-/m1/s1

>  <InChI Key>
JOEDMMFGXYMXAW-GOSISDBHSA-N

>  <BindingDB>


>  <PubChem>


>  <ChEMBL>


$$$$
Compound 315
Actelion Java MolfileCreator 2.0

  0  0  0  0  0  0              0 V3000
M  V30 BEGIN CTAB
M  V30 COUNTS 35 39 0 0 0
M  V30 BEGIN ATOM
M  V30 1 S 0.0 0.0 0.0 0
M  V30 2 O -1.3096 -0.7432 0.0 0
M  V30 3 O 1.286 0.7668 0.0 0
M  V30 4 N -0.7668 1.3096 0.0 0
M  V30 5 C 0.7432 -1.286 0.0 0
M  V30 6 C -2.277 1.3096 0.0 0
M  V30 7 C -0.0117 -2.572 0.0 0
M  V30 8 C 2.2298 -1.2624 0.0 0
M  V30 9 C -3.0439 2.6192 0.0 0
M  V30 10 C -3.0321 0.0235 0.0 0
M  V30 11 F -1.5219 -2.572 0.0 0
M  V30 12 C 0.7314 -3.858 0.0 0
M  V30 13 C 2.9731 -2.5484 0.0 0
M  V30 14 C -4.5541 2.6192 0.0 0
M  V30 15 C -4.5423 0.0235 0.0 0
M  V30 16 C 2.218 -3.8344 0.0 0
M  V30 17 C 4.4597 -2.5248 0.0 0
M  V30 18 C -5.3092 1.3332 0.0 0
M  V30 19 C -6.8194 1.3332 0.0 0
M  V30 20 N -7.5744 0.0471 0.0 0
M  V30 21 N -7.5862 2.6428 0.0 0
M  V30 22 C -9.0846 0.0471 0.0 0
M  V30 23 C -9.0964 2.6428 0.0 0
M  V30 24 O -9.8397 -1.2388 0.0 0
M  V30 25 C -9.8515 1.3568 0.0 0
M  V30 26 N -10.1229 3.7636 0.0 0
M  V30 27 C -9.0964 -2.5248 0.0 0
M  V30 28 C -11.3263 1.6753 0.0 0
M  V30 29 N -11.5033 3.1619 0.0 0
M  V30 30 C -9.8515 -3.8108 0.0 0 CFG=2
M  V30 31 O -9.1082 -5.0968 0.0 0
M  V30 32 C -11.3617 -3.8108 0.0 0
M  V30 33 C -9.8633 -6.3828 0.0 0
M  V30 34 N -12.1168 -5.0968 0.0 0
M  V30 35 C -11.3735 -6.3828 0.0 0
M  V30 END ATOM
M  V30 BEGIN BOND
M  V30 1 2 1 2
M  V30 2 2 1 3
M  V30 3 1 1 4
M  V30 4 1 1 5
M  V30 5 1 4 6
M  V30 6 2 5 7
M  V30 7 1 5 8
M  V30 8 2 6 9
M  V30 9 1 6 10
M  V30 10 1 7 11
M  V30 11 1 7 12
M  V30 12 2 8 13
M  V30 13 1 9 14
M  V30 14 2 10 15
M  V30 15 2 12 16
M  V30 16 1 13 17
M  V30 17 2 14 18
M  V30 18 1 18 19
M  V30 19 2 19 20
M  V30 20 1 19 21
M  V30 21 1 20 22
M  V30 22 2 21 23
M  V30 23 1 22 24
M  V30 24 2 22 25
M  V30 25 1 23 26
M  V30 26 1 24 27
M  V30 27 1 25 28
M  V30 28 1 26 29
M  V30 29 1 30 27 CFG=3
M  V30 30 1 30 31
M  V30 31 1 30 32
M  V30 32 1 31 33
M  V30 33 1 32 34
M  V30 34 1 33 35
M  V30 35 1 13 16
M  V30 36 1 15 18
M  V30 37 1 23 25
M  V30 38 2 28 29
M  V30 39 1 34 35
M  V30 END BOND
M  V30 BEGIN COLLECTION
M  V30 MDLV30/STEABS ATOMS=(1 30)
M  V30 END COLLECTION
M  V30 END CTAB
M  END
>  <Compound ID>
101

>  <Name>
308-R

>  <Uniprot>
Q96BR1

>  <Target>
SGK3

>  <Smiles>
CC1=CC=C(F)C(S(=O)(=O)NC2=CC=C(C3=NC(OC[C@H]4CNCCO4)=C4C=N[NH]C4=N3)C=C2)=C1

>  <Kd (nM)>


>  <Assay (Kd)>


>  <Ki (nM)>


>  <Assay (Ki)>


>  <IC50 (nM)>
5

>  <Assay (IC50)>
Inhibition of SGK3

>  <EC50 (nM)>


>  <Assay (EC50)>


>  <Article DOI>
10.1021/acschembio.9b00505

>  <Molecular Weight>
498.54

>  <Exact Mass>
498.148552436

>  <XLogP3>
2.38

>  <Heavy Atom Count>
35

>  <Ring Count>
5

>  <Hydrogen Bond Acceptor Count>
8

>  <Hydrogen Bond Donor Count>
3

>  <Rotatable Bond Count>
7

>  <Topological Polar Surface Area>
131.12

>  <Molecular Formula>
C23H23FN6O4S

>  <InChI>
InChI=1S/C23H23FN6O4S/c1-14-2-7-19(24)20(10-14)35(31,32)30-16-5-3-15(4-6-16)21-27-22-18(12-26-29-22)23(28-21)34-13-17-11-25-8-9-33-17/h2-7,10,12,17,25,30H,8-9,11,13H2,1H3,(H,26,27,28,29)/t17-/m1/s1

>  <InChI Key>
UAVUYSNDFXWICV-QGZVFWFLSA-N

>  <BindingDB>


>  <PubChem>
146014827

>  <ChEMBL>
CHEMBL3355033

$$$$
Compound 316
Actelion Java MolfileCreator 2.0

  0  0  0  0  0  0              0 V3000
M  V30 BEGIN CTAB
M  V30 COUNTS 34 38 0 0 0
M  V30 BEGIN ATOM
M  V30 1 F 0.0 0.0 0.0 0
M  V30 2 C 0.8221 1.2566 0.0 0
M  V30 3 C 0.1526 2.6072 0.0 0
M  V30 4 C 2.3018 1.1626 0.0 0
M  V30 5 C 0.9747 3.8638 0.0 0
M  V30 6 C -1.3505 2.7246 0.0 0
M  V30 7 C 3.1239 2.4193 0.0 0
M  V30 8 C 2.4545 3.7699 0.0 0
M  V30 9 C 0.5989 5.3201 0.0 0
M  V30 10 N -2.1961 1.4915 0.0 0
M  V30 11 O 2.9948 5.1675 0.0 0
M  V30 12 C 1.8556 6.1305 0.0 0
M  V30 13 C -3.6994 1.6089 0.0 0
M  V30 14 N -4.3688 2.9595 0.0 0
M  V30 15 N -4.545 0.3758 0.0 0
M  V30 16 C -5.8721 3.077 0.0 0
M  V30 17 C -6.0483 0.4932 0.0 0
M  V30 18 C -4.1927 -1.0569 0.0 0
M  V30 19 C -6.7177 1.8438 0.0 0
M  V30 20 N -6.612 -0.8808 0.0 0
M  V30 21 N -5.4728 -1.8438 0.0 0
M  V30 22 C -8.221 1.9613 0.0 0
M  V30 23 C -9.0666 0.7281 0.0 0
M  V30 24 C -8.8904 3.3119 0.0 0
M  V30 25 N -10.5698 0.8455 0.0 0
M  V30 26 C -8.4206 -0.5989 0.0 0
M  V30 27 C -10.3937 3.4293 0.0 0
M  V30 28 C -11.2393 2.1961 0.0 0
M  V30 29 C -12.7426 2.3136 0.0 0
M  V30 30 C -13.412 3.6642 0.0 0
M  V30 31 C -14.9153 3.7816 0.0 0
M  V30 32 O -15.7608 2.5485 0.0 0
M  V30 33 N -15.5847 5.1322 0.0 0
M  V30 34 C -17.088 5.2497 0.0 0
M  V30 END ATOM
M  V30 BEGIN BOND
M  V30 1 1 1 2
M  V30 2 2 2 3
M  V30 3 1 2 4
M  V30 4 1 3 5
M  V30 5 1 3 6
M  V30 6 2 4 7
M  V30 7 2 5 8
M  V30 8 1 5 9
M  V30 9 1 6 10
M  V30 10 1 8 11
M  V30 11 1 9 12
M  V30 12 1 10 13
M  V30 13 2 13 14
M  V30 14 1 13 15
M  V30 15 1 14 16
M  V30 16 1 15 17
M  V30 17 1 15 18
M  V30 18 2 16 19
M  V30 19 2 17 20
M  V30 20 2 18 21
M  V30 21 1 19 22
M  V30 22 2 22 23
M  V30 23 1 22 24
M  V30 24 1 23 25
M  V30 25 1 23 26
M  V30 26 2 24 27
M  V30 27 2 25 28
M  V30 28 1 28 29
M  V30 29 1 29 30
M  V30 30 1 30 31
M  V30 31 2 31 32
M  V30 32 1 31 33
M  V30 33 1 33 34
M  V30 34 1 7 8
M  V30 35 1 11 12
M  V30 36 1 17 19
M  V30 37 1 20 21
M  V30 38 1 27 28
M  V30 END BOND
M  V30 END CTAB
M  END
>  <Compound ID>
102

>  <Name>


>  <Uniprot>
O75530

>  <Target>
EED

>  <Smiles>
CNC(=O)CCC1=CC=C(C2=CN=C(NCC3=C(F)C=CC4=C3CCO4)N3C=NN=C23)C(C)=N1

>  <Kd (nM)>
0.2

>  <Assay (Kd)>
SPR

>  <Ki (nM)>


>  <Assay (Ki)>


>  <IC50 (nM)>


>  <Assay (IC50)>


>  <EC50 (nM)>


>  <Assay (EC50)>


>  <Article DOI>
10.1016/j.chembiol.2019.11.004

>  <Molecular Weight>
461.501

>  <Exact Mass>
461.197551228

>  <XLogP3>
2.94

>  <Heavy Atom Count>
34

>  <Ring Count>
5

>  <Hydrogen Bond Acceptor Count>
8

>  <Hydrogen Bond Donor Count>
2

>  <Rotatable Bond Count>
7

>  <Topological Polar Surface Area>
106.33

>  <Molecular Formula>
C24H24FN7O2

>  <InChI>
InChI=1S/C24H24FN7O2/c1-14-16(5-3-15(30-14)4-8-22(33)26-2)19-12-28-24(32-13-29-31-23(19)32)27-11-18-17-9-10-34-21(17)7-6-20(18)25/h3,5-7,12-13H,4,8-11H2,1-2H3,(H,26,33)(H,27,28)

>  <InChI Key>
KHAQTENVDNMYIQ-UHFFFAOYSA-N

>  <BindingDB>


>  <PubChem>


>  <ChEMBL>


$$$$
Compound 317
Actelion Java MolfileCreator 2.0

  0  0  0  0  0  0              0 V3000
M  V30 BEGIN CTAB
M  V30 COUNTS 26 29 0 0 0
M  V30 BEGIN ATOM
M  V30 1 S 0.0 0.0 0.0 0
M  V30 2 O -0.1418 -1.4894 0.0 0
M  V30 3 O 0.1182 1.5131 0.0 0
M  V30 4 C 1.4894 -0.1182 0.0 0
M  V30 5 C -1.5131 0.1418 0.0 0
M  V30 6 C 2.3405 1.1348 0.0 0
M  V30 7 C 2.1159 -1.4658 0.0 0
M  V30 8 C 3.83 1.0166 0.0 0
M  V30 9 C 3.6054 -1.584 0.0 0
M  V30 10 C 4.4565 -0.3309 0.0 0
M  V30 11 C 5.946 -0.4492 0.0 0
M  V30 12 C 6.5725 -1.7968 0.0 0
M  V30 13 C 6.7971 0.8038 0.0 0
M  V30 14 N 5.9815 -3.1798 0.0 0
M  V30 15 N 8.062 -1.915 0.0 0
M  V30 16 N 8.2866 0.6856 0.0 0
M  V30 17 N 7.1163 -4.1492 0.0 0
M  V30 18 C 8.9131 -0.6619 0.0 0
M  V30 19 C 8.393 -3.369 0.0 0
M  V30 20 N 10.4026 -0.7801 0.0 0
M  V30 21 C 11.2537 0.4728 0.0 0
M  V30 22 C 12.7431 0.3546 0.0 0
M  V30 23 O 13.5115 -0.922 0.0 0
M  V30 24 C 13.7125 1.5131 0.0 0
M  V30 25 C 14.9655 -0.5674 0.0 0
M  V30 26 C 15.0956 0.9456 0.0 0
M  V30 END ATOM
M  V30 BEGIN BOND
M  V30 1 2 1 2
M  V30 2 2 1 3
M  V30 3 1 1 4
M  V30 4 1 1 5
M  V30 5 2 4 6
M  V30 6 1 4 7
M  V30 7 1 6 8
M  V30 8 2 7 9
M  V30 9 2 8 10
M  V30 10 1 10 11
M  V30 11 1 11 12
M  V30 12 2 11 13
M  V30 13 2 12 14
M  V30 14 1 12 15
M  V30 15 1 13 16
M  V30 16 1 14 17
M  V30 17 1 15 18
M  V30 18 1 15 19
M  V30 19 1 18 20
M  V30 20 1 20 21
M  V30 21 1 21 22
M  V30 22 1 22 23
M  V30 23 2 22 24
M  V30 24 1 23 25
M  V30 25 1 24 26
M  V30 26 1 9 10
M  V30 27 2 16 18
M  V30 28 2 17 19
M  V30 29 2 25 26
M  V30 END BOND
M  V30 END CTAB
M  END
>  <Compound ID>
103

>  <Name>
EED226

>  <Uniprot>
O75530

>  <Target>
EED

>  <Smiles>
CS(=O)(=O)C1=CC=C(C2=CN=C(NCC3=CC=CO3)N3C=NN=C23)C=C1

>  <Kd (nM)>


>  <Assay (Kd)>


>  <Ki (nM)>


>  <Assay (Ki)>


>  <IC50 (nM)>
22

>  <Assay (IC50)>
IC50 of EED was tested by AlphaScreen competition binding assay

>  <EC50 (nM)>


>  <Assay (EC50)>


>  <Article DOI>
10.1021/acs.jmedchem.6b01576

>  <Molecular Weight>
369.406

>  <Exact Mass>
369.08956034

>  <XLogP3>
2.3

>  <Heavy Atom Count>
26

>  <Ring Count>
4

>  <Hydrogen Bond Acceptor Count>
8

>  <Hydrogen Bond Donor Count>
1

>  <Rotatable Bond Count>
5

>  <Topological Polar Surface Area>
102.39

>  <Molecular Formula>
C17H15N5O3S

>  <InChI>
InChI=1S/C17H15N5O3S/c1-26(23,24)14-6-4-12(5-7-14)15-10-19-17(22-11-20-21-16(15)22)18-9-13-3-2-8-25-13/h2-8,10-11H,9H2,1H3,(H,18,19)

>  <InChI Key>
DYIRSNMPIZZNBK-UHFFFAOYSA-N

>  <BindingDB>
225230

>  <PubChem>
123132228

>  <ChEMBL>
CHEMBL4065484

$$$$
Compound 318
Actelion Java MolfileCreator 2.0

  0  0  0  0  0  0              0 V3000
M  V30 BEGIN CTAB
M  V30 COUNTS 32 35 0 0 0
M  V30 BEGIN ATOM
M  V30 1 Cl 0.0 0.0 0.0 0
M  V30 2 C 1.4896 0.0827 0.0 0
M  V30 3 C 2.1635 1.4305 0.0 0
M  V30 4 C 2.2935 -1.1704 0.0 0
M  V30 5 C 3.6531 1.5132 0.0 0
M  V30 6 C 3.7832 -1.0876 0.0 0
M  V30 7 C 4.4571 0.26 0.0 0
M  V30 8 C 5.9467 0.3428 0.0 0 CFG=2
M  V30 9 C 6.7506 -0.9103 0.0 0
M  V30 10 C 6.6206 1.6906 0.0 0
M  V30 11 O 6.0531 -2.2344 0.0 0
M  V30 12 N 8.2403 -0.8275 0.0 0
M  V30 13 N 5.793 2.9674 0.0 0
M  V30 14 C 9.0442 -2.0807 0.0 0
M  V30 15 C 8.9142 0.5201 0.0 0
M  V30 16 C 6.4669 4.3152 0.0 0
M  V30 17 C 10.5339 -1.998 0.0 0
M  V30 18 C 10.4038 0.6029 0.0 0
M  V30 19 C 5.6393 5.592 0.0 0
M  V30 20 C 7.9565 4.3979 0.0 0
M  V30 21 N 11.2077 -0.6502 0.0 0
M  V30 22 C 12.6974 -0.5674 0.0 0
M  V30 23 N 13.5013 -1.8206 0.0 0
M  V30 24 C 13.3713 0.7802 0.0 0
M  V30 25 C 14.991 -1.7379 0.0 0
M  V30 26 C 14.8609 0.863 0.0 0
M  V30 27 C 12.8274 2.1989 0.0 0 CFG=1
M  V30 28 N 15.6648 -0.3901 0.0 0
M  V30 29 C 15.2511 2.329 0.0 0 CFG=1
M  V30 30 C 13.986 3.1566 0.0 0
M  V30 31 C 11.3614 2.6127 0.0 0
M  V30 32 O 16.6461 2.8728 0.0 0
M  V30 END ATOM
M  V30 BEGIN BOND
M  V30 1 1 1 2
M  V30 2 2 2 3
M  V30 3 1 2 4
M  V30 4 1 3 5
M  V30 5 2 4 6
M  V30 6 2 5 7
M  V30 7 1 7 8
M  V30 8 1 8 9
M  V30 9 1 8 10 CFG=1
M  V30 10 2 9 11
M  V30 11 1 9 12
M  V30 12 1 10 13
M  V30 13 1 12 14
M  V30 14 1 12 15
M  V30 15 1 13 16
M  V30 16 1 14 17
M  V30 17 1 15 18
M  V30 18 1 16 19
M  V30 19 1 16 20
M  V30 20 1 17 21
M  V30 21 1 21 22
M  V30 22 2 22 23
M  V30 23 1 22 24
M  V30 24 1 23 25
M  V30 25 2 24 26
M  V30 26 1 24 27
M  V30 27 2 25 28
M  V30 28 1 26 29
M  V30 29 1 27 30
M  V30 30 1 27 31 CFG=3
M  V30 31 1 29 32 CFG=1
M  V30 32 1 6 7
M  V30 33 1 18 21
M  V30 34 1 26 28
M  V30 35 1 29 30
M  V30 END BOND
M  V30 BEGIN COLLECTION
M  V30 MDLV30/STEABS ATOMS=(3 8 27 29)
M  V30 END COLLECTION
M  V30 END CTAB
M  END
>  <Compound ID>
104

>  <Name>
GDC-0068

>  <Uniprot>
P31749

>  <Target>
AKT1

>  <Smiles>
CC(C)NC[C@@H](C(=O)N1CCN(C2=NC=NC3=C2[C@H](C)C[C@H]3O)CC1)C1=CC=C(Cl)C=C1

>  <Kd (nM)>


>  <Assay (Kd)>


>  <Ki (nM)>


>  <Assay (Ki)>


>  <IC50 (nM)>
5

>  <Assay (IC50)>
IC50 of AKT1 was tested by fluorescence polarization assay

>  <EC50 (nM)>


>  <Assay (EC50)>


>  <Article DOI>
10.1021/jm301024w

>  <Molecular Weight>
458.006

>  <Exact Mass>
457.224452944

>  <XLogP3>
2.46

>  <Heavy Atom Count>
32

>  <Ring Count>
4

>  <Hydrogen Bond Acceptor Count>
6

>  <Hydrogen Bond Donor Count>
2

>  <Rotatable Bond Count>
6

>  <Topological Polar Surface Area>
81.59

>  <Molecular Formula>
C24H32ClN5O2

>  <InChI>
InChI=1S/C24H32ClN5O2/c1-15(2)26-13-19(17-4-6-18(25)7-5-17)24(32)30-10-8-29(9-11-30)23-21-16(3)12-20(31)22(21)27-14-28-23/h4-7,14-16,19-20,26,31H,8-13H2,1-3H3/t16-,19-,20-/m1/s1

>  <InChI Key>
GRZXWCHAXNAUHY-NSISKUIASA-N

>  <BindingDB>
50398379

>  <PubChem>
24788740

>  <ChEMBL>
CHEMBL2177390

$$$$
Compound 319
Actelion Java MolfileCreator 2.0

  0  0  0  0  0  0              0 V3000
M  V30 BEGIN CTAB
M  V30 COUNTS 32 35 0 0 0
M  V30 BEGIN ATOM
M  V30 1 Cl 0.0 0.0 0.0 0
M  V30 2 C 1.4896 0.0827 0.0 0
M  V30 3 C 2.1635 1.4305 0.0 0
M  V30 4 C 2.2935 -1.1704 0.0 0
M  V30 5 C 3.6531 1.5132 0.0 0
M  V30 6 C 3.7832 -1.0876 0.0 0
M  V30 7 C 4.4571 0.26 0.0 0
M  V30 8 C 5.9467 0.3428 0.0 0 CFG=2
M  V30 9 C 6.7506 -0.9103 0.0 0
M  V30 10 C 6.6206 1.6906 0.0 0
M  V30 11 O 6.0531 -2.2344 0.0 0
M  V30 12 N 8.2403 -0.8275 0.0 0
M  V30 13 N 5.793 2.9674 0.0 0
M  V30 14 C 9.0442 -2.0807 0.0 0
M  V30 15 C 8.9142 0.5201 0.0 0
M  V30 16 C 6.4669 4.3152 0.0 0
M  V30 17 C 10.5339 -1.998 0.0 0
M  V30 18 C 10.4038 0.6029 0.0 0
M  V30 19 C 5.6393 5.592 0.0 0
M  V30 20 C 7.9565 4.3979 0.0 0
M  V30 21 N 11.2077 -0.6502 0.0 0
M  V30 22 C 12.6974 -0.5674 0.0 0
M  V30 23 N 13.5013 -1.8206 0.0 0
M  V30 24 C 13.3713 0.7802 0.0 0
M  V30 25 C 14.991 -1.7379 0.0 0
M  V30 26 C 14.8609 0.863 0.0 0
M  V30 27 C 12.8274 2.1989 0.0 0 CFG=1
M  V30 28 N 15.6648 -0.3901 0.0 0
M  V30 29 C 15.2511 2.329 0.0 0 CFG=1
M  V30 30 C 13.986 3.1566 0.0 0
M  V30 31 C 11.3614 2.6127 0.0 0
M  V30 32 O 16.6461 2.8728 0.0 0
M  V30 END ATOM
M  V30 BEGIN BOND
M  V30 1 1 1 2
M  V30 2 2 2 3
M  V30 3 1 2 4
M  V30 4 1 3 5
M  V30 5 2 4 6
M  V30 6 2 5 7
M  V30 7 1 7 8
M  V30 8 1 8 9
M  V30 9 1 8 10 CFG=1
M  V30 10 2 9 11
M  V30 11 1 9 12
M  V30 12 1 10 13
M  V30 13 1 12 14
M  V30 14 1 12 15
M  V30 15 1 13 16
M  V30 16 1 14 17
M  V30 17 1 15 18
M  V30 18 1 16 19
M  V30 19 1 16 20
M  V30 20 1 17 21
M  V30 21 1 21 22
M  V30 22 2 22 23
M  V30 23 1 22 24
M  V30 24 1 23 25
M  V30 25 2 24 26
M  V30 26 1 24 27
M  V30 27 2 25 28
M  V30 28 1 26 29
M  V30 29 1 27 30
M  V30 30 1 27 31 CFG=3
M  V30 31 1 29 32 CFG=1
M  V30 32 1 6 7
M  V30 33 1 18 21
M  V30 34 1 26 28
M  V30 35 1 29 30
M  V30 END BOND
M  V30 BEGIN COLLECTION
M  V30 MDLV30/STEABS ATOMS=(3 8 27 29)
M  V30 END COLLECTION
M  V30 END CTAB
M  END
>  <Compound ID>
104

>  <Name>
GDC-0068

>  <Uniprot>
P31751

>  <Target>
AKT2

>  <Smiles>
CC(C)NC[C@@H](C(=O)N1CCN(C2=NC=NC3=C2[C@H](C)C[C@H]3O)CC1)C1=CC=C(Cl)C=C1

>  <Kd (nM)>


>  <Assay (Kd)>


>  <Ki (nM)>


>  <Assay (Ki)>


>  <IC50 (nM)>
18

>  <Assay (IC50)>
IC50 of AKT2 was tested by fluorescence polarization assay

>  <EC50 (nM)>


>  <Assay (EC50)>


>  <Article DOI>
10.1021/jm301024w

>  <Molecular Weight>
458.006

>  <Exact Mass>
457.224452944

>  <XLogP3>
2.46

>  <Heavy Atom Count>
32

>  <Ring Count>
4

>  <Hydrogen Bond Acceptor Count>
6

>  <Hydrogen Bond Donor Count>
2

>  <Rotatable Bond Count>
6

>  <Topological Polar Surface Area>
81.59

>  <Molecular Formula>
C24H32ClN5O2

>  <InChI>
InChI=1S/C24H32ClN5O2/c1-15(2)26-13-19(17-4-6-18(25)7-5-17)24(32)30-10-8-29(9-11-30)23-21-16(3)12-20(31)22(21)27-14-28-23/h4-7,14-16,19-20,26,31H,8-13H2,1-3H3/t16-,19-,20-/m1/s1

>  <InChI Key>
GRZXWCHAXNAUHY-NSISKUIASA-N

>  <BindingDB>
50398379

>  <PubChem>
24788740

>  <ChEMBL>
CHEMBL2177390

$$$$
Compound 320
Actelion Java MolfileCreator 2.0

  0  0  0  0  0  0              0 V3000
M  V30 BEGIN CTAB
M  V30 COUNTS 32 35 0 0 0
M  V30 BEGIN ATOM
M  V30 1 Cl 0.0 0.0 0.0 0
M  V30 2 C 1.4896 0.0827 0.0 0
M  V30 3 C 2.1635 1.4305 0.0 0
M  V30 4 C 2.2935 -1.1704 0.0 0
M  V30 5 C 3.6531 1.5132 0.0 0
M  V30 6 C 3.7832 -1.0876 0.0 0
M  V30 7 C 4.4571 0.26 0.0 0
M  V30 8 C 5.9467 0.3428 0.0 0 CFG=2
M  V30 9 C 6.7506 -0.9103 0.0 0
M  V30 10 C 6.6206 1.6906 0.0 0
M  V30 11 O 6.0531 -2.2344 0.0 0
M  V30 12 N 8.2403 -0.8275 0.0 0
M  V30 13 N 5.793 2.9674 0.0 0
M  V30 14 C 9.0442 -2.0807 0.0 0
M  V30 15 C 8.9142 0.5201 0.0 0
M  V30 16 C 6.4669 4.3152 0.0 0
M  V30 17 C 10.5339 -1.998 0.0 0
M  V30 18 C 10.4038 0.6029 0.0 0
M  V30 19 C 5.6393 5.592 0.0 0
M  V30 20 C 7.9565 4.3979 0.0 0
M  V30 21 N 11.2077 -0.6502 0.0 0
M  V30 22 C 12.6974 -0.5674 0.0 0
M  V30 23 N 13.5013 -1.8206 0.0 0
M  V30 24 C 13.3713 0.7802 0.0 0
M  V30 25 C 14.991 -1.7379 0.0 0
M  V30 26 C 14.8609 0.863 0.0 0
M  V30 27 C 12.8274 2.1989 0.0 0 CFG=1
M  V30 28 N 15.6648 -0.3901 0.0 0
M  V30 29 C 15.2511 2.329 0.0 0 CFG=1
M  V30 30 C 13.986 3.1566 0.0 0
M  V30 31 C 11.3614 2.6127 0.0 0
M  V30 32 O 16.6461 2.8728 0.0 0
M  V30 END ATOM
M  V30 BEGIN BOND
M  V30 1 1 1 2
M  V30 2 2 2 3
M  V30 3 1 2 4
M  V30 4 1 3 5
M  V30 5 2 4 6
M  V30 6 2 5 7
M  V30 7 1 7 8
M  V30 8 1 8 9
M  V30 9 1 8 10 CFG=1
M  V30 10 2 9 11
M  V30 11 1 9 12
M  V30 12 1 10 13
M  V30 13 1 12 14
M  V30 14 1 12 15
M  V30 15 1 13 16
M  V30 16 1 14 17
M  V30 17 1 15 18
M  V30 18 1 16 19
M  V30 19 1 16 20
M  V30 20 1 17 21
M  V30 21 1 21 22
M  V30 22 2 22 23
M  V30 23 1 22 24
M  V30 24 1 23 25
M  V30 25 2 24 26
M  V30 26 1 24 27
M  V30 27 2 25 28
M  V30 28 1 26 29
M  V30 29 1 27 30
M  V30 30 1 27 31 CFG=3
M  V30 31 1 29 32 CFG=1
M  V30 32 1 6 7
M  V30 33 1 18 21
M  V30 34 1 26 28
M  V30 35 1 29 30
M  V30 END BOND
M  V30 BEGIN COLLECTION
M  V30 MDLV30/STEABS ATOMS=(3 8 27 29)
M  V30 END COLLECTION
M  V30 END CTAB
M  END
>  <Compound ID>
104

>  <Name>
GDC-0068

>  <Uniprot>
Q9Y243

>  <Target>
AKT3

>  <Smiles>
CC(C)NC[C@@H](C(=O)N1CCN(C2=NC=NC3=C2[C@H](C)C[C@H]3O)CC1)C1=CC=C(Cl)C=C1

>  <Kd (nM)>


>  <Assay (Kd)>


>  <Ki (nM)>


>  <Assay (Ki)>


>  <IC50 (nM)>
8

>  <Assay (IC50)>
IC50 of AKT3 was tested by fluorescence polarization assay

>  <EC50 (nM)>


>  <Assay (EC50)>


>  <Article DOI>
10.1021/jm301024w

>  <Molecular Weight>
458.006

>  <Exact Mass>
457.224452944

>  <XLogP3>
2.46

>  <Heavy Atom Count>
32

>  <Ring Count>
4

>  <Hydrogen Bond Acceptor Count>
6

>  <Hydrogen Bond Donor Count>
2

>  <Rotatable Bond Count>
6

>  <Topological Polar Surface Area>
81.59

>  <Molecular Formula>
C24H32ClN5O2

>  <InChI>
InChI=1S/C24H32ClN5O2/c1-15(2)26-13-19(17-4-6-18(25)7-5-17)24(32)30-10-8-29(9-11-30)23-21-16(3)12-20(31)22(21)27-14-28-23/h4-7,14-16,19-20,26,31H,8-13H2,1-3H3/t16-,19-,20-/m1/s1

>  <InChI Key>
GRZXWCHAXNAUHY-NSISKUIASA-N

>  <BindingDB>
50398379

>  <PubChem>
24788740

>  <ChEMBL>
CHEMBL2177390

$$$$
Compound 321
Actelion Java MolfileCreator 2.0

  0  0  0  0  0  0              0 V3000
M  V30 BEGIN CTAB
M  V30 COUNTS 32 35 0 0 0
M  V30 BEGIN ATOM
M  V30 1 Cl 0.0 0.0 0.0 0
M  V30 2 C 1.4896 0.0827 0.0 0
M  V30 3 C 2.1635 1.4305 0.0 0
M  V30 4 C 2.2935 -1.1704 0.0 0
M  V30 5 C 3.6531 1.5132 0.0 0
M  V30 6 C 3.7832 -1.0876 0.0 0
M  V30 7 C 4.4571 0.26 0.0 0
M  V30 8 C 5.9467 0.3428 0.0 0 CFG=2
M  V30 9 C 6.7506 -0.9103 0.0 0
M  V30 10 C 6.6206 1.6906 0.0 0
M  V30 11 O 6.0531 -2.2344 0.0 0
M  V30 12 N 8.2403 -0.8275 0.0 0
M  V30 13 N 5.793 2.9674 0.0 0
M  V30 14 C 9.0442 -2.0807 0.0 0
M  V30 15 C 8.9142 0.5201 0.0 0
M  V30 16 C 6.4669 4.3152 0.0 0
M  V30 17 C 10.5339 -1.998 0.0 0
M  V30 18 C 10.4038 0.6029 0.0 0
M  V30 19 C 5.6393 5.592 0.0 0
M  V30 20 C 7.9565 4.3979 0.0 0
M  V30 21 N 11.2077 -0.6502 0.0 0
M  V30 22 C 12.6974 -0.5674 0.0 0
M  V30 23 N 13.5013 -1.8206 0.0 0
M  V30 24 C 13.3713 0.7802 0.0 0
M  V30 25 C 14.991 -1.7379 0.0 0
M  V30 26 C 14.8609 0.863 0.0 0
M  V30 27 C 12.8274 2.1989 0.0 0 CFG=1
M  V30 28 N 15.6648 -0.3901 0.0 0
M  V30 29 C 15.2511 2.329 0.0 0 CFG=1
M  V30 30 C 13.986 3.1566 0.0 0
M  V30 31 C 11.3614 2.6127 0.0 0
M  V30 32 O 16.6461 2.8728 0.0 0
M  V30 END ATOM
M  V30 BEGIN BOND
M  V30 1 1 1 2
M  V30 2 2 2 3
M  V30 3 1 2 4
M  V30 4 1 3 5
M  V30 5 2 4 6
M  V30 6 2 5 7
M  V30 7 1 7 8
M  V30 8 1 8 9
M  V30 9 1 8 10 CFG=1
M  V30 10 2 9 11
M  V30 11 1 9 12
M  V30 12 1 10 13
M  V30 13 1 12 14
M  V30 14 1 12 15
M  V30 15 1 13 16
M  V30 16 1 14 17
M  V30 17 1 15 18
M  V30 18 1 16 19
M  V30 19 1 16 20
M  V30 20 1 17 21
M  V30 21 1 21 22
M  V30 22 2 22 23
M  V30 23 1 22 24
M  V30 24 1 23 25
M  V30 25 2 24 26
M  V30 26 1 24 27
M  V30 27 2 25 28
M  V30 28 1 26 29
M  V30 29 1 27 30
M  V30 30 1 27 31 CFG=3
M  V30 31 1 29 32 CFG=1
M  V30 32 1 6 7
M  V30 33 1 18 21
M  V30 34 1 26 28
M  V30 35 1 29 30
M  V30 END BOND
M  V30 BEGIN COLLECTION
M  V30 MDLV30/STEABS ATOMS=(3 8 27 29)
M  V30 END COLLECTION
M  V30 END CTAB
M  END
>  <Compound ID>
104

>  <Name>
GDC-0068

>  <Uniprot>
O14874

>  <Target>
BCKDK

>  <Smiles>
CC(C)NC[C@@H](C(=O)N1CCN(C2=NC=NC3=C2[C@H](C)C[C@H]3O)CC1)C1=CC=C(Cl)C=C1

>  <Kd (nM)>


>  <Assay (Kd)>


>  <Ki (nM)>


>  <Assay (Ki)>


>  <IC50 (nM)>


>  <Assay (IC50)>


>  <EC50 (nM)>


>  <Assay (EC50)>


>  <Article DOI>
10.1016/j.cell.2020.10.038

>  <Molecular Weight>
458.006

>  <Exact Mass>
457.224452944

>  <XLogP3>
2.46

>  <Heavy Atom Count>
32

>  <Ring Count>
4

>  <Hydrogen Bond Acceptor Count>
6

>  <Hydrogen Bond Donor Count>
2

>  <Rotatable Bond Count>
6

>  <Topological Polar Surface Area>
81.59

>  <Molecular Formula>
C24H32ClN5O2

>  <InChI>
InChI=1S/C24H32ClN5O2/c1-15(2)26-13-19(17-4-6-18(25)7-5-17)24(32)30-10-8-29(9-11-30)23-21-16(3)12-20(31)22(21)27-14-28-23/h4-7,14-16,19-20,26,31H,8-13H2,1-3H3/t16-,19-,20-/m1/s1

>  <InChI Key>
GRZXWCHAXNAUHY-NSISKUIASA-N

>  <BindingDB>
50398379

>  <PubChem>
24788740

>  <ChEMBL>
CHEMBL2177390

$$$$
Compound 322
Actelion Java MolfileCreator 2.0

  0  0  0  0  0  0              0 V3000
M  V30 BEGIN CTAB
M  V30 COUNTS 32 35 0 0 0
M  V30 BEGIN ATOM
M  V30 1 Cl 0.0 0.0 0.0 0
M  V30 2 C 1.4896 0.0827 0.0 0
M  V30 3 C 2.1635 1.4305 0.0 0
M  V30 4 C 2.2935 -1.1704 0.0 0
M  V30 5 C 3.6531 1.5132 0.0 0
M  V30 6 C 3.7832 -1.0876 0.0 0
M  V30 7 C 4.4571 0.26 0.0 0
M  V30 8 C 5.9467 0.3428 0.0 0 CFG=2
M  V30 9 C 6.7506 -0.9103 0.0 0
M  V30 10 C 6.6206 1.6906 0.0 0
M  V30 11 O 6.0531 -2.2344 0.0 0
M  V30 12 N 8.2403 -0.8275 0.0 0
M  V30 13 N 5.793 2.9674 0.0 0
M  V30 14 C 9.0442 -2.0807 0.0 0
M  V30 15 C 8.9142 0.5201 0.0 0
M  V30 16 C 6.4669 4.3152 0.0 0
M  V30 17 C 10.5339 -1.998 0.0 0
M  V30 18 C 10.4038 0.6029 0.0 0
M  V30 19 C 5.6393 5.592 0.0 0
M  V30 20 C 7.9565 4.3979 0.0 0
M  V30 21 N 11.2077 -0.6502 0.0 0
M  V30 22 C 12.6974 -0.5674 0.0 0
M  V30 23 N 13.5013 -1.8206 0.0 0
M  V30 24 C 13.3713 0.7802 0.0 0
M  V30 25 C 14.991 -1.7379 0.0 0
M  V30 26 C 14.8609 0.863 0.0 0
M  V30 27 C 12.8274 2.1989 0.0 0 CFG=1
M  V30 28 N 15.6648 -0.3901 0.0 0
M  V30 29 C 15.2511 2.329 0.0 0 CFG=1
M  V30 30 C 13.986 3.1566 0.0 0
M  V30 31 C 11.3614 2.6127 0.0 0
M  V30 32 O 16.6461 2.8728 0.0 0
M  V30 END ATOM
M  V30 BEGIN BOND
M  V30 1 1 1 2
M  V30 2 2 2 3
M  V30 3 1 2 4
M  V30 4 1 3 5
M  V30 5 2 4 6
M  V30 6 2 5 7
M  V30 7 1 7 8
M  V30 8 1 8 9
M  V30 9 1 8 10 CFG=1
M  V30 10 2 9 11
M  V30 11 1 9 12
M  V30 12 1 10 13
M  V30 13 1 12 14
M  V30 14 1 12 15
M  V30 15 1 13 16
M  V30 16 1 14 17
M  V30 17 1 15 18
M  V30 18 1 16 19
M  V30 19 1 16 20
M  V30 20 1 17 21
M  V30 21 1 21 22
M  V30 22 2 22 23
M  V30 23 1 22 24
M  V30 24 1 23 25
M  V30 25 2 24 26
M  V30 26 1 24 27
M  V30 27 2 25 28
M  V30 28 1 26 29
M  V30 29 1 27 30
M  V30 30 1 27 31 CFG=3
M  V30 31 1 29 32 CFG=1
M  V30 32 1 6 7
M  V30 33 1 18 21
M  V30 34 1 26 28
M  V30 35 1 29 30
M  V30 END BOND
M  V30 BEGIN COLLECTION
M  V30 MDLV30/STEABS ATOMS=(3 8 27 29)
M  V30 END COLLECTION
M  V30 END CTAB
M  END
>  <Compound ID>
104

>  <Name>
GDC-0068

>  <Uniprot>
P11802

>  <Target>
CDK4

>  <Smiles>
CC(C)NC[C@@H](C(=O)N1CCN(C2=NC=NC3=C2[C@H](C)C[C@H]3O)CC1)C1=CC=C(Cl)C=C1

>  <Kd (nM)>


>  <Assay (Kd)>


>  <Ki (nM)>


>  <Assay (Ki)>


>  <IC50 (nM)>


>  <Assay (IC50)>


>  <EC50 (nM)>


>  <Assay (EC50)>


>  <Article DOI>
10.1016/j.cell.2020.10.038

>  <Molecular Weight>
458.006

>  <Exact Mass>
457.224452944

>  <XLogP3>
2.46

>  <Heavy Atom Count>
32

>  <Ring Count>
4

>  <Hydrogen Bond Acceptor Count>
6

>  <Hydrogen Bond Donor Count>
2

>  <Rotatable Bond Count>
6

>  <Topological Polar Surface Area>
81.59

>  <Molecular Formula>
C24H32ClN5O2

>  <InChI>
InChI=1S/C24H32ClN5O2/c1-15(2)26-13-19(17-4-6-18(25)7-5-17)24(32)30-10-8-29(9-11-30)23-21-16(3)12-20(31)22(21)27-14-28-23/h4-7,14-16,19-20,26,31H,8-13H2,1-3H3/t16-,19-,20-/m1/s1

>  <InChI Key>
GRZXWCHAXNAUHY-NSISKUIASA-N

>  <BindingDB>
50398379

>  <PubChem>
24788740

>  <ChEMBL>
CHEMBL2177390

$$$$
Compound 323
Actelion Java MolfileCreator 2.0

  0  0  0  0  0  0              0 V3000
M  V30 BEGIN CTAB
M  V30 COUNTS 32 35 0 0 0
M  V30 BEGIN ATOM
M  V30 1 Cl 0.0 0.0 0.0 0
M  V30 2 C 1.4896 0.0827 0.0 0
M  V30 3 C 2.1635 1.4305 0.0 0
M  V30 4 C 2.2935 -1.1704 0.0 0
M  V30 5 C 3.6531 1.5132 0.0 0
M  V30 6 C 3.7832 -1.0876 0.0 0
M  V30 7 C 4.4571 0.26 0.0 0
M  V30 8 C 5.9467 0.3428 0.0 0 CFG=2
M  V30 9 C 6.7506 -0.9103 0.0 0
M  V30 10 C 6.6206 1.6906 0.0 0
M  V30 11 O 6.0531 -2.2344 0.0 0
M  V30 12 N 8.2403 -0.8275 0.0 0
M  V30 13 N 5.793 2.9674 0.0 0
M  V30 14 C 9.0442 -2.0807 0.0 0
M  V30 15 C 8.9142 0.5201 0.0 0
M  V30 16 C 6.4669 4.3152 0.0 0
M  V30 17 C 10.5339 -1.998 0.0 0
M  V30 18 C 10.4038 0.6029 0.0 0
M  V30 19 C 5.6393 5.592 0.0 0
M  V30 20 C 7.9565 4.3979 0.0 0
M  V30 21 N 11.2077 -0.6502 0.0 0
M  V30 22 C 12.6974 -0.5674 0.0 0
M  V30 23 N 13.5013 -1.8206 0.0 0
M  V30 24 C 13.3713 0.7802 0.0 0
M  V30 25 C 14.991 -1.7379 0.0 0
M  V30 26 C 14.8609 0.863 0.0 0
M  V30 27 C 12.8274 2.1989 0.0 0 CFG=1
M  V30 28 N 15.6648 -0.3901 0.0 0
M  V30 29 C 15.2511 2.329 0.0 0 CFG=1
M  V30 30 C 13.986 3.1566 0.0 0
M  V30 31 C 11.3614 2.6127 0.0 0
M  V30 32 O 16.6461 2.8728 0.0 0
M  V30 END ATOM
M  V30 BEGIN BOND
M  V30 1 1 1 2
M  V30 2 2 2 3
M  V30 3 1 2 4
M  V30 4 1 3 5
M  V30 5 2 4 6
M  V30 6 2 5 7
M  V30 7 1 7 8
M  V30 8 1 8 9
M  V30 9 1 8 10 CFG=1
M  V30 10 2 9 11
M  V30 11 1 9 12
M  V30 12 1 10 13
M  V30 13 1 12 14
M  V30 14 1 12 15
M  V30 15 1 13 16
M  V30 16 1 14 17
M  V30 17 1 15 18
M  V30 18 1 16 19
M  V30 19 1 16 20
M  V30 20 1 17 21
M  V30 21 1 21 22
M  V30 22 2 22 23
M  V30 23 1 22 24
M  V30 24 1 23 25
M  V30 25 2 24 26
M  V30 26 1 24 27
M  V30 27 2 25 28
M  V30 28 1 26 29
M  V30 29 1 27 30
M  V30 30 1 27 31 CFG=3
M  V30 31 1 29 32 CFG=1
M  V30 32 1 6 7
M  V30 33 1 18 21
M  V30 34 1 26 28
M  V30 35 1 29 30
M  V30 END BOND
M  V30 BEGIN COLLECTION
M  V30 MDLV30/STEABS ATOMS=(3 8 27 29)
M  V30 END COLLECTION
M  V30 END CTAB
M  END
>  <Compound ID>
104

>  <Name>
GDC-0068

>  <Uniprot>
Q16659

>  <Target>
MAPK6

>  <Smiles>
CC(C)NC[C@@H](C(=O)N1CCN(C2=NC=NC3=C2[C@H](C)C[C@H]3O)CC1)C1=CC=C(Cl)C=C1

>  <Kd (nM)>


>  <Assay (Kd)>


>  <Ki (nM)>


>  <Assay (Ki)>


>  <IC50 (nM)>


>  <Assay (IC50)>


>  <EC50 (nM)>


>  <Assay (EC50)>


>  <Article DOI>
10.1016/j.cell.2020.10.038

>  <Molecular Weight>
458.006

>  <Exact Mass>
457.224452944

>  <XLogP3>
2.46

>  <Heavy Atom Count>
32

>  <Ring Count>
4

>  <Hydrogen Bond Acceptor Count>
6

>  <Hydrogen Bond Donor Count>
2

>  <Rotatable Bond Count>
6

>  <Topological Polar Surface Area>
81.59

>  <Molecular Formula>
C24H32ClN5O2

>  <InChI>
InChI=1S/C24H32ClN5O2/c1-15(2)26-13-19(17-4-6-18(25)7-5-17)24(32)30-10-8-29(9-11-30)23-21-16(3)12-20(31)22(21)27-14-28-23/h4-7,14-16,19-20,26,31H,8-13H2,1-3H3/t16-,19-,20-/m1/s1

>  <InChI Key>
GRZXWCHAXNAUHY-NSISKUIASA-N

>  <BindingDB>
50398379

>  <PubChem>
24788740

>  <ChEMBL>
CHEMBL2177390

$$$$
Compound 324
Actelion Java MolfileCreator 2.0

  0  0  0  0  0  0              0 V3000
M  V30 BEGIN CTAB
M  V30 COUNTS 32 35 0 0 0
M  V30 BEGIN ATOM
M  V30 1 Cl 0.0 0.0 0.0 0
M  V30 2 C 1.4896 0.0827 0.0 0
M  V30 3 C 2.1635 1.4305 0.0 0
M  V30 4 C 2.2935 -1.1704 0.0 0
M  V30 5 C 3.6531 1.5132 0.0 0
M  V30 6 C 3.7832 -1.0876 0.0 0
M  V30 7 C 4.4571 0.26 0.0 0
M  V30 8 C 5.9467 0.3428 0.0 0 CFG=2
M  V30 9 C 6.7506 -0.9103 0.0 0
M  V30 10 C 6.6206 1.6906 0.0 0
M  V30 11 O 6.0531 -2.2344 0.0 0
M  V30 12 N 8.2403 -0.8275 0.0 0
M  V30 13 N 5.793 2.9674 0.0 0
M  V30 14 C 9.0442 -2.0807 0.0 0
M  V30 15 C 8.9142 0.5201 0.0 0
M  V30 16 C 6.4669 4.3152 0.0 0
M  V30 17 C 10.5339 -1.998 0.0 0
M  V30 18 C 10.4038 0.6029 0.0 0
M  V30 19 C 5.6393 5.592 0.0 0
M  V30 20 C 7.9565 4.3979 0.0 0
M  V30 21 N 11.2077 -0.6502 0.0 0
M  V30 22 C 12.6974 -0.5674 0.0 0
M  V30 23 N 13.5013 -1.8206 0.0 0
M  V30 24 C 13.3713 0.7802 0.0 0
M  V30 25 C 14.991 -1.7379 0.0 0
M  V30 26 C 14.8609 0.863 0.0 0
M  V30 27 C 12.8274 2.1989 0.0 0 CFG=1
M  V30 28 N 15.6648 -0.3901 0.0 0
M  V30 29 C 15.2511 2.329 0.0 0 CFG=1
M  V30 30 C 13.986 3.1566 0.0 0
M  V30 31 C 11.3614 2.6127 0.0 0
M  V30 32 O 16.6461 2.8728 0.0 0
M  V30 END ATOM
M  V30 BEGIN BOND
M  V30 1 1 1 2
M  V30 2 2 2 3
M  V30 3 1 2 4
M  V30 4 1 3 5
M  V30 5 2 4 6
M  V30 6 2 5 7
M  V30 7 1 7 8
M  V30 8 1 8 9
M  V30 9 1 8 10 CFG=1
M  V30 10 2 9 11
M  V30 11 1 9 12
M  V30 12 1 10 13
M  V30 13 1 12 14
M  V30 14 1 12 15
M  V30 15 1 13 16
M  V30 16 1 14 17
M  V30 17 1 15 18
M  V30 18 1 16 19
M  V30 19 1 16 20
M  V30 20 1 17 21
M  V30 21 1 21 22
M  V30 22 2 22 23
M  V30 23 1 22 24
M  V30 24 1 23 25
M  V30 25 2 24 26
M  V30 26 1 24 27
M  V30 27 2 25 28
M  V30 28 1 26 29
M  V30 29 1 27 30
M  V30 30 1 27 31 CFG=3
M  V30 31 1 29 32 CFG=1
M  V30 32 1 6 7
M  V30 33 1 18 21
M  V30 34 1 26 28
M  V30 35 1 29 30
M  V30 END BOND
M  V30 BEGIN COLLECTION
M  V30 MDLV30/STEABS ATOMS=(3 8 27 29)
M  V30 END COLLECTION
M  V30 END CTAB
M  END
>  <Compound ID>
104

>  <Name>
GDC-0068

>  <Uniprot>
Q15118

>  <Target>
PDK1

>  <Smiles>
CC(C)NC[C@@H](C(=O)N1CCN(C2=NC=NC3=C2[C@H](C)C[C@H]3O)CC1)C1=CC=C(Cl)C=C1

>  <Kd (nM)>


>  <Assay (Kd)>


>  <Ki (nM)>


>  <Assay (Ki)>


>  <IC50 (nM)>


>  <Assay (IC50)>


>  <EC50 (nM)>


>  <Assay (EC50)>


>  <Article DOI>
10.1016/j.cell.2020.10.038

>  <Molecular Weight>
458.006

>  <Exact Mass>
457.224452944

>  <XLogP3>
2.46

>  <Heavy Atom Count>
32

>  <Ring Count>
4

>  <Hydrogen Bond Acceptor Count>
6

>  <Hydrogen Bond Donor Count>
2

>  <Rotatable Bond Count>
6

>  <Topological Polar Surface Area>
81.59

>  <Molecular Formula>
C24H32ClN5O2

>  <InChI>
InChI=1S/C24H32ClN5O2/c1-15(2)26-13-19(17-4-6-18(25)7-5-17)24(32)30-10-8-29(9-11-30)23-21-16(3)12-20(31)22(21)27-14-28-23/h4-7,14-16,19-20,26,31H,8-13H2,1-3H3/t16-,19-,20-/m1/s1

>  <InChI Key>
GRZXWCHAXNAUHY-NSISKUIASA-N

>  <BindingDB>
50398379

>  <PubChem>
24788740

>  <ChEMBL>
CHEMBL2177390

$$$$
Compound 325
Actelion Java MolfileCreator 2.0

  0  0  0  0  0  0              0 V3000
M  V30 BEGIN CTAB
M  V30 COUNTS 32 35 0 0 0
M  V30 BEGIN ATOM
M  V30 1 Cl 0.0 0.0 0.0 0
M  V30 2 C 1.4896 0.0827 0.0 0
M  V30 3 C 2.1635 1.4305 0.0 0
M  V30 4 C 2.2935 -1.1704 0.0 0
M  V30 5 C 3.6531 1.5132 0.0 0
M  V30 6 C 3.7832 -1.0876 0.0 0
M  V30 7 C 4.4571 0.26 0.0 0
M  V30 8 C 5.9467 0.3428 0.0 0 CFG=2
M  V30 9 C 6.7506 -0.9103 0.0 0
M  V30 10 C 6.6206 1.6906 0.0 0
M  V30 11 O 6.0531 -2.2344 0.0 0
M  V30 12 N 8.2403 -0.8275 0.0 0
M  V30 13 N 5.793 2.9674 0.0 0
M  V30 14 C 9.0442 -2.0807 0.0 0
M  V30 15 C 8.9142 0.5201 0.0 0
M  V30 16 C 6.4669 4.3152 0.0 0
M  V30 17 C 10.5339 -1.998 0.0 0
M  V30 18 C 10.4038 0.6029 0.0 0
M  V30 19 C 5.6393 5.592 0.0 0
M  V30 20 C 7.9565 4.3979 0.0 0
M  V30 21 N 11.2077 -0.6502 0.0 0
M  V30 22 C 12.6974 -0.5674 0.0 0
M  V30 23 N 13.5013 -1.8206 0.0 0
M  V30 24 C 13.3713 0.7802 0.0 0
M  V30 25 C 14.991 -1.7379 0.0 0
M  V30 26 C 14.8609 0.863 0.0 0
M  V30 27 C 12.8274 2.1989 0.0 0 CFG=1
M  V30 28 N 15.6648 -0.3901 0.0 0
M  V30 29 C 15.2511 2.329 0.0 0 CFG=1
M  V30 30 C 13.986 3.1566 0.0 0
M  V30 31 C 11.3614 2.6127 0.0 0
M  V30 32 O 16.6461 2.8728 0.0 0
M  V30 END ATOM
M  V30 BEGIN BOND
M  V30 1 1 1 2
M  V30 2 2 2 3
M  V30 3 1 2 4
M  V30 4 1 3 5
M  V30 5 2 4 6
M  V30 6 2 5 7
M  V30 7 1 7 8
M  V30 8 1 8 9
M  V30 9 1 8 10 CFG=1
M  V30 10 2 9 11
M  V30 11 1 9 12
M  V30 12 1 10 13
M  V30 13 1 12 14
M  V30 14 1 12 15
M  V30 15 1 13 16
M  V30 16 1 14 17
M  V30 17 1 15 18
M  V30 18 1 16 19
M  V30 19 1 16 20
M  V30 20 1 17 21
M  V30 21 1 21 22
M  V30 22 2 22 23
M  V30 23 1 22 24
M  V30 24 1 23 25
M  V30 25 2 24 26
M  V30 26 1 24 27
M  V30 27 2 25 28
M  V30 28 1 26 29
M  V30 29 1 27 30
M  V30 30 1 27 31 CFG=3
M  V30 31 1 29 32 CFG=1
M  V30 32 1 6 7
M  V30 33 1 18 21
M  V30 34 1 26 28
M  V30 35 1 29 30
M  V30 END BOND
M  V30 BEGIN COLLECTION
M  V30 MDLV30/STEABS ATOMS=(3 8 27 29)
M  V30 END COLLECTION
M  V30 END CTAB
M  END
>  <Compound ID>
104

>  <Name>
GDC-0068

>  <Uniprot>
Q9UEE5

>  <Target>
STK17A

>  <Smiles>
CC(C)NC[C@@H](C(=O)N1CCN(C2=NC=NC3=C2[C@H](C)C[C@H]3O)CC1)C1=CC=C(Cl)C=C1

>  <Kd (nM)>


>  <Assay (Kd)>


>  <Ki (nM)>


>  <Assay (Ki)>


>  <IC50 (nM)>


>  <Assay (IC50)>


>  <EC50 (nM)>


>  <Assay (EC50)>


>  <Article DOI>
10.1016/j.cell.2020.10.038

>  <Molecular Weight>
458.006

>  <Exact Mass>
457.224452944

>  <XLogP3>
2.46

>  <Heavy Atom Count>
32

>  <Ring Count>
4

>  <Hydrogen Bond Acceptor Count>
6

>  <Hydrogen Bond Donor Count>
2

>  <Rotatable Bond Count>
6

>  <Topological Polar Surface Area>
81.59

>  <Molecular Formula>
C24H32ClN5O2

>  <InChI>
InChI=1S/C24H32ClN5O2/c1-15(2)26-13-19(17-4-6-18(25)7-5-17)24(32)30-10-8-29(9-11-30)23-21-16(3)12-20(31)22(21)27-14-28-23/h4-7,14-16,19-20,26,31H,8-13H2,1-3H3/t16-,19-,20-/m1/s1

>  <InChI Key>
GRZXWCHAXNAUHY-NSISKUIASA-N

>  <BindingDB>
50398379

>  <PubChem>
24788740

>  <ChEMBL>
CHEMBL2177390

$$$$
Compound 326
Actelion Java MolfileCreator 2.0

  0  0  0  0  0  0              0 V3000
M  V30 BEGIN CTAB
M  V30 COUNTS 33 37 0 0 0
M  V30 BEGIN ATOM
M  V30 1 Cl 0.0 0.0 0.0 0
M  V30 2 C -0.256 -1.4665 0.0 0
M  V30 3 C 0.8961 -2.4092 0.0 0
M  V30 4 C -1.6643 -1.9786 0.0 0
M  V30 5 C 0.6401 -3.8757 0.0 0
M  V30 6 C 2.2812 -1.8738 0.0 0
M  V30 7 C -1.9204 -3.4451 0.0 0
M  V30 8 F 1.7923 -4.8185 0.0 0
M  V30 9 C -0.7681 -4.3878 0.0 0
M  V30 10 C 2.514 -0.384 0.0 0
M  V30 11 C 3.4334 -2.8166 0.0 0
M  V30 12 C -3.3287 -3.9572 0.0 0
M  V30 13 N -1.0242 -5.8543 0.0 0
M  V30 14 C 3.899 0.1513 0.0 0
M  V30 15 C 1.3384 0.5819 0.0 0
M  V30 16 C 4.8185 -2.2812 0.0 0
M  V30 17 N -3.5847 -5.4237 0.0 0
M  V30 18 N -4.5042 -2.9911 0.0 0
M  V30 19 C -2.4325 -6.3664 0.0 0
M  V30 20 C 5.0512 -0.7914 0.0 0
M  V30 21 C 4.1318 1.641 0.0 0
M  V30 22 C 1.5712 2.0717 0.0 0
M  V30 23 O 5.9707 -3.2239 0.0 0
M  V30 24 C -4.2714 -1.5014 0.0 0
M  V30 25 C -5.9125 -3.5033 0.0 0
M  V30 26 C 2.9562 2.6071 0.0 0
M  V30 27 C -5.447 -0.5353 0.0 0
M  V30 28 C -7.088 -2.5372 0.0 0
M  V30 29 N -6.8553 -1.0475 0.0 0
M  V30 30 C -8.0308 -0.0814 0.0 0
M  V30 31 O -9.4391 -0.5935 0.0 0
M  V30 32 C -7.798 1.4083 0.0 0
M  V30 33 C -8.9735 2.3743 0.0 0
M  V30 END ATOM
M  V30 BEGIN BOND
M  V30 1 1 1 2
M  V30 2 1 3 2 CFG=3
M  V30 3 2 2 4
M  V30 4 2 3 5
M  V30 5 1 3 6
M  V30 6 1 4 7
M  V30 7 1 5 8
M  V30 8 1 5 9
M  V30 9 1 6 10
M  V30 10 2 6 11
M  V30 11 2 7 12
M  V30 12 2 9 13
M  V30 13 1 10 14
M  V30 14 2 10 15
M  V30 15 1 11 16
M  V30 16 1 12 17
M  V30 17 1 12 18
M  V30 18 1 13 19
M  V30 19 1 14 20
M  V30 20 2 14 21
M  V30 21 1 15 22
M  V30 22 1 16 23
M  V30 23 1 18 24
M  V30 24 1 18 25
M  V30 25 1 21 26
M  V30 26 1 24 27
M  V30 27 1 25 28
M  V30 28 1 27 29
M  V30 29 1 29 30
M  V30 30 2 30 31
M  V30 31 1 30 32
M  V30 32 2 32 33
M  V30 33 1 7 9
M  V30 34 2 16 20
M  V30 35 2 17 19
M  V30 36 2 22 26
M  V30 37 1 28 29
M  V30 END BOND
M  V30 BEGIN COLLECTION
M  V30 MDLV30/STERAC1 BONDS=(1 5)
M  V30 END COLLECTION
M  V30 END CTAB
M  END
>  <Compound ID>
105

>  <Name>


>  <Uniprot>
P01116

>  <Target>
KRAS G12C

>  <Smiles>
C=CC(=O)N1CCN(C2=NC=NC3=C(F)C(C4=CC(O)=CC5=CC=CC=C45)=C(Cl)C=C23)CC1

>  <Kd (nM)>


>  <Assay (Kd)>


>  <Ki (nM)>


>  <Assay (Ki)>


>  <IC50 (nM)>


>  <Assay (IC50)>


>  <EC50 (nM)>


>  <Assay (EC50)>


>  <Article DOI>


>  <Molecular Weight>
462.912

>  <Exact Mass>
462.12588178

>  <XLogP3>
5.11

>  <Heavy Atom Count>
33

>  <Ring Count>
5

>  <Hydrogen Bond Acceptor Count>
5

>  <Hydrogen Bond Donor Count>
1

>  <Rotatable Bond Count>
3

>  <Topological Polar Surface Area>
69.56

>  <Molecular Formula>
C25H20ClFN4O2

>  <InChI>
InChI=1S/C25H20ClFN4O2/c1-2-21(33)30-7-9-31(10-8-30)25-19-13-20(26)22(23(27)24(19)28-14-29-25)18-12-16(32)11-15-5-3-4-6-17(15)18/h2-6,11-14,32H,1,7-10H2

>  <InChI Key>
JIPIHCUZVBBERR-UHFFFAOYSA-N

>  <BindingDB>


>  <PubChem>
118019082

>  <ChEMBL>


$$$$
Compound 327
Actelion Java MolfileCreator 2.0

  0  0  0  0  0  0              0 V3000
M  V30 BEGIN CTAB
M  V30 COUNTS 33 37 0 0 0
M  V30 BEGIN ATOM
M  V30 1 Cl 0.0 0.0 0.0 0
M  V30 2 C -0.256 -1.4665 0.0 0
M  V30 3 C 0.8961 -2.4092 0.0 0
M  V30 4 C -1.6643 -1.9786 0.0 0
M  V30 5 C 0.6401 -3.8757 0.0 0
M  V30 6 C 2.2812 -1.8738 0.0 0
M  V30 7 C -1.9204 -3.4451 0.0 0
M  V30 8 F 1.7923 -4.8185 0.0 0
M  V30 9 C -0.7681 -4.3878 0.0 0
M  V30 10 C 2.514 -0.384 0.0 0
M  V30 11 C 3.4334 -2.8166 0.0 0
M  V30 12 C -3.3287 -3.9572 0.0 0
M  V30 13 N -1.0242 -5.8543 0.0 0
M  V30 14 C 3.899 0.1513 0.0 0
M  V30 15 C 1.3384 0.5819 0.0 0
M  V30 16 C 4.8185 -2.2812 0.0 0
M  V30 17 N -3.5847 -5.4237 0.0 0
M  V30 18 N -4.5042 -2.9911 0.0 0
M  V30 19 C -2.4325 -6.3664 0.0 0
M  V30 20 C 5.0512 -0.7914 0.0 0
M  V30 21 C 4.1318 1.641 0.0 0
M  V30 22 C 1.5712 2.0717 0.0 0
M  V30 23 O 5.9707 -3.2239 0.0 0
M  V30 24 C -4.2714 -1.5014 0.0 0
M  V30 25 C -5.9125 -3.5033 0.0 0
M  V30 26 C 2.9562 2.6071 0.0 0
M  V30 27 C -5.447 -0.5353 0.0 0
M  V30 28 C -7.088 -2.5372 0.0 0
M  V30 29 N -6.8553 -1.0475 0.0 0
M  V30 30 C -8.0308 -0.0814 0.0 0
M  V30 31 O -9.4391 -0.5935 0.0 0
M  V30 32 C -7.798 1.4083 0.0 0
M  V30 33 C -8.9735 2.3743 0.0 0
M  V30 END ATOM
M  V30 BEGIN BOND
M  V30 1 1 1 2
M  V30 2 1 3 2 CFG=3
M  V30 3 2 2 4
M  V30 4 2 3 5
M  V30 5 1 3 6
M  V30 6 1 4 7
M  V30 7 1 5 8
M  V30 8 1 5 9
M  V30 9 1 6 10
M  V30 10 2 6 11
M  V30 11 2 7 12
M  V30 12 2 9 13
M  V30 13 1 10 14
M  V30 14 2 10 15
M  V30 15 1 11 16
M  V30 16 1 12 17
M  V30 17 1 12 18
M  V30 18 1 13 19
M  V30 19 1 14 20
M  V30 20 2 14 21
M  V30 21 1 15 22
M  V30 22 1 16 23
M  V30 23 1 18 24
M  V30 24 1 18 25
M  V30 25 1 21 26
M  V30 26 1 24 27
M  V30 27 1 25 28
M  V30 28 1 27 29
M  V30 29 1 29 30
M  V30 30 2 30 31
M  V30 31 1 30 32
M  V30 32 2 32 33
M  V30 33 1 7 9
M  V30 34 2 16 20
M  V30 35 2 17 19
M  V30 36 2 22 26
M  V30 37 1 28 29
M  V30 END BOND
M  V30 BEGIN COLLECTION
M  V30 MDLV30/STERAC1 BONDS=(1 5)
M  V30 END COLLECTION
M  V30 END CTAB
M  END
>  <Compound ID>
105

>  <Name>


>  <Uniprot>
P01116

>  <Target>
KRAS

>  <Smiles>
C=CC(=O)N1CCN(C2=NC=NC3=C(F)C(C4=CC(O)=CC5=CC=CC=C45)=C(Cl)C=C23)CC1

>  <Kd (nM)>


>  <Assay (Kd)>


>  <Ki (nM)>


>  <Assay (Ki)>


>  <IC50 (nM)>


>  <Assay (IC50)>


>  <EC50 (nM)>


>  <Assay (EC50)>


>  <Article DOI>


>  <Molecular Weight>
462.912

>  <Exact Mass>
462.12588178

>  <XLogP3>
5.11

>  <Heavy Atom Count>
33

>  <Ring Count>
5

>  <Hydrogen Bond Acceptor Count>
5

>  <Hydrogen Bond Donor Count>
1

>  <Rotatable Bond Count>
3

>  <Topological Polar Surface Area>
69.56

>  <Molecular Formula>
C25H20ClFN4O2

>  <InChI>
InChI=1S/C25H20ClFN4O2/c1-2-21(33)30-7-9-31(10-8-30)25-19-13-20(26)22(23(27)24(19)28-14-29-25)18-12-16(32)11-15-5-3-4-6-17(15)18/h2-6,11-14,32H,1,7-10H2

>  <InChI Key>
JIPIHCUZVBBERR-UHFFFAOYSA-N

>  <BindingDB>


>  <PubChem>
118019082

>  <ChEMBL>


$$$$
Compound 328
Actelion Java MolfileCreator 2.0

  0  0  0  0  0  0              0 V3000
M  V30 BEGIN CTAB
M  V30 COUNTS 30 32 0 0 0
M  V30 BEGIN ATOM
M  V30 1 F 0.0 0.0 0.0 0
M  V30 2 C 1.4127 -0.4249 0.0 0
M  V30 3 F 0.9647 -1.8376 0.0 0
M  V30 4 F 1.8376 1.0107 0.0 0
M  V30 5 O 2.8254 -0.8499 0.0 0
M  V30 6 C 3.9165 0.1837 0.0 0
M  V30 7 C 3.572 1.6539 0.0 0
M  V30 8 C 5.3293 -0.2411 0.0 0
M  V30 9 C 4.6631 2.6876 0.0 0
M  V30 10 C 6.4204 0.7925 0.0 0
M  V30 11 C 6.0758 2.2626 0.0 0
M  V30 12 N 7.167 3.2963 0.0 0
M  V30 13 C 6.8224 4.7665 0.0 0
M  V30 14 N 7.9135 5.8002 0.0 0
M  V30 15 C 5.3867 5.2144 0.0 0
M  V30 16 C 7.569 7.2703 0.0 0
M  V30 17 C 5.0421 6.6846 0.0 0
M  V30 18 N 6.1333 7.7183 0.0 0
M  V30 19 C 3.6064 7.1325 0.0 0
M  V30 20 C 2.4923 6.1218 0.0 0
M  V30 21 C 3.2619 8.6027 0.0 0
M  V30 22 C 1.0566 6.5697 0.0 0
M  V30 23 C 1.8262 9.0506 0.0 0
M  V30 24 C -0.0574 5.559 0.0 0
M  V30 25 C 0.7121 8.0399 0.0 0
M  V30 26 O 0.2641 4.1118 0.0 0
M  V30 27 N -1.4931 6.0069 0.0 0
M  V30 28 C -2.6072 4.9962 0.0 0
M  V30 29 C -4.0429 5.4441 0.0 0
M  V30 30 O -5.157 4.4334 0.0 0
M  V30 END ATOM
M  V30 BEGIN BOND
M  V30 1 1 1 2
M  V30 2 1 2 3
M  V30 3 1 2 4
M  V30 4 1 2 5
M  V30 5 1 5 6
M  V30 6 2 6 7
M  V30 7 1 6 8
M  V30 8 1 7 9
M  V30 9 2 8 10
M  V30 10 2 9 11
M  V30 11 1 11 12
M  V30 12 1 12 13
M  V30 13 2 13 14
M  V30 14 1 13 15
M  V30 15 1 14 16
M  V30 16 2 15 17
M  V30 17 2 16 18
M  V30 18 1 17 19
M  V30 19 2 19 20
M  V30 20 1 19 21
M  V30 21 1 20 22
M  V30 22 2 21 23
M  V30 23 1 22 24
M  V30 24 2 22 25
M  V30 25 2 24 26
M  V30 26 1 24 27
M  V30 27 1 27 28
M  V30 28 1 28 29
M  V30 29 1 29 30
M  V30 30 1 10 11
M  V30 31 1 17 18
M  V30 32 1 23 25
M  V30 END BOND
M  V30 END CTAB
M  END
>  <Compound ID>
106

>  <Name>
GNF-5

>  <Uniprot>


>  <Target>
BCR-ABL

>  <Smiles>
O=C(NCCO)C1=CC=CC(C2=CC(NC3=CC=C(OC(F)(F)F)C=C3)=NC=N2)=C1

>  <Kd (nM)>


>  <Assay (Kd)>


>  <Ki (nM)>


>  <Assay (Ki)>


>  <IC50 (nM)>


>  <Assay (IC50)>


>  <EC50 (nM)>
430

>  <Assay (EC50)>
Inhibition of Bcr-Abl in mouse BA/F3 cells

>  <Article DOI>
10.1021/jm100555f

>  <Molecular Weight>
418.375

>  <Exact Mass>
418.125275064

>  <XLogP3>
3.51

>  <Heavy Atom Count>
30

>  <Ring Count>
3

>  <Hydrogen Bond Acceptor Count>
6

>  <Hydrogen Bond Donor Count>
3

>  <Rotatable Bond Count>
7

>  <Topological Polar Surface Area>
96.37

>  <Molecular Formula>
C20H17F3N4O3

>  <InChI>
InChI=1S/C20H17F3N4O3/c21-20(22,23)30-16-6-4-15(5-7-16)27-18-11-17(25-12-26-18)13-2-1-3-14(10-13)19(29)24-8-9-28/h1-7,10-12,28H,8-9H2,(H,24,29)(H,25,26,27)

>  <InChI Key>
IIQUYGWWHIHOCF-UHFFFAOYSA-N

>  <BindingDB>
50328152

>  <PubChem>
44129660

>  <ChEMBL>
CHEMBL1257423

$$$$
Compound 329
Actelion Java MolfileCreator 2.0

  0  0  0  0  0  0              0 V3000
M  V30 BEGIN CTAB
M  V30 COUNTS 65 68 0 0 0
M  V30 BEGIN ATOM
M  V30 1 O 0.0 0.0 0.0 0
M  V30 2 C -0.2372 1.5063 0.0 0
M  V30 3 N 1.2098 1.8978 0.0 0
M  V30 4 C -1.7554 1.4589 0.0 0
M  V30 5 C 2.5383 2.5976 0.0 0 CFG=2
M  V30 6 C 1.1268 0.4032 0.0 0
M  V30 7 O -1.8741 -0.0355 0.0 0
M  V30 8 C -3.25 1.7317 0.0 0 CFG=1
M  V30 9 C 3.6889 3.5702 0.0 0
M  V30 10 C 3.7956 1.791 0.0 0
M  V30 11 C 2.3841 -0.4032 0.0 0
M  V30 12 O -4.6496 2.3248 0.0 0
M  V30 13 O -3.2974 0.854 0.0 0
M  V30 14 C -3.9854 0.427 0.0 0 CFG=1
M  V30 15 O 4.7564 2.5264 0.0 0
M  V30 16 O 4.6022 4.7682 0.0 0
M  V30 17 C 3.7126 0.2965 0.0 0
M  V30 18 C -5.8951 3.2025 0.0 0 CFG=2
M  V30 19 C -5.5036 0.4032 0.0 0
M  V30 20 C -3.2144 -0.854 0.0 0
M  V30 21 C 5.2427 6.1442 0.0 0 CFG=2
M  V30 22 C -6.927 4.3175 0.0 0
M  V30 23 C -6.2865 1.708 0.0 0
M  V30 24 C 6.6542 5.6578 0.0 0 CFG=1
M  V30 25 C 5.5748 7.6268 0.0 0
M  V30 26 C -7.698 5.6341 0.0 0 CFG=2
M  V30 27 C 7.781 6.6542 0.0 0
M  V30 28 C 6.9152 4.187 0.0 0
M  V30 29 C 5.5867 9.1451 0.0 0
M  V30 30 O -9.0858 5.0292 0.0 0
M  V30 31 C -8.1725 7.0812 0.0 0
M  V30 32 C 9.1925 6.1679 0.0 0 CFG=1
M  V30 33 O 7.0694 9.2993 0.0 0
M  V30 34 C 5.2664 10.6278 0.0 0 CFG=1
M  V30 35 C -9.2519 3.5465 0.0 0
M  V30 36 C -8.3267 8.5876 0.0 0
M  V30 37 C -9.6551 6.7847 0.0 0
M  V30 38 C 10.3194 7.1642 0.0 0
M  V30 39 C 9.4535 4.6971 0.0 0
M  V30 40 C 4.6378 12.0156 0.0 0
M  V30 41 C 6.6898 11.1022 0.0 0
M  V30 42 C -8.1606 10.094 0.0 0
M  V30 43 C 11.7309 6.6779 0.0 0 CFG=1
M  V30 44 C 10.865 4.2108 0.0 0
M  V30 45 C 3.7363 13.2373 0.0 0
M  V30 46 C -7.6743 11.5292 0.0 0
M  V30 47 O 12.8577 7.6743 0.0 0
M  V30 48 C 11.9918 5.2071 0.0 0 CFG=1
M  V30 49 C 2.5857 14.2455 0.0 0 CFG=1
M  V30 50 C 4.8275 14.2692 0.0 0
M  V30 51 C -6.8914 12.8221 0.0 0
M  V30 52 C 12.5731 9.1688 0.0 0
M  V30 53 O 13.4033 4.7208 0.0 0
M  V30 54 O 3.4398 15.491 0.0 0
M  V30 55 C 1.2573 14.9809 0.0 0 CFG=1
M  V30 56 C -5.8476 13.9134 0.0 0
M  V30 57 O 1.8266 16.3806 0.0 0
M  V30 58 C -0.2016 15.4198 0.0 0
M  V30 59 C -4.6022 14.7556 0.0 0 CFG=2
M  V30 60 C 0.9014 17.5904 0.0 0
M  V30 61 O 0.0474 16.9143 0.0 0
M  V30 62 C -1.7199 15.5384 0.0 0 CFG=1
M  V30 63 C -3.2025 15.3012 0.0 0
M  V30 64 C -5.302 16.1078 0.0 0
M  V30 65 C -1.791 17.0567 0.0 0
M  V30 END ATOM
M  V30 BEGIN BOND
M  V30 1 2 1 2
M  V30 2 1 2 3
M  V30 3 1 2 4
M  V30 4 1 5 3 CFG=3
M  V30 5 1 3 6
M  V30 6 2 4 7
M  V30 7 1 4 8
M  V30 8 1 5 9
M  V30 9 1 5 10
M  V30 10 1 6 11
M  V30 11 1 8 12
M  V30 12 1 8 13 CFG=3
M  V30 13 1 8 14
M  V30 14 2 9 15
M  V30 15 1 9 16
M  V30 16 1 10 17
M  V30 17 1 18 12 CFG=1
M  V30 18 1 14 19
M  V30 19 1 14 20 CFG=3
M  V30 20 1 21 16 CFG=1
M  V30 21 1 18 22
M  V30 22 1 18 23
M  V30 23 1 21 24
M  V30 24 1 21 25
M  V30 25 1 22 26
M  V30 26 1 24 27
M  V30 27 1 24 28 CFG=1
M  V30 28 1 25 29
M  V30 29 1 26 30 CFG=3
M  V30 30 1 26 31
M  V30 31 1 32 27 CFG=1
M  V30 32 2 29 33
M  V30 33 1 29 34
M  V30 34 1 30 35
M  V30 35 2 31 36
M  V30 36 1 31 37
M  V30 37 1 32 38
M  V30 38 1 32 39
M  V30 39 1 34 40
M  V30 40 1 34 41 CFG=1
M  V30 41 1 36 42
M  V30 42 1 38 43
M  V30 43 1 39 44
M  V30 44 2 40 45
M  V30 45 2 42 46
M  V30 46 1 43 47 CFG=1
M  V30 47 1 43 48
M  V30 48 1 45 49
M  V30 49 1 45 50
M  V30 50 1 46 51
M  V30 51 1 47 52
M  V30 52 1 48 53 CFG=3
M  V30 53 1 49 54 CFG=3
M  V30 54 1 49 55
M  V30 55 2 51 56
M  V30 56 1 55 57 CFG=3
M  V30 57 1 55 58
M  V30 58 1 56 59
M  V30 59 1 57 60
M  V30 60 2 58 61
M  V30 61 1 58 62
M  V30 62 1 59 63
M  V30 63 1 59 64 CFG=1
M  V30 64 1 62 65 CFG=1
M  V30 65 1 11 17
M  V30 66 1 19 23
M  V30 67 1 44 48
M  V30 68 1 62 63
M  V30 END BOND
M  V30 BEGIN COLLECTION
M  V30 MDLV30/STEABS ATOMS=(15 5 8 14 18 21 24 26 32 34 43 48 49 55 59 62)
M  V30 END COLLECTION
M  V30 END CTAB
M  END
>  <Compound ID>
107

>  <Name>
rapamycin

>  <Uniprot>
P62942

>  <Target>
FKBP12

>  <Smiles>
CO[C@H]1C[C@@H]2CC[C@@H](C)[C@@](O)(O2)C(=O)C(=O)N2CCCC[C@H]2C(=O)O[C@H]([C@H](C)C[C@@H]2CC[C@@H](O)[C@H](OC)C2)CC(=O)[C@H](C)/C=C(\C)[C@@H](O)[C@@H](OC)C(=O)[C@H](C)C[C@H](C)/C=C/C=C/C=C/1C

>  <Kd (nM)>
0.2

>  <Assay (Kd)>
Kd of FKBP12

>  <Ki (nM)>


>  <Assay (Ki)>


>  <IC50 (nM)>


>  <Assay (IC50)>


>  <EC50 (nM)>


>  <Assay (EC50)>


>  <Article DOI>
10.1021/ja00004a051

>  <Molecular Weight>
914.187

>  <Exact Mass>
913.555141588

>  <XLogP3>
6.02

>  <Heavy Atom Count>
65

>  <Ring Count>
4

>  <Hydrogen Bond Acceptor Count>
13

>  <Hydrogen Bond Donor Count>
3

>  <Rotatable Bond Count>
6

>  <Topological Polar Surface Area>
195.43

>  <Molecular Formula>
C51H79NO13

>  <InChI>
InChI=1S/C51H79NO13/c1-30-16-12-11-13-17-31(2)42(61-8)28-38-21-19-36(7)51(60,65-38)48(57)49(58)52-23-15-14-18-39(52)50(59)64-43(33(4)26-37-20-22-40(53)44(27-37)62-9)29-41(54)32(3)25-35(6)46(56)47(63-10)45(55)34(5)24-30/h11-13,16-17,25,30,32-34,36-40,42-44,46-47,53,56,60H,14-15,18-24,26-29H2,1-10H3/b13-11+,16-12+,31-17+,35-25+/t30-,32-,33-,34-,36-,37+,38+,39+,40-,42+,43+,44-,46-,47+,51-/m1/s1

>  <InChI Key>
QFJCIRLUMZQUOT-HPLJOQBZSA-N

>  <BindingDB>


>  <PubChem>


>  <ChEMBL>


$$$$
Compound 330
Actelion Java MolfileCreator 2.0

  0  0  0  0  0  0              0 V3000
M  V30 BEGIN CTAB
M  V30 COUNTS 26 28 0 0 0
M  V30 BEGIN ATOM
M  V30 1 S 0.0 0.0 0.0 0
M  V30 2 O -1.0649 1.0767 0.0 0
M  V30 3 O 1.0412 -1.0531 0.0 0
M  V30 4 C 1.0531 1.0649 0.0 0
M  V30 5 C -1.0767 -1.0412 0.0 0
M  V30 6 C 0.6626 2.5322 0.0 0
M  V30 7 C 2.4967 0.6744 0.0 0
M  V30 8 C -2.1417 0.0354 0.0 0
M  V30 9 C -0.0354 -2.0944 0.0 0
M  V30 10 C -2.1535 -2.0825 0.0 0
M  V30 11 O -0.8046 2.9463 0.0 0
M  V30 12 C 1.7157 3.5971 0.0 0
M  V30 13 C 3.5498 1.7394 0.0 0
M  V30 14 C 3.1593 3.2067 0.0 0
M  V30 15 C 4.9934 1.3489 0.0 0
M  V30 16 N 4.2124 4.2716 0.0 0
M  V30 17 N 6.0465 2.4138 0.0 0
M  V30 18 N 5.3602 -0.0946 0.0 0
M  V30 19 C 5.656 3.8811 0.0 0
M  V30 20 C 6.8038 -0.4851 0.0 0
M  V30 21 N 7.3245 -1.8814 0.0 0
M  V30 22 C 7.9635 0.4614 0.0 0
M  V30 23 N 8.8154 -1.7985 0.0 0
M  V30 24 C 9.2059 -0.3549 0.0 0
M  V30 25 C 7.8806 1.976 0.0 0
M  V30 26 C 10.6022 0.1893 0.0 0
M  V30 END ATOM
M  V30 BEGIN BOND
M  V30 1 2 1 2
M  V30 2 2 1 3
M  V30 3 1 1 4
M  V30 4 1 1 5
M  V30 5 1 4 6
M  V30 6 2 4 7
M  V30 7 1 5 8
M  V30 8 1 5 9
M  V30 9 1 5 10
M  V30 10 1 6 11
M  V30 11 2 6 12
M  V30 12 1 7 13
M  V30 13 1 12 14
M  V30 14 2 13 15
M  V30 15 2 14 16
M  V30 16 1 15 17
M  V30 17 1 15 18
M  V30 18 1 16 19
M  V30 19 1 18 20
M  V30 20 2 20 21
M  V30 21 1 20 22
M  V30 22 1 21 23
M  V30 23 2 22 24
M  V30 24 1 22 25
M  V30 25 1 24 26
M  V30 26 1 13 14
M  V30 27 2 17 19
M  V30 28 1 23 24
M  V30 END BOND
M  V30 END CTAB
M  END
>  <Compound ID>
108

>  <Name>


>  <Uniprot>
O43353

>  <Target>
RIPK2

>  <Smiles>
CC1=C(C)C(NC2=NC=NC3=CC(O)=C(S(=O)(=O)C(C)(C)C)C=C23)=N[NH]1

>  <Kd (nM)>


>  <Assay (Kd)>


>  <Ki (nM)>


>  <Assay (Ki)>


>  <IC50 (nM)>


>  <Assay (IC50)>


>  <EC50 (nM)>


>  <Assay (EC50)>


>  <Article DOI>


>  <Molecular Weight>
375.454

>  <Exact Mass>
375.136510532

>  <XLogP3>
3.23

>  <Heavy Atom Count>
26

>  <Ring Count>
3

>  <Hydrogen Bond Acceptor Count>
7

>  <Hydrogen Bond Donor Count>
3

>  <Rotatable Bond Count>
3

>  <Topological Polar Surface Area>
120.86

>  <Molecular Formula>
C17H21N5O3S

>  <InChI>
InChI=1S/C17H21N5O3S/c1-9-10(2)21-22-15(9)20-16-11-6-14(26(24,25)17(3,4)5)13(23)7-12(11)18-8-19-16/h6-8,23H,1-5H3,(H2,18,19,20,21,22)

>  <InChI Key>
PSLSXLGIHYOELW-UHFFFAOYSA-N

>  <BindingDB>


>  <PubChem>
137146568

>  <ChEMBL>


$$$$
Compound 331
Actelion Java MolfileCreator 2.0

  0  0  0  0  0  0              0 V3000
M  V30 BEGIN CTAB
M  V30 COUNTS 20 20 0 0 0
M  V30 BEGIN ATOM
M  V30 1 Cl 0.0 0.0 0.0 0
M  V30 2 C 0.448 1.4361 0.0 0
M  V30 3 Cl -0.988 1.9072 0.0 0
M  V30 4 Cl 1.8612 0.988 0.0 0
M  V30 5 C 0.8961 2.8723 0.0 0 CFG=2
M  V30 6 N 2.3438 3.2055 0.0 0
M  V30 7 N -0.1148 3.9868 0.0 0
M  V30 8 C 2.7919 4.6417 0.0 0
M  V30 9 C -1.5855 3.6766 0.0 0
M  V30 10 N 1.7808 5.7561 0.0 0
M  V30 11 N 4.2395 4.9749 0.0 0
M  V30 12 O -2.0566 2.2634 0.0 0
M  V30 13 O -2.5966 4.791 0.0 0
M  V30 14 C 2.2289 7.1923 0.0 0
M  V30 15 C 4.6876 6.411 0.0 0
M  V30 16 C -4.0672 4.4808 0.0 0
M  V30 17 C 3.6766 7.5255 0.0 0
M  V30 18 C -5.0783 5.5953 0.0 0
M  V30 19 C -6.5489 5.2851 0.0 0
M  V30 20 N -7.56 6.3995 0.0 0
M  V30 END ATOM
M  V30 BEGIN BOND
M  V30 1 1 1 2
M  V30 2 1 2 3
M  V30 3 1 2 4
M  V30 4 1 2 5
M  V30 5 1 5 6 CFG=1
M  V30 6 1 5 7
M  V30 7 1 6 8
M  V30 8 1 7 9
M  V30 9 2 8 10
M  V30 10 1 8 11
M  V30 11 2 9 12
M  V30 12 1 9 13
M  V30 13 1 10 14
M  V30 14 2 11 15
M  V30 15 1 13 16
M  V30 16 2 14 17
M  V30 17 1 16 18
M  V30 18 1 18 19
M  V30 19 1 19 20
M  V30 20 1 15 17
M  V30 END BOND
M  V30 BEGIN COLLECTION
M  V30 MDLV30/STERAC1 ATOMS=(1 5)
M  V30 END COLLECTION
M  V30 END CTAB
M  END
>  <Compound ID>
109

>  <Name>
Apcin-A

>  <Uniprot>
Q12834

>  <Target>
Cdc20

>  <Smiles>
NCCCOC(=O)NC(NC1=NC=CC=N1)C(Cl)(Cl)Cl

>  <Kd (nM)>


>  <Assay (Kd)>


>  <Ki (nM)>


>  <Assay (Ki)>


>  <IC50 (nM)>


>  <Assay (IC50)>


>  <EC50 (nM)>


>  <Assay (EC50)>


>  <Article DOI>
10.1038/nature13660

>  <Molecular Weight>
342.614

>  <Exact Mass>
341.021307728

>  <XLogP3>
2.22

>  <Heavy Atom Count>
20

>  <Ring Count>
1

>  <Hydrogen Bond Acceptor Count>
6

>  <Hydrogen Bond Donor Count>
3

>  <Rotatable Bond Count>
6

>  <Topological Polar Surface Area>
102.16

>  <Molecular Formula>
C10H14Cl3N5O2

>  <InChI>
InChI=1S/C10H14Cl3N5O2/c11-10(12,13)7(17-8-15-4-2-5-16-8)18-9(19)20-6-1-3-14/h2,4-5,7H,1,3,6,14H2,(H,18,19)(H,15,16,17)

>  <InChI Key>
JQTSJVDIFMKETH-UHFFFAOYSA-N

>  <BindingDB>


>  <PubChem>
127243466

>  <ChEMBL>


$$$$
Compound 332
Actelion Java MolfileCreator 2.0

  0  0  0  0  0  0              0 V3000
M  V30 BEGIN CTAB
M  V30 COUNTS 33 35 0 0 0
M  V30 BEGIN ATOM
M  V30 1 S 0.0 0.0 0.0 0
M  V30 2 C -1.3997 0.5645 0.0 0
M  V30 3 C 0.9409 1.1644 0.0 0
M  V30 4 C -2.67 -0.2234 0.0 0
M  V30 5 C -1.3173 2.0701 0.0 0
M  V30 6 N 0.1293 2.4348 0.0 0
M  V30 7 C -2.623 -1.7055 0.0 0
M  V30 8 C -3.9992 0.4822 0.0 0
M  V30 9 C -2.4818 3.0347 0.0 0
M  V30 10 C -3.8933 -2.4936 0.0 0
M  V30 11 C -5.2695 -0.3058 0.0 0
M  V30 12 C -5.2225 -1.7878 0.0 0
M  V30 13 C -6.4928 -2.5759 0.0 0
M  V30 14 N -7.822 -1.8702 0.0 0
M  V30 15 C -9.0923 -2.6583 0.0 0
M  V30 16 O -9.0453 -4.1403 0.0 0
M  V30 17 C -10.4215 -1.9525 0.0 0 CFG=1
M  V30 18 N -10.645 -0.4587 0.0 0
M  V30 19 C -11.7742 -2.5995 0.0 0
M  V30 20 C -9.5864 0.5998 0.0 0
M  V30 21 C -12.1271 -0.1881 0.0 0
M  V30 22 C -12.8328 -1.5173 0.0 0 CFG=2
M  V30 23 O -8.1631 0.1999 0.0 0
M  V30 24 C -9.9628 2.0584 0.0 0 CFG=1
M  V30 25 O -14.3267 -1.7173 0.0 0
M  V30 26 N -11.4096 2.4818 0.0 0
M  V30 27 C -8.9041 3.117 0.0 0
M  V30 28 C -11.786 3.9404 0.0 0
M  V30 29 C -9.9628 4.1992 0.0 0
M  V30 30 C -7.8691 2.0584 0.0 0
M  V30 31 C -7.8455 4.1756 0.0 0
M  V30 32 O -10.7273 4.999 0.0 0
M  V30 33 C -13.2327 4.3638 0.0 0
M  V30 END ATOM
M  V30 BEGIN BOND
M  V30 1 1 1 2
M  V30 2 1 1 3
M  V30 3 1 2 4
M  V30 4 2 2 5
M  V30 5 2 3 6
M  V30 6 2 4 7
M  V30 7 1 4 8
M  V30 8 1 5 9
M  V30 9 1 7 10
M  V30 10 2 8 11
M  V30 11 2 10 12
M  V30 12 1 12 13
M  V30 13 1 13 14
M  V30 14 1 14 15
M  V30 15 2 15 16
M  V30 16 1 17 15 CFG=3
M  V30 17 1 17 18
M  V30 18 1 17 19
M  V30 19 1 18 20
M  V30 20 1 18 21
M  V30 21 1 19 22
M  V30 22 2 20 23
M  V30 23 1 20 24
M  V30 24 1 22 25 CFG=1
M  V30 25 1 24 26 CFG=1
M  V30 26 1 24 27
M  V30 27 1 26 28
M  V30 28 1 27 29
M  V30 29 1 27 30
M  V30 30 1 27 31
M  V30 31 2 28 32
M  V30 32 1 28 33
M  V30 33 1 5 6
M  V30 34 1 11 12
M  V30 35 1 21 22
M  V30 END BOND
M  V30 BEGIN COLLECTION
M  V30 MDLV30/STEABS ATOMS=(3 17 22 24)
M  V30 END COLLECTION
M  V30 END CTAB
M  END
>  <Compound ID>
110

>  <Name>
VH032

>  <Uniprot>
P40337

>  <Target>
VHL

>  <Smiles>
CC(=O)N[C@H](C(=O)N1C[C@H](O)C[C@H]1C(=O)NCC1=CC=C(C2=C(C)N=CS2)C=C1)C(C)(C)C

>  <Kd (nM)>
185/150

>  <Assay (Kd)>
ITC/FP

>  <Ki (nM)>


>  <Assay (Ki)>


>  <IC50 (nM)>


>  <Assay (IC50)>


>  <EC50 (nM)>


>  <Assay (EC50)>


>  <Article DOI>
10.1038/ncomms13312

>  <Molecular Weight>
472.611

>  <Exact Mass>
472.214426504

>  <XLogP3>
2.31

>  <Heavy Atom Count>
33

>  <Ring Count>
3

>  <Hydrogen Bond Acceptor Count>
6

>  <Hydrogen Bond Donor Count>
3

>  <Rotatable Bond Count>
6

>  <Topological Polar Surface Area>
111.63

>  <Molecular Formula>
C24H32N4O4S

>  <InChI>
InChI=1S/C24H32N4O4S/c1-14-20(33-13-26-14)17-8-6-16(7-9-17)11-25-22(31)19-10-18(30)12-28(19)23(32)21(24(3,4)5)27-15(2)29/h6-9,13,18-19,21,30H,10-12H2,1-5H3,(H,25,31)(H,27,29)/t18-,19+,21-/m1/s1

>  <InChI Key>
GFVIEZBZIUKYOG-SVFBPWRDSA-N

>  <BindingDB>
50099062

>  <PubChem>
77232228

>  <ChEMBL>
CHEMBL3344081

$$$$
Compound 333
Actelion Java MolfileCreator 2.0

  0  0  0  0  0  0              0 V3000
M  V30 BEGIN CTAB
M  V30 COUNTS 37 40 0 0 0
M  V30 BEGIN ATOM
M  V30 1 S 0.0 0.0 0.0 0
M  V30 2 C 1.4567 -0.3316 0.0 0
M  V30 3 C -0.7935 -1.2791 0.0 0
M  V30 4 C 2.5819 0.6632 0.0 0
M  V30 5 C 1.5752 -1.8239 0.0 0
M  V30 6 N 0.1776 -2.4042 0.0 0
M  V30 7 C 3.9913 0.1776 0.0 0
M  V30 8 C 2.2858 2.1555 0.0 0
M  V30 9 C 2.8543 -2.5937 0.0 0
M  V30 10 C 5.1165 1.1725 0.0 0
M  V30 11 C 3.411 3.1504 0.0 0
M  V30 12 C 4.8204 2.6648 0.0 0
M  V30 13 C 5.9455 3.6597 0.0 0
M  V30 14 N 7.3549 3.1741 0.0 0
M  V30 15 C 8.4801 4.169 0.0 0
M  V30 16 O 8.184 5.6613 0.0 0
M  V30 17 C 9.8895 3.6834 0.0 0 CFG=1
M  V30 18 N 10.3159 2.2503 0.0 0
M  V30 19 C 11.1094 4.548 0.0 0
M  V30 20 C 9.3921 1.0659 0.0 0
M  V30 21 C 11.8082 2.2266 0.0 0
M  V30 22 C 12.2938 3.6478 0.0 0 CFG=2
M  V30 23 O 7.8879 1.2672 0.0 0
M  V30 24 C 9.9606 -0.3079 0.0 0 CFG=1
M  V30 25 O 13.7269 4.0979 0.0 0
M  V30 26 N 11.4411 -0.4855 0.0 0
M  V30 27 C 9.0368 -1.4923 0.0 0
M  V30 28 C 12.0096 -1.8594 0.0 0
M  V30 29 C 10.2211 -2.3924 0.0 0
M  V30 30 C 7.8287 -0.5685 0.0 0
M  V30 31 C 8.1129 -2.6766 0.0 0
M  V30 32 O 11.0857 -3.0438 0.0 0
M  V30 33 C 13.49 -2.0371 0.0 0
M  V30 34 C 13.9282 -0.5921 0.0 0
M  V30 35 C 14.8165 -2.7122 0.0 0
M  V30 36 C 13.5492 -3.5294 0.0 0
M  V30 37 N 14.3665 0.8527 0.0 0
M  V30 END ATOM
M  V30 BEGIN BOND
M  V30 1 1 1 2
M  V30 2 1 1 3
M  V30 3 1 2 4
M  V30 4 2 2 5
M  V30 5 2 3 6
M  V30 6 2 4 7
M  V30 7 1 4 8
M  V30 8 1 5 9
M  V30 9 1 7 10
M  V30 10 2 8 11
M  V30 11 2 10 12
M  V30 12 1 12 13
M  V30 13 1 13 14
M  V30 14 1 14 15
M  V30 15 2 15 16
M  V30 16 1 17 15 CFG=3
M  V30 17 1 17 18
M  V30 18 1 17 19
M  V30 19 1 18 20
M  V30 20 1 18 21
M  V30 21 1 19 22
M  V30 22 2 20 23
M  V30 23 1 20 24
M  V30 24 1 22 25 CFG=1
M  V30 25 1 24 26 CFG=1
M  V30 26 1 24 27
M  V30 27 1 26 28
M  V30 28 1 27 29
M  V30 29 1 27 30
M  V30 30 1 27 31
M  V30 31 2 28 32
M  V30 32 1 28 33
M  V30 33 1 33 34
M  V30 34 1 33 35
M  V30 35 1 33 36
M  V30 36 3 34 37
M  V30 37 1 5 6
M  V30 38 1 11 12
M  V30 39 1 21 22
M  V30 40 1 35 36
M  V30 END BOND
M  V30 BEGIN COLLECTION
M  V30 MDLV30/STEABS ATOMS=(3 17 22 24)
M  V30 END COLLECTION
M  V30 END CTAB
M  END
>  <Compound ID>
111

>  <Name>
VH298

>  <Uniprot>
P40337

>  <Target>
VHL

>  <Smiles>
CC1=C(C2=CC=C(CNC(=O)[C@@H]3C[C@@H](O)CN3C(=O)[C@@H](NC(=O)C3(C#N)CC3)C(C)(C)C)C=C2)SC=N1

>  <Kd (nM)>
90/80

>  <Assay (Kd)>
ITC/FP

>  <Ki (nM)>


>  <Assay (Ki)>


>  <IC50 (nM)>


>  <Assay (IC50)>


>  <EC50 (nM)>


>  <Assay (EC50)>


>  <Article DOI>
10.1038/ncomms13312

>  <Molecular Weight>
523.659

>  <Exact Mass>
523.225325536

>  <XLogP3>
2.54

>  <Heavy Atom Count>
37

>  <Ring Count>
4

>  <Hydrogen Bond Acceptor Count>
7

>  <Hydrogen Bond Donor Count>
3

>  <Rotatable Bond Count>
7

>  <Topological Polar Surface Area>
135.42

>  <Molecular Formula>
C27H33N5O4S

>  <InChI>
InChI=1S/C27H33N5O4S/c1-16-21(37-15-30-16)18-7-5-17(6-8-18)12-29-23(34)20-11-19(33)13-32(20)24(35)22(26(2,3)4)31-25(36)27(14-28)9-10-27/h5-8,15,19-20,22,33H,9-13H2,1-4H3,(H,29,34)(H,31,36)/t19-,20+,22-/m1/s1

>  <InChI Key>
NDVQUNZCNAMROD-RZUBCFFCSA-N

>  <BindingDB>
50459944

>  <PubChem>
122199236

>  <ChEMBL>
CHEMBL4225537

$$$$
Compound 334
Actelion Java MolfileCreator 2.0

  0  0  0  0  0  0              0 V3000
M  V30 BEGIN CTAB
M  V30 COUNTS 75 81 0 0 0
M  V30 BEGIN ATOM
M  V30 1 O 0.0 0.0 0.0 0
M  V30 2 C 0.936 1.1729 0.0 0
M  V30 3 N 2.4051 0.9478 0.0 0
M  V30 4 C 0.3909 2.5947 0.0 0 CFG=1
M  V30 5 C 3.3411 2.1208 0.0 0
M  V30 6 C 2.9264 -0.4502 0.0 0
M  V30 7 N 1.3269 3.7676 0.0 0
M  V30 8 C -1.1018 2.8435 0.0 0
M  V30 9 C 4.8103 1.8956 0.0 0
M  V30 10 C 4.3956 -0.6753 0.0 0
M  V30 11 N 2.8198 3.6966 0.0 0
M  V30 12 C 0.936 5.2368 0.0 0
M  V30 13 C -1.6468 4.2653 0.0 0
M  V30 14 N 5.3316 0.4976 0.0 0
M  V30 15 N 3.353 5.1065 0.0 0
M  V30 16 C 2.1919 6.0662 0.0 0
M  V30 17 C -0.7108 5.4382 0.0 0
M  V30 18 C -3.1397 4.5141 0.0 0
M  V30 19 C 6.8008 0.2725 0.0 0
M  V30 20 C 2.2629 7.5827 0.0 0 CFG=1
M  V30 21 C -1.2558 6.86 0.0 0
M  V30 22 C -3.6847 5.9359 0.0 0
M  V30 23 N 7.7368 1.4454 0.0 0
M  V30 24 N 7.3221 -1.1255 0.0 0
M  V30 25 N 0.9952 8.424 0.0 0
M  V30 26 C 3.6018 8.2699 0.0 0 CFG=2
M  V30 27 C -2.7487 7.1088 0.0 0
M  V30 28 C 9.2059 1.2203 0.0 0
M  V30 29 C 8.7912 -1.3506 0.0 0
M  V30 30 C 4.8458 7.4524 0.0 0
M  V30 31 C 3.6729 9.7865 0.0 0
M  V30 32 O -3.2937 8.5306 0.0 0
M  V30 33 N 9.7272 -0.1777 0.0 0
M  V30 34 N 10.1419 2.3933 0.0 0
M  V30 35 N 9.3126 -2.7487 0.0 0
M  V30 36 C 6.1847 8.1396 0.0 0
M  V30 37 C 11.6111 2.1682 0.0 0
M  V30 38 C 9.5969 3.815 0.0 0
M  V30 39 C 8.3529 -3.898 0.0 0
M  V30 40 C 12.5471 3.3411 0.0 0
M  V30 41 C 10.5329 4.988 0.0 0
M  V30 42 C 8.8742 -5.2961 0.0 0
M  V30 43 N 12.0021 4.7629 0.0 0
M  V30 44 O 7.9145 -6.4453 0.0 0
M  V30 45 C 12.9381 5.9359 0.0 0
M  V30 46 C 8.4358 -7.8434 0.0 0
M  V30 47 O 12.3931 7.3576 0.0 0
M  V30 48 C 14.4073 5.7107 0.0 0 CFG=1
M  V30 49 C 7.4761 -8.9927 0.0 0
M  V30 50 N 14.9286 4.3127 0.0 0
M  V30 51 C 15.3433 6.8837 0.0 0
M  V30 52 O 7.9974 -10.3907 0.0 0
M  V30 53 N 14.0874 3.0686 0.0 0
M  V30 54 C 16.374 3.9335 0.0 0
M  V30 55 C 16.8124 6.6586 0.0 0
M  V30 56 C 7.0377 -11.54 0.0 0
M  V30 57 N 15.0234 1.9075 0.0 0
M  V30 58 C 16.4333 2.4407 0.0 0
M  V30 59 C 17.3337 5.2605 0.0 0
M  V30 60 C 17.7484 7.8316 0.0 0
M  V30 61 C 7.559 -12.9381 0.0 0
M  V30 62 C 17.6773 1.6231 0.0 0 CFG=1
M  V30 63 C 18.8029 5.0354 0.0 0
M  V30 64 C 19.2176 7.6064 0.0 0
M  V30 65 O 6.5993 -14.0874 0.0 0
M  V30 66 N 19.0162 2.3103 0.0 0
M  V30 67 C 17.5825 0.1303 0.0 0 CFG=2
M  V30 68 C 19.7389 6.2084 0.0 0
M  V30 69 C 7.1207 -15.4854 0.0 0
M  V30 70 C 16.22 -0.5331 0.0 0
M  V30 71 C 18.8266 -0.6871 0.0 0
M  V30 72 O 21.2081 5.9832 0.0 0
M  V30 73 C 6.161 -16.6347 0.0 0
M  V30 74 C 16.1252 -2.026 0.0 0
M  V30 75 C 5.2013 -17.784 0.0 0
M  V30 END ATOM
M  V30 BEGIN BOND
M  V30 1 2 1 2
M  V30 2 1 2 3
M  V30 3 1 2 4
M  V30 4 1 3 5
M  V30 5 1 3 6
M  V30 6 1 4 7 CFG=3
M  V30 7 1 4 8
M  V30 8 1 5 9
M  V30 9 1 6 10
M  V30 10 1 7 11
M  V30 11 1 7 12
M  V30 12 1 8 13
M  V30 13 1 9 14
M  V30 14 2 11 15
M  V30 15 2 12 16
M  V30 16 2 13 17
M  V30 17 1 13 18
M  V30 18 1 14 19
M  V30 19 1 16 20
M  V30 20 1 17 21
M  V30 21 2 18 22
M  V30 22 2 19 23
M  V30 23 1 19 24
M  V30 24 1 20 25 CFG=1
M  V30 25 1 20 26
M  V30 26 2 21 27
M  V30 27 1 23 28
M  V30 28 2 24 29
M  V30 29 1 26 30
M  V30 30 1 26 31 CFG=1
M  V30 31 1 27 32
M  V30 32 2 28 33
M  V30 33 1 28 34
M  V30 34 1 29 35
M  V30 35 1 30 36
M  V30 36 1 34 37
M  V30 37 1 34 38
M  V30 38 1 35 39
M  V30 39 1 37 40
M  V30 40 1 38 41
M  V30 41 1 39 42
M  V30 42 1 40 43
M  V30 43 1 42 44
M  V30 44 1 43 45
M  V30 45 1 44 46
M  V30 46 2 45 47
M  V30 47 1 45 48
M  V30 48 1 46 49
M  V30 49 1 48 50 CFG=3
M  V30 50 1 48 51
M  V30 51 1 49 52
M  V30 52 1 50 53
M  V30 53 1 50 54
M  V30 54 1 51 55
M  V30 55 1 52 56
M  V30 56 2 53 57
M  V30 57 2 54 58
M  V30 58 2 55 59
M  V30 59 1 55 60
M  V30 60 1 56 61
M  V30 61 1 58 62
M  V30 62 1 59 63
M  V30 63 2 60 64
M  V30 64 1 61 65
M  V30 65 1 62 66 CFG=1
M  V30 66 1 62 67
M  V30 67 2 63 68
M  V30 68 1 65 69
M  V30 69 1 67 70
M  V30 70 1 67 71 CFG=1
M  V30 71 1 68 72
M  V30 72 1 69 73
M  V30 73 1 70 74
M  V30 74 3 73 75
M  V30 75 1 10 14
M  V30 76 1 15 16
M  V30 77 1 22 27
M  V30 78 1 29 33
M  V30 79 1 41 43
M  V30 80 1 57 58
M  V30 81 1 64 68
M  V30 END BOND
M  V30 BEGIN COLLECTION
M  V30 MDLV30/STEABS ATOMS=(6 4 20 26 48 62 67)
M  V30 END COLLECTION
M  V30 END CTAB
M  END
>  <Compound ID>
112

>  <Name>
IY-IY-TEG

>  <Uniprot>
Q16288

>  <Target>
TRKC

>  <Smiles>
C#CCOCCOCCOCCNC1=NC(N2CCN(C(=O)[C@H](CC3=CC=C(O)C=C3)N3C=C([C@@H](N)[C@@H](C)CC)N=N3)CC2)=NC(N2CCN(C(=O)[C@H](CC3=CC=C(O)C=C3)N3C=C([C@@H](N)[C@@H](C)CC)N=N3)CC2)=N1

>  <Kd (nM)>
112

>  <Assay (Kd)>
Kd was determined via a cell-based assay

>  <Ki (nM)>


>  <Assay (Ki)>


>  <IC50 (nM)>


>  <Assay (IC50)>


>  <EC50 (nM)>


>  <Assay (EC50)>


>  <Article DOI>
10.1021/acs.bioconjchem.8b00340

>  <Molecular Weight>
1035.269

>  <Exact Mass>
1034.59263871

>  <XLogP3>
3.11

>  <Heavy Atom Count>
75

>  <Ring Count>
7

>  <Hydrogen Bond Acceptor Count>
21

>  <Hydrogen Bond Donor Count>
5

>  <Rotatable Bond Count>
27

>  <Topological Polar Surface Area>
279.41

>  <Molecular Formula>
C52H74N16O7

>  <InChI>
InChI=1S/C52H74N16O7/c1-6-26-73-28-30-75-31-29-74-27-17-55-50-56-51(65-22-18-63(19-23-65)48(71)44(32-38-9-13-40(69)14-10-38)67-34-42(59-61-67)46(53)36(4)7-2)58-52(57-50)66-24-20-64(21-25-66)49(72)45(33-39-11-15-41(70)16-12-39)68-35-43(60-62-68)47(54)37(5)8-3/h1,9-16,34-37,44-47,69-70H,7-8,17-33,53-54H2,2-5H3,(H,55,56,57,58)/t36-,37-,44-,45-,46-,47-/m0/s1

>  <InChI Key>
ZAYRSYRBEBTRDO-ZGLAXZLGSA-N

>  <BindingDB>


>  <PubChem>
71453978

>  <ChEMBL>
CHEMBL2203448

$$$$
Compound 335
Actelion Java MolfileCreator 2.0

  0  0  0  0  0  0              0 V3000
M  V30 BEGIN CTAB
M  V30 COUNTS 43 48 0 0 0
M  V30 BEGIN ATOM
M  V30 1 S 0.0 0.0 0.0 0
M  V30 2 C 1.4839 0.0942 0.0 0
M  V30 3 C -0.4004 -1.4368 0.0 0
M  V30 4 N 2.0139 -1.2955 0.0 0
M  V30 5 N 2.2848 1.3662 0.0 0
M  V30 6 N -1.743 -2.1081 0.0 0
M  V30 7 C 0.8479 -2.2377 0.0 0
M  V30 8 C 3.7688 1.3073 0.0 0
M  V30 9 C -1.8255 -3.5921 0.0 0
M  V30 10 C 0.7655 -3.7217 0.0 0
M  V30 11 O 4.4401 -0.0117 0.0 0
M  V30 12 C 4.5697 2.5792 0.0 0
M  V30 13 C -3.1681 -4.2634 0.0 0
M  V30 14 C -0.5771 -4.393 0.0 0
M  V30 15 C 4.6286 4.0868 0.0 0
M  V30 16 C 5.8888 3.2741 0.0 0
M  V30 17 C -4.4401 -3.439 0.0 0
M  V30 18 C -3.2506 -5.7474 0.0 0
M  V30 19 C -5.7828 -4.1103 0.0 0
M  V30 20 C -4.5932 -6.4187 0.0 0
M  V30 21 C -7.0547 -3.2859 0.0 0
M  V30 22 C -5.8652 -5.5943 0.0 0
M  V30 23 O -8.3974 -3.9572 0.0 0
M  V30 24 N -6.9959 -1.7784 0.0 0
M  V30 25 C -8.2678 -0.9539 0.0 0
M  V30 26 C -8.2089 0.5535 0.0 0
M  V30 27 C -9.6105 -1.6253 0.0 0
M  V30 28 C -9.4809 1.3779 0.0 0
M  V30 29 C -10.8825 -0.8008 0.0 0
M  V30 30 C -10.8236 0.7066 0.0 0
M  V30 31 C -9.422 2.8855 0.0 0
M  V30 32 C -12.0956 1.531 0.0 0
M  V30 33 F -9.3632 4.393 0.0 0
M  V30 34 F -7.9381 2.8266 0.0 0
M  V30 35 F -10.9296 2.9679 0.0 0
M  V30 36 N -13.4382 0.8597 0.0 0
M  V30 37 C -13.5207 -0.6242 0.0 0
M  V30 38 C -14.7102 1.6841 0.0 0
M  V30 39 C -14.8633 -1.2955 0.0 0
M  V30 40 C -16.0528 1.0128 0.0 0
M  V30 41 N -16.1353 -0.4711 0.0 0
M  V30 42 C -17.4779 -1.1424 0.0 0
M  V30 43 C -17.5604 -2.6264 0.0 0
M  V30 END ATOM
M  V30 BEGIN BOND
M  V30 1 1 1 2
M  V30 2 1 1 3
M  V30 3 2 2 4
M  V30 4 1 2 5
M  V30 5 2 3 6
M  V30 6 1 3 7
M  V30 7 1 5 8
M  V30 8 1 6 9
M  V30 9 2 7 10
M  V30 10 2 8 11
M  V30 11 1 8 12
M  V30 12 1 9 13
M  V30 13 2 9 14
M  V30 14 1 12 15
M  V30 15 1 12 16
M  V30 16 2 13 17
M  V30 17 1 13 18
M  V30 18 1 17 19
M  V30 19 2 18 20
M  V30 20 1 19 21
M  V30 21 2 19 22
M  V30 22 2 21 23
M  V30 23 1 21 24
M  V30 24 1 24 25
M  V30 25 2 25 26
M  V30 26 1 25 27
M  V30 27 1 26 28
M  V30 28 2 27 29
M  V30 29 2 28 30
M  V30 30 1 28 31
M  V30 31 1 30 32
M  V30 32 1 31 33
M  V30 33 1 31 34
M  V30 34 1 31 35
M  V30 35 1 32 36
M  V30 36 1 36 37
M  V30 37 1 36 38
M  V30 38 1 37 39
M  V30 39 1 38 40
M  V30 40 1 39 41
M  V30 41 1 41 42
M  V30 42 1 42 43
M  V30 43 1 4 7
M  V30 44 1 10 14
M  V30 45 1 15 16
M  V30 46 1 20 22
M  V30 47 1 29 30
M  V30 48 1 40 41
M  V30 END BOND
M  V30 END CTAB
M  END
>  <Compound ID>
113

>  <Name>
HG-7-85-01

>  <Uniprot>


>  <Target>
BCR-ABL

>  <Smiles>
CCN1CCN(CC2=CC=C(NC(=O)C3=CC=CC(C4=CC=C5N=C(NC(=O)C6CC6)SC5=N4)=C3)C=C2C(F)(F)F)CC1

>  <Kd (nM)>
3.3

>  <Assay (Kd)>
KINOMEscan

>  <Ki (nM)>


>  <Assay (Ki)>


>  <IC50 (nM)>


>  <Assay (IC50)>


>  <EC50 (nM)>


>  <Assay (EC50)>


>  <Article DOI>


>  <Molecular Weight>
608.69

>  <Exact Mass>
608.218129892

>  <XLogP3>
5.0

>  <Heavy Atom Count>
43

>  <Ring Count>
6

>  <Hydrogen Bond Acceptor Count>
7

>  <Hydrogen Bond Donor Count>
2

>  <Rotatable Bond Count>
8

>  <Topological Polar Surface Area>
90.46

>  <Molecular Formula>
C31H31F3N6O2S

>  <InChI>
InChI=1S/C31H31F3N6O2S/c1-2-39-12-14-40(15-13-39)18-22-8-9-23(17-24(22)31(32,33)34)35-28(42)21-5-3-4-20(16-21)25-10-11-26-29(36-25)43-30(37-26)38-27(41)19-6-7-19/h3-5,8-11,16-17,19H,2,6-7,12-15,18H2,1H3,(H,35,42)(H,37,38,41)

>  <InChI Key>
VTWWRKFUHCSCEW-UHFFFAOYSA-N

>  <BindingDB>
124970

>  <PubChem>
51359962

>  <ChEMBL>
CHEMBL2148124

$$$$
Compound 336
Actelion Java MolfileCreator 2.0

  0  0  0  0  0  0              0 V3000
M  V30 BEGIN CTAB
M  V30 COUNTS 34 37 0 0 0
M  V30 BEGIN ATOM
M  V30 1 Cl 0.0 0.0 0.0 0
M  V30 2 C 1.024 1.0828 0.0 0
M  V30 3 F 2.0833 0.0588 0.0 0
M  V30 4 F 2.048 2.1657 0.0 0
M  V30 5 O -0.0588 2.1304 0.0 0
M  V30 6 C -1.5066 1.7302 0.0 0
M  V30 7 C -1.8832 0.2942 0.0 0
M  V30 8 C -2.5895 2.7778 0.0 0
M  V30 9 C -3.331 -0.1059 0.0 0
M  V30 10 C -4.0373 2.3776 0.0 0
M  V30 11 C -4.4139 0.9416 0.0 0
M  V30 12 N -5.8617 0.5414 0.0 0
M  V30 13 C -6.9446 1.589 0.0 0
M  V30 14 O -6.5915 3.0485 0.0 0
M  V30 15 C -8.3924 1.1888 0.0 0
M  V30 16 C -8.7691 -0.2471 0.0 0
M  V30 17 C -9.4753 2.2364 0.0 0
M  V30 18 N -10.2168 -0.6473 0.0 0
M  V30 19 C -10.9231 1.8362 0.0 0
M  V30 20 C -11.2997 0.4002 0.0 0
M  V30 21 C -12.006 2.8838 0.0 0
M  V30 22 N -12.7475 0.0 0.0 0
M  V30 23 N -11.8059 4.3786 0.0 0
M  V30 24 C -13.4891 2.6366 0.0 0
M  V30 25 C -13.9364 0.9298 0.0 0
M  V30 26 C -13.2654 -1.3889 0.0 0
M  V30 27 N -13.1595 5.0495 0.0 0
M  V30 28 C -14.2071 3.9666 0.0 0
M  V30 29 C -15.184 0.1059 0.0 0 CFG=2
M  V30 30 C -14.7721 -1.33 0.0 0
M  V30 31 C -16.5965 0.6238 0.0 0
M  V30 32 O -17.75 -0.3295 0.0 0
M  V30 33 O -16.8672 2.1069 0.0 0
M  V30 34 C -18.2797 2.6248 0.0 0
M  V30 END ATOM
M  V30 BEGIN BOND
M  V30 1 1 1 2
M  V30 2 1 2 3
M  V30 3 1 2 4
M  V30 4 1 2 5
M  V30 5 1 5 6
M  V30 6 2 6 7
M  V30 7 1 6 8
M  V30 8 1 7 9
M  V30 9 2 8 10
M  V30 10 2 9 11
M  V30 11 1 11 12
M  V30 12 1 12 13
M  V30 13 2 13 14
M  V30 14 1 13 15
M  V30 15 2 15 16
M  V30 16 1 15 17
M  V30 17 1 16 18
M  V30 18 2 17 19
M  V30 19 2 18 20
M  V30 20 1 19 21
M  V30 21 1 20 22
M  V30 22 1 21 23
M  V30 23 2 21 24
M  V30 24 1 22 25
M  V30 25 1 22 26
M  V30 26 1 23 27
M  V30 27 1 24 28
M  V30 28 1 25 29
M  V30 29 1 26 30
M  V30 30 1 29 31 CFG=3
M  V30 31 2 31 32
M  V30 32 1 31 33
M  V30 33 1 33 34
M  V30 34 1 10 11
M  V30 35 1 19 20
M  V30 36 2 27 28
M  V30 37 1 29 30
M  V30 END BOND
M  V30 BEGIN COLLECTION
M  V30 MDLV30/STERAC1 ATOMS=(1 29)
M  V30 END COLLECTION
M  V30 END CTAB
M  END
>  <Compound ID>
114

>  <Name>
ABL001 derivative

>  <Uniprot>


>  <Target>
BCR-ABL

>  <Smiles>
COC(=O)C1CCN(C2=NC=C(C(=O)NC3=CC=C(OC(F)(F)Cl)C=C3)C=C2C2=CC=N[NH]2)C1

>  <Kd (nM)>


>  <Assay (Kd)>


>  <Ki (nM)>


>  <Assay (Ki)>


>  <IC50 (nM)>
35

>  <Assay (IC50)>
IC50 was tested by the TR-FRET assay

>  <EC50 (nM)>


>  <Assay (EC50)>


>  <Article DOI>
10.1021/acsmedchemlett.7b00247

>  <Molecular Weight>
491.882

>  <Exact Mass>
491.11718824

>  <XLogP3>
3.52

>  <Heavy Atom Count>
34

>  <Ring Count>
4

>  <Hydrogen Bond Acceptor Count>
7

>  <Hydrogen Bond Donor Count>
2

>  <Rotatable Bond Count>
7

>  <Topological Polar Surface Area>
109.44

>  <Molecular Formula>
C22H20ClF2N5O4

>  <InChI>
InChI=1S/C22H20ClF2N5O4/c1-33-21(32)13-7-9-30(12-13)19-17(18-6-8-27-29-18)10-14(11-26-19)20(31)28-15-2-4-16(5-3-15)34-22(23,24)25/h2-6,8,10-11,13H,7,9,12H2,1H3,(H,27,29)(H,28,31)

>  <InChI Key>
WPYMGKMEOVWOFZ-UHFFFAOYSA-N

>  <BindingDB>
50279265

>  <PubChem>
72545853

>  <ChEMBL>
CHEMBL4162041

$$$$
Compound 337
Actelion Java MolfileCreator 2.0

  0  0  0  0  0  0              0 V3000
M  V30 BEGIN CTAB
M  V30 COUNTS 20 23 0 0 0
M  V30 BEGIN ATOM
M  V30 1 O 0.0 0.0 0.0 0
M  V30 2 C -1.5035 -0.0117 0.0 0
M  V30 3 C -2.2787 1.2803 0.0 0
M  V30 4 C -2.2435 -1.3038 0.0 0
M  V30 5 C -3.7822 1.2685 0.0 0
M  V30 6 C -3.747 -1.3155 0.0 0
M  V30 7 C -4.5222 -0.0234 0.0 0
M  V30 8 C -4.5575 2.5606 0.0 0
M  V30 9 C -6.0257 -0.0352 0.0 0 CFG=2
M  V30 10 C -6.061 2.5489 0.0 0
M  V30 11 C -6.801 1.2568 0.0 0 CFG=1
M  V30 12 C -6.7657 -1.3273 0.0 0
M  V30 13 C -8.3045 1.245 0.0 0 CFG=1
M  V30 14 C -8.2693 -1.339 0.0 0
M  V30 15 C -9.0445 -0.0469 0.0 0 CFG=2
M  V30 16 C -9.3382 2.3492 0.0 0
M  V30 17 C -10.5245 0.2466 0.0 0 CFG=2
M  V30 18 C -9.9137 -1.2568 0.0 0
M  V30 19 C -10.7007 1.7266 0.0 0
M  V30 20 O -11.6287 -0.7635 0.0 0
M  V30 END ATOM
M  V30 BEGIN BOND
M  V30 1 1 1 2
M  V30 2 2 2 3
M  V30 3 1 2 4
M  V30 4 1 3 5
M  V30 5 2 4 6
M  V30 6 2 5 7
M  V30 7 1 5 8
M  V30 8 1 7 9
M  V30 9 1 8 10
M  V30 10 1 9 11
M  V30 11 1 9 12 CFG=1
M  V30 12 1 11 13
M  V30 13 1 12 14
M  V30 14 1 13 15
M  V30 15 1 13 16 CFG=1
M  V30 16 1 15 17
M  V30 17 1 15 18 CFG=1
M  V30 18 1 16 19
M  V30 19 1 17 20 CFG=1
M  V30 20 1 6 7
M  V30 21 1 11 10 CFG=3
M  V30 22 1 14 15
M  V30 23 1 17 19
M  V30 END BOND
M  V30 BEGIN COLLECTION
M  V30 MDLV30/STEABS ATOMS=(5 9 11 13 15 17)
M  V30 END COLLECTION
M  V30 END CTAB
M  END
>  <Compound ID>
115

>  <Name>
Estradiol

>  <Uniprot>
P03372

>  <Target>
ER

>  <Smiles>
C[C@]12CC[C@@H]3C4=CC=C(O)C=C4CC[C@H]3[C@@H]1CC[C@@H]2O

>  <Kd (nM)>
0.2/0.5

>  <Assay (Kd)>
Kd of ERalpha/ERbeta was determined by Scatchard analysis

>  <Ki (nM)>


>  <Assay (Ki)>


>  <IC50 (nM)>


>  <Assay (IC50)>


>  <EC50 (nM)>


>  <Assay (EC50)>


>  <Article DOI>
10.1021/jm400157e

>  <Molecular Weight>
272.388

>  <Exact Mass>
272.177630008

>  <XLogP3>
4.01

>  <Heavy Atom Count>
20

>  <Ring Count>
4

>  <Hydrogen Bond Acceptor Count>
2

>  <Hydrogen Bond Donor Count>
2

>  <Rotatable Bond Count>
0

>  <Topological Polar Surface Area>
40.46

>  <Molecular Formula>
C18H24O2

>  <InChI>
InChI=1S/C18H24O2/c1-18-9-8-14-13-5-3-12(19)10-11(13)2-4-15(14)16(18)6-7-17(18)20/h3,5,10,14-17,19-20H,2,4,6-9H2,1H3/t14-,15-,16+,17+,18+/m1/s1

>  <InChI Key>
VOXZDWNPVJITMN-ZBRFXRBCSA-N

>  <BindingDB>
17292

>  <PubChem>
5757

>  <ChEMBL>
CHEMBL135

$$$$
Compound 338
Actelion Java MolfileCreator 2.0

  0  0  0  0  0  0              0 V3000
M  V30 BEGIN CTAB
M  V30 COUNTS 32 34 0 0 0
M  V30 BEGIN ATOM
M  V30 1 Cl 0.0 0.0 0.0 0
M  V30 2 C -1.2399 -0.8502 0.0 0
M  V30 3 C -1.1218 -2.3382 0.0 0
M  V30 4 C -2.6216 -0.2007 0.0 0
M  V30 5 N 0.2361 -2.9641 0.0 0
M  V30 6 C -2.3618 -3.1884 0.0 0
M  V30 7 N -3.8616 -1.051 0.0 0
M  V30 8 C 1.4525 -2.0902 0.0 0
M  V30 9 Cl -2.2437 -4.6764 0.0 0
M  V30 10 C -3.7435 -2.5389 0.0 0
M  V30 11 C 2.8105 -2.7161 0.0 0
M  V30 12 C 1.3108 -0.5786 0.0 0
M  V30 13 C 4.0269 -1.8422 0.0 0
M  V30 14 C 2.9286 -4.204 0.0 0
M  V30 15 C 2.5271 0.2952 0.0 0
M  V30 16 O 3.8852 -0.3306 0.0 0
M  V30 17 C 5.385 -2.4681 0.0 0
M  V30 18 C 4.2867 -4.8299 0.0 0
M  V30 19 O 2.3854 1.8068 0.0 0
M  V30 20 O 6.6013 -1.5942 0.0 0
M  V30 21 C 5.503 -3.956 0.0 0
M  V30 22 C 7.9594 -2.2201 0.0 0
M  V30 23 O 6.8611 -4.5819 0.0 0
M  V30 24 C 9.1757 -1.3462 0.0 0
M  V30 25 C 6.9792 -6.0699 0.0 0
M  V30 26 C 10.5338 -1.9721 0.0 0
M  V30 27 C 11.7501 -1.0982 0.0 0
M  V30 28 C 13.1082 -1.7241 0.0 0
M  V30 29 C 14.3245 -0.8502 0.0 0
M  V30 30 C 15.6826 -1.4761 0.0 0
M  V30 31 O 15.8007 -2.9641 0.0 0
M  V30 32 O 16.8989 -0.6022 0.0 0
M  V30 END ATOM
M  V30 BEGIN BOND
M  V30 1 1 1 2
M  V30 2 2 2 3
M  V30 3 1 2 4
M  V30 4 1 3 5
M  V30 5 1 3 6
M  V30 6 2 4 7
M  V30 7 1 5 8
M  V30 8 1 6 9
M  V30 9 2 6 10
M  V30 10 1 8 11
M  V30 11 2 8 12
M  V30 12 2 11 13
M  V30 13 1 11 14
M  V30 14 1 12 15
M  V30 15 1 13 16
M  V30 16 1 13 17
M  V30 17 2 14 18
M  V30 18 2 15 19
M  V30 19 1 17 20
M  V30 20 2 17 21
M  V30 21 1 20 22
M  V30 22 1 21 23
M  V30 23 1 22 24
M  V30 24 1 23 25
M  V30 25 1 24 26
M  V30 26 1 26 27
M  V30 27 1 27 28
M  V30 28 1 28 29
M  V30 29 1 29 30
M  V30 30 2 30 31
M  V30 31 1 30 32
M  V30 32 1 7 10
M  V30 33 1 15 16
M  V30 34 1 18 21
M  V30 END BOND
M  V30 END CTAB
M  END
>  <Compound ID>
116

>  <Name>


>  <Uniprot>


>  <Target>
PDE4

>  <Smiles>
COC1=CC=C2C(NC3=C(Cl)C=NC=C3Cl)=CC(=O)OC2=C1OCCCCCCC(=O)O

>  <Kd (nM)>


>  <Assay (Kd)>


>  <Ki (nM)>


>  <Assay (Ki)>


>  <IC50 (nM)>
2

>  <Assay (IC50)>
IC50 of PDE4B

>  <EC50 (nM)>


>  <Assay (EC50)>


>  <Article DOI>
10.1016/j.bmcl.2010.03.023

>  <Molecular Weight>
481.332

>  <Exact Mass>
480.085491784

>  <XLogP3>
4.41

>  <Heavy Atom Count>
32

>  <Ring Count>
3

>  <Hydrogen Bond Acceptor Count>
7

>  <Hydrogen Bond Donor Count>
2

>  <Rotatable Bond Count>
11

>  <Topological Polar Surface Area>
110.89

>  <Molecular Formula>
C22H22Cl2N2O6

>  <InChI>
InChI=1S/C22H22Cl2N2O6/c1-30-17-8-7-13-16(26-20-14(23)11-25-12-15(20)24)10-19(29)32-21(13)22(17)31-9-5-3-2-4-6-18(27)28/h7-8,10-12H,2-6,9H2,1H3,(H,25,26)(H,27,28)

>  <InChI Key>
XKLHWRFMIJUKEU-UHFFFAOYSA-N

>  <BindingDB>
50317608

>  <PubChem>
24849846

>  <ChEMBL>
CHEMBL1098818

$$$$
Compound 339
Actelion Java MolfileCreator 2.0

  0  0  0  0  0  0              0 V3000
M  V30 BEGIN CTAB
M  V30 COUNTS 24 26 0 0 0
M  V30 BEGIN ATOM
M  V30 1 N 0.0 0.0 0.0 0
M  V30 2 C -1.3079 -0.7305 0.0 0
M  V30 3 C -2.6159 -1.4611 0.0 0
M  V30 4 C -2.6277 -2.9459 0.0 0
M  V30 5 C -3.9239 -0.6952 0.0 0
M  V30 6 C -3.9357 -3.6764 0.0 0
M  V30 7 C -5.2319 -1.4258 0.0 0
M  V30 8 C -5.2437 -2.9105 0.0 0
M  V30 9 C -6.5516 -3.6411 0.0 0
M  V30 10 C -6.7166 -5.114 0.0 0
M  V30 11 C -7.9303 -3.0166 0.0 0
M  V30 12 C -5.6207 -6.1039 0.0 0
M  V30 13 C -8.1896 -5.4086 0.0 0
M  V30 14 N -8.9437 -4.1124 0.0 0
M  V30 15 C -8.2485 -1.5436 0.0 0
M  V30 16 N -4.5249 -7.0937 0.0 0
M  V30 17 C -8.8141 -6.7637 0.0 0
M  V30 18 C -10.4402 -3.9475 0.0 0
M  V30 19 C -11.0648 -2.5688 0.0 0
M  V30 20 C -10.1928 -1.3433 0.0 0
M  V30 21 C -12.5613 -2.4038 0.0 0
M  V30 22 C -10.8173 0.0353 0.0 0
M  V30 23 C -13.1858 -1.0251 0.0 0
M  V30 24 C -12.3138 0.2003 0.0 0
M  V30 END ATOM
M  V30 BEGIN BOND
M  V30 1 3 1 2
M  V30 2 1 2 3
M  V30 3 2 3 4
M  V30 4 1 3 5
M  V30 5 1 4 6
M  V30 6 2 5 7
M  V30 7 2 6 8
M  V30 8 1 8 9
M  V30 9 1 9 10
M  V30 10 2 9 11
M  V30 11 1 10 12
M  V30 12 2 10 13
M  V30 13 1 11 14
M  V30 14 1 11 15
M  V30 15 3 12 16
M  V30 16 1 13 17
M  V30 17 1 14 18
M  V30 18 1 18 19
M  V30 19 2 19 20
M  V30 20 1 19 21
M  V30 21 1 20 22
M  V30 22 2 21 23
M  V30 23 2 22 24
M  V30 24 1 7 8
M  V30 25 1 13 14
M  V30 26 1 23 24
M  V30 END BOND
M  V30 END CTAB
M  END
>  <Compound ID>
117

>  <Name>


>  <Uniprot>
P10275

>  <Target>
AR

>  <Smiles>
CC1=C(C#N)C(C2=CC=C(C#N)C=C2)=C(C)N1CC1=CC=CC=C1

>  <Kd (nM)>


>  <Assay (Kd)>


>  <Ki (nM)>


>  <Assay (Ki)>


>  <IC50 (nM)>
1.4/3

>  <Assay (IC50)>
IC50 of AR WT/T877A

>  <EC50 (nM)>


>  <Assay (EC50)>


>  <Article DOI>
10.1016/j.bmc.2011.10.067

>  <Molecular Weight>
311.388

>  <Exact Mass>
311.142247544

>  <XLogP3>
4.12

>  <Heavy Atom Count>
24

>  <Ring Count>
3

>  <Hydrogen Bond Acceptor Count>
3

>  <Hydrogen Bond Donor Count>
0

>  <Rotatable Bond Count>
3

>  <Topological Polar Surface Area>
52.51

>  <Molecular Formula>
C21H17N3

>  <InChI>
InChI=1S/C21H17N3/c1-15-20(13-23)21(19-10-8-17(12-22)9-11-19)16(2)24(15)14-18-6-4-3-5-7-18/h3-11H,14H2,1-2H3

>  <InChI Key>
ADPDINVHVCYFSE-UHFFFAOYSA-N

>  <BindingDB>
50360442

>  <PubChem>
56837418

>  <ChEMBL>
CHEMBL1934442

$$$$
Compound 340
Actelion Java MolfileCreator 2.0

  0  0  0  0  0  0              0 V3000
M  V30 BEGIN CTAB
M  V30 COUNTS 27 29 0 0 0
M  V30 BEGIN ATOM
M  V30 1 F 0.0 0.0 0.0 0
M  V30 2 C 0.3666 -1.4431 0.0 0
M  V30 3 C 1.8097 -1.8216 0.0 0
M  V30 4 C -0.7097 -2.4958 0.0 0
M  V30 5 C 2.1764 -3.2647 0.0 0
M  V30 6 C -0.343 -3.9389 0.0 0
M  V30 7 C 1.1 -4.3174 0.0 0
M  V30 8 C 1.4667 -5.7605 0.0 0
M  V30 9 C 2.9098 -6.1391 0.0 0
M  V30 10 C 3.4303 -7.5349 0.0 0
M  V30 11 C 4.069 -5.1809 0.0 0
M  V30 12 N 4.9207 -7.4521 0.0 0
M  V30 13 C 2.5904 -8.7769 0.0 0
M  V30 14 N 5.3111 -5.9971 0.0 0
M  V30 15 C 3.9862 -3.6669 0.0 0
M  V30 16 C 6.7068 -5.453 0.0 0
M  V30 17 C 6.9316 -3.9507 0.0 0
M  V30 18 C 7.8661 -6.3875 0.0 0
M  V30 19 C 8.3274 -3.4066 0.0 0
M  V30 20 C 9.2619 -5.8433 0.0 0
M  V30 21 C 9.4866 -4.3411 0.0 0
M  V30 22 C 8.5521 -1.9044 0.0 0
M  V30 23 C 10.8824 -3.797 0.0 0
M  V30 24 F 8.7769 -0.4021 0.0 0
M  V30 25 F 7.0499 -1.656 0.0 0
M  V30 26 F 10.0307 -2.1291 0.0 0
M  V30 27 N 12.2782 -3.2529 0.0 0
M  V30 END ATOM
M  V30 BEGIN BOND
M  V30 1 1 1 2
M  V30 2 2 2 3
M  V30 3 1 2 4
M  V30 4 1 3 5
M  V30 5 2 4 6
M  V30 6 2 5 7
M  V30 7 1 7 8
M  V30 8 1 8 9
M  V30 9 1 9 10
M  V30 10 2 9 11
M  V30 11 2 10 12
M  V30 12 1 10 13
M  V30 13 1 11 14
M  V30 14 1 11 15
M  V30 15 1 14 16
M  V30 16 2 16 17
M  V30 17 1 16 18
M  V30 18 1 17 19
M  V30 19 2 18 20
M  V30 20 2 19 21
M  V30 21 1 19 22
M  V30 22 1 21 23
M  V30 23 1 22 24
M  V30 24 1 22 25
M  V30 25 1 22 26
M  V30 26 3 23 27
M  V30 27 1 6 7
M  V30 28 1 12 14
M  V30 29 1 20 21
M  V30 END BOND
M  V30 END CTAB
M  END
>  <Compound ID>
118

>  <Name>


>  <Uniprot>
P10275

>  <Target>
AR

>  <Smiles>
CC1=NN(C2=CC=C(C#N)C(C(F)(F)F)=C2)C(C)=C1CC1=CC=C(F)C=C1

>  <Kd (nM)>


>  <Assay (Kd)>


>  <Ki (nM)>


>  <Assay (Ki)>


>  <IC50 (nM)>
1.4/0.95

>  <Assay (IC50)>
IC50 of AR WT/T877A

>  <EC50 (nM)>


>  <Assay (EC50)>


>  <Article DOI>
10.1016/j.bmc.2012.02.005

>  <Molecular Weight>
373.353

>  <Exact Mass>
373.12021036

>  <XLogP3>
5.32

>  <Heavy Atom Count>
27

>  <Ring Count>
3

>  <Hydrogen Bond Acceptor Count>
3

>  <Hydrogen Bond Donor Count>
0

>  <Rotatable Bond Count>
3

>  <Topological Polar Surface Area>
41.61

>  <Molecular Formula>
C20H15F4N3

>  <InChI>
InChI=1S/C20H15F4N3/c1-12-18(9-14-3-6-16(21)7-4-14)13(2)27(26-12)17-8-5-15(11-25)19(10-17)20(22,23)24/h3-8,10H,9H2,1-2H3

>  <InChI Key>
ANRVJQZMCWCTRO-UHFFFAOYSA-N

>  <BindingDB>
50366208

>  <PubChem>
57401854

>  <ChEMBL>
CHEMBL1957613

$$$$
Compound 341
Actelion Java MolfileCreator 2.0

  0  0  0  0  0  0              0 V3000
M  V30 BEGIN CTAB
M  V30 COUNTS 25 27 0 0 0
M  V30 BEGIN ATOM
M  V30 1 Cl 0.0 0.0 0.0 0
M  V30 2 C -0.1642 -1.4784 0.0 0
M  V30 3 C 1.0443 -2.335 0.0 0
M  V30 4 C -1.5371 -2.0886 0.0 0
M  V30 5 C 2.3937 -1.7014 0.0 0
M  V30 6 C 0.88 -3.8135 0.0 0
M  V30 7 C -1.7014 -3.5671 0.0 0
M  V30 8 N 3.7431 -1.0677 0.0 0
M  V30 9 C -0.4928 -4.4236 0.0 0
M  V30 10 N -3.0742 -4.1772 0.0 0
M  V30 11 N -3.391 -5.6322 0.0 0
M  V30 12 C -4.3884 -3.4262 0.0 0
M  V30 13 C -4.893 -5.7848 0.0 0
M  V30 14 C -5.5031 -4.4236 0.0 0
M  V30 15 C -4.5644 -1.9243 0.0 0
M  V30 16 C -5.6439 -7.0755 0.0 0
M  V30 17 C -6.9816 -4.1068 0.0 0
M  V30 18 C -7.4627 -2.6753 0.0 0
M  V30 19 C -8.9412 -2.3585 0.0 0
M  V30 20 C -9.4223 -0.9269 0.0 0
M  V30 21 C -9.9503 -3.4614 0.0 0
M  V30 22 C -10.9007 -0.6101 0.0 0
M  V30 23 C -11.4288 -3.1446 0.0 0
M  V30 24 C -11.9098 -1.7131 0.0 0
M  V30 25 F -13.3883 -1.3963 0.0 0
M  V30 END ATOM
M  V30 BEGIN BOND
M  V30 1 1 1 2
M  V30 2 2 2 3
M  V30 3 1 2 4
M  V30 4 1 3 5
M  V30 5 1 3 6
M  V30 6 2 4 7
M  V30 7 3 5 8
M  V30 8 2 6 9
M  V30 9 1 7 10
M  V30 10 1 10 11
M  V30 11 1 10 12
M  V30 12 2 11 13
M  V30 13 2 12 14
M  V30 14 1 12 15
M  V30 15 1 13 16
M  V30 16 1 14 17
M  V30 17 1 17 18
M  V30 18 1 18 19
M  V30 19 2 19 20
M  V30 20 1 19 21
M  V30 21 1 20 22
M  V30 22 2 21 23
M  V30 23 2 22 24
M  V30 24 1 24 25
M  V30 25 1 7 9
M  V30 26 1 13 14
M  V30 27 1 23 24
M  V30 END BOND
M  V30 END CTAB
M  END
>  <Compound ID>
119

>  <Name>


>  <Uniprot>
P10275

>  <Target>
AR

>  <Smiles>
CC1=NN(C2=CC=C(C#N)C(Cl)=C2)C(C)=C1CCC1=CC=C(F)C=C1

>  <Kd (nM)>


>  <Assay (Kd)>


>  <Ki (nM)>


>  <Assay (Ki)>


>  <IC50 (nM)>
53/18

>  <Assay (IC50)>
IC50 of AR WT/T877A

>  <EC50 (nM)>


>  <Assay (EC50)>


>  <Article DOI>
10.1016/j.bmc.2012.02.005

>  <Molecular Weight>
353.828

>  <Exact Mass>
353.109503444

>  <XLogP3>
5.36

>  <Heavy Atom Count>
25

>  <Ring Count>
3

>  <Hydrogen Bond Acceptor Count>
3

>  <Hydrogen Bond Donor Count>
0

>  <Rotatable Bond Count>
4

>  <Topological Polar Surface Area>
41.61

>  <Molecular Formula>
C20H17ClFN3

>  <InChI>
InChI=1S/C20H17ClFN3/c1-13-19(10-5-15-3-7-17(22)8-4-15)14(2)25(24-13)18-9-6-16(12-23)20(21)11-18/h3-4,6-9,11H,5,10H2,1-2H3

>  <InChI Key>
CUFOUBWWDMDBOO-UHFFFAOYSA-N

>  <BindingDB>
50366212

>  <PubChem>
57400047

>  <ChEMBL>
CHEMBL1957617

$$$$
Compound 342
Actelion Java MolfileCreator 2.0

  0  0  0  0  0  0              0 V3000
M  V30 BEGIN CTAB
M  V30 COUNTS 24 26 0 0 0
M  V30 BEGIN ATOM
M  V30 1 Cl 0.0 0.0 0.0 0
M  V30 2 C 1.2869 -0.732 0.0 0
M  V30 3 C 1.2869 -2.2196 0.0 0
M  V30 4 C 2.5738 0.0354 0.0 0
M  V30 5 N -0.0236 -2.9635 0.0 0
M  V30 6 C 2.5738 -2.9516 0.0 0
M  V30 7 C 3.8608 -0.6965 0.0 0
M  V30 8 N -0.1771 -4.4393 0.0 0
M  V30 9 C -1.405 -2.3495 0.0 0
M  V30 10 C 3.8608 -2.1842 0.0 0
M  V30 11 C 5.1477 0.0708 0.0 0
M  V30 12 C -1.6529 -4.7463 0.0 0
M  V30 13 C -2.4085 -3.4593 0.0 0
M  V30 14 C -1.7355 -0.8737 0.0 0
M  V30 15 N 6.4346 0.8382 0.0 0
M  V30 16 C -2.2669 -6.1041 0.0 0
M  V30 17 C -3.908 -3.3058 0.0 0
M  V30 18 C -4.5338 -1.9245 0.0 0
M  V30 19 C -3.6719 -0.6965 0.0 0
M  V30 20 C -6.0332 -1.771 0.0 0
M  V30 21 C -4.2976 0.6847 0.0 0
M  V30 22 C -6.659 -0.3896 0.0 0
M  V30 23 C -5.7971 0.8382 0.0 0
M  V30 24 F -6.4228 2.2196 0.0 0
M  V30 END ATOM
M  V30 BEGIN BOND
M  V30 1 1 1 2
M  V30 2 2 2 3
M  V30 3 1 2 4
M  V30 4 1 3 5
M  V30 5 1 3 6
M  V30 6 2 4 7
M  V30 7 1 5 8
M  V30 8 1 5 9
M  V30 9 2 6 10
M  V30 10 1 7 11
M  V30 11 2 8 12
M  V30 12 2 9 13
M  V30 13 1 9 14
M  V30 14 3 11 15
M  V30 15 1 12 16
M  V30 16 1 13 17
M  V30 17 1 17 18
M  V30 18 2 18 19
M  V30 19 1 18 20
M  V30 20 1 19 21
M  V30 21 2 20 22
M  V30 22 2 21 23
M  V30 23 1 23 24
M  V30 24 1 7 10
M  V30 25 1 12 13
M  V30 26 1 22 23
M  V30 END BOND
M  V30 END CTAB
M  END
>  <Compound ID>
120

>  <Name>


>  <Uniprot>
P10275

>  <Target>
AR

>  <Smiles>
CC1=NN(C2=CC=C(C#N)C=C2Cl)C(C)=C1CC1=CC=C(F)C=C1

>  <Kd (nM)>


>  <Assay (Kd)>


>  <Ki (nM)>


>  <Assay (Ki)>


>  <IC50 (nM)>
1500/350

>  <Assay (IC50)>
IC50 of AR WT/T877A

>  <EC50 (nM)>


>  <Assay (EC50)>


>  <Article DOI>
10.1016/j.bmc.2012.02.005

>  <Molecular Weight>
339.801

>  <Exact Mass>
339.09385338

>  <XLogP3>
5.06

>  <Heavy Atom Count>
24

>  <Ring Count>
3

>  <Hydrogen Bond Acceptor Count>
3

>  <Hydrogen Bond Donor Count>
0

>  <Rotatable Bond Count>
3

>  <Topological Polar Surface Area>
41.61

>  <Molecular Formula>
C19H15ClFN3

>  <InChI>
InChI=1S/C19H15ClFN3/c1-12-17(9-14-3-6-16(21)7-4-14)13(2)24(23-12)19-8-5-15(11-22)10-18(19)20/h3-8,10H,9H2,1-2H3

>  <InChI Key>
MQQBJQWLIILIBT-UHFFFAOYSA-N

>  <BindingDB>
50366209

>  <PubChem>
57401855

>  <ChEMBL>
CHEMBL1957614

$$$$
Compound 343
Actelion Java MolfileCreator 2.0

  0  0  0  0  0  0              0 V3000
M  V30 BEGIN CTAB
M  V30 COUNTS 33 36 0 0 0
M  V30 BEGIN ATOM
M  V30 1 Cl 0.0 0.0 0.0 0
M  V30 2 C -1.2719 -0.789 0.0 0
M  V30 3 C -1.2248 -2.273 0.0 0
M  V30 4 C -2.6145 -0.0824 0.0 0
M  V30 5 C -2.4968 -3.0621 0.0 0
M  V30 6 C -3.8865 -0.8715 0.0 0
M  V30 7 C -3.8394 -2.3554 0.0 0
M  V30 8 C -5.1113 -3.1445 0.0 0
M  V30 9 C -5.0642 -4.6285 0.0 0
M  V30 10 C -6.454 -2.4379 0.0 0
M  V30 11 N -6.3362 -5.4175 0.0 0
M  V30 12 C -7.7259 -3.227 0.0 0
M  V30 13 C -7.6788 -4.7109 0.0 0
M  V30 14 C -9.1745 -2.8147 0.0 0
M  V30 15 N -9.0921 -5.2173 0.0 0
M  V30 16 C -9.7045 -1.4015 0.0 0
M  V30 17 C -10.0107 -4.0514 0.0 0
M  V30 18 O -8.7623 -0.2355 0.0 0
M  V30 19 C -11.1885 -1.1424 0.0 0
M  V30 20 C -12.1542 -2.2848 0.0 0
M  V30 21 C -11.7184 0.2708 0.0 0
M  V30 22 F -11.6478 -3.6745 0.0 0
M  V30 23 C -13.6382 -2.0257 0.0 0
M  V30 24 F -10.7763 1.4368 0.0 0
M  V30 25 C -13.2024 0.5299 0.0 0
M  V30 26 N -14.6039 -3.1681 0.0 0
M  V30 27 C -14.1681 -0.6124 0.0 0
M  V30 28 S -16.0879 -2.909 0.0 0
M  V30 29 O -15.8523 -1.425 0.0 0
M  V30 30 O -16.347 -4.3694 0.0 0
M  V30 31 C -17.5718 -2.6499 0.0 0
M  V30 32 C -18.1018 -1.2366 0.0 0
M  V30 33 C -19.5857 -0.9775 0.0 0
M  V30 END ATOM
M  V30 BEGIN BOND
M  V30 1 1 1 2
M  V30 2 2 2 3
M  V30 3 1 2 4
M  V30 4 1 3 5
M  V30 5 2 4 6
M  V30 6 2 5 7
M  V30 7 1 7 8
M  V30 8 2 8 9
M  V30 9 1 8 10
M  V30 10 1 9 11
M  V30 11 2 10 12
M  V30 12 2 11 13
M  V30 13 1 12 14
M  V30 14 1 13 15
M  V30 15 1 14 16
M  V30 16 2 14 17
M  V30 17 2 16 18
M  V30 18 1 16 19
M  V30 19 2 19 20
M  V30 20 1 19 21
M  V30 21 1 20 22
M  V30 22 1 20 23
M  V30 23 1 21 24
M  V30 24 2 21 25
M  V30 25 1 23 26
M  V30 26 2 23 27
M  V30 27 1 26 28
M  V30 28 2 28 29
M  V30 29 2 28 30
M  V30 30 1 28 31
M  V30 31 1 31 32
M  V30 32 1 32 33
M  V30 33 1 6 7
M  V30 34 1 12 13
M  V30 35 1 15 17
M  V30 36 1 25 27
M  V30 END BOND
M  V30 END CTAB
M  END
>  <Compound ID>
121

>  <Name>
vemurafenib

>  <Uniprot>
P51451

>  <Target>
BLK

>  <Smiles>
CCCS(=O)(=O)NC1=CC=C(F)C(C(=O)C2=C[NH]C3=NC=C(C4=CC=C(Cl)C=C4)C=C23)=C1F

>  <Kd (nM)>


>  <Assay (Kd)>


>  <Ki (nM)>


>  <Assay (Ki)>


>  <IC50 (nM)>


>  <Assay (IC50)>


>  <EC50 (nM)>


>  <Assay (EC50)>


>  <Article DOI>
10.1016/j.cell.2020.10.038

>  <Molecular Weight>
489.931

>  <Exact Mass>
489.072546556

>  <XLogP3>
4.97

>  <Heavy Atom Count>
33

>  <Ring Count>
4

>  <Hydrogen Bond Acceptor Count>
4

>  <Hydrogen Bond Donor Count>
2

>  <Rotatable Bond Count>
7

>  <Topological Polar Surface Area>
91.92

>  <Molecular Formula>
C23H18ClF2N3O3S

>  <InChI>
InChI=1S/C23H18ClF2N3O3S/c1-2-9-33(31,32)29-19-8-7-18(25)20(21(19)26)22(30)17-12-28-23-16(17)10-14(11-27-23)13-3-5-15(24)6-4-13/h3-8,10-12,29H,2,9H2,1H3,(H,27,28)

>  <InChI Key>
GPXBXXGIAQBQNI-UHFFFAOYSA-N

>  <BindingDB>
50396483

>  <PubChem>
42611257

>  <ChEMBL>
CHEMBL1229517

$$$$
Compound 344
Actelion Java MolfileCreator 2.0

  0  0  0  0  0  0              0 V3000
M  V30 BEGIN CTAB
M  V30 COUNTS 33 36 0 0 0
M  V30 BEGIN ATOM
M  V30 1 Cl 0.0 0.0 0.0 0
M  V30 2 C -1.2719 -0.789 0.0 0
M  V30 3 C -1.2248 -2.273 0.0 0
M  V30 4 C -2.6145 -0.0824 0.0 0
M  V30 5 C -2.4968 -3.0621 0.0 0
M  V30 6 C -3.8865 -0.8715 0.0 0
M  V30 7 C -3.8394 -2.3554 0.0 0
M  V30 8 C -5.1113 -3.1445 0.0 0
M  V30 9 C -5.0642 -4.6285 0.0 0
M  V30 10 C -6.454 -2.4379 0.0 0
M  V30 11 N -6.3362 -5.4175 0.0 0
M  V30 12 C -7.7259 -3.227 0.0 0
M  V30 13 C -7.6788 -4.7109 0.0 0
M  V30 14 C -9.1745 -2.8147 0.0 0
M  V30 15 N -9.0921 -5.2173 0.0 0
M  V30 16 C -9.7045 -1.4015 0.0 0
M  V30 17 C -10.0107 -4.0514 0.0 0
M  V30 18 O -8.7623 -0.2355 0.0 0
M  V30 19 C -11.1885 -1.1424 0.0 0
M  V30 20 C -12.1542 -2.2848 0.0 0
M  V30 21 C -11.7184 0.2708 0.0 0
M  V30 22 F -11.6478 -3.6745 0.0 0
M  V30 23 C -13.6382 -2.0257 0.0 0
M  V30 24 F -10.7763 1.4368 0.0 0
M  V30 25 C -13.2024 0.5299 0.0 0
M  V30 26 N -14.6039 -3.1681 0.0 0
M  V30 27 C -14.1681 -0.6124 0.0 0
M  V30 28 S -16.0879 -2.909 0.0 0
M  V30 29 O -15.8523 -1.425 0.0 0
M  V30 30 O -16.347 -4.3694 0.0 0
M  V30 31 C -17.5718 -2.6499 0.0 0
M  V30 32 C -18.1018 -1.2366 0.0 0
M  V30 33 C -19.5857 -0.9775 0.0 0
M  V30 END ATOM
M  V30 BEGIN BOND
M  V30 1 1 1 2
M  V30 2 2 2 3
M  V30 3 1 2 4
M  V30 4 1 3 5
M  V30 5 2 4 6
M  V30 6 2 5 7
M  V30 7 1 7 8
M  V30 8 2 8 9
M  V30 9 1 8 10
M  V30 10 1 9 11
M  V30 11 2 10 12
M  V30 12 2 11 13
M  V30 13 1 12 14
M  V30 14 1 13 15
M  V30 15 1 14 16
M  V30 16 2 14 17
M  V30 17 2 16 18
M  V30 18 1 16 19
M  V30 19 2 19 20
M  V30 20 1 19 21
M  V30 21 1 20 22
M  V30 22 1 20 23
M  V30 23 1 21 24
M  V30 24 2 21 25
M  V30 25 1 23 26
M  V30 26 2 23 27
M  V30 27 1 26 28
M  V30 28 2 28 29
M  V30 29 2 28 30
M  V30 30 1 28 31
M  V30 31 1 31 32
M  V30 32 1 32 33
M  V30 33 1 6 7
M  V30 34 1 12 13
M  V30 35 1 15 17
M  V30 36 1 25 27
M  V30 END BOND
M  V30 END CTAB
M  END
>  <Compound ID>
121

>  <Name>
vemurafenib

>  <Uniprot>
P15056

>  <Target>
BRAF

>  <Smiles>
CCCS(=O)(=O)NC1=CC=C(F)C(C(=O)C2=C[NH]C3=NC=C(C4=CC=C(Cl)C=C4)C=C23)=C1F

>  <Kd (nM)>
50.7

>  <Assay (Kd)>
Kd of BRAF WT was tested by the KINOMEscan

>  <Ki (nM)>


>  <Assay (Ki)>


>  <IC50 (nM)>


>  <Assay (IC50)>


>  <EC50 (nM)>


>  <Assay (EC50)>


>  <Article DOI>
10.1021/acs.jmedchem.9b02083

>  <Molecular Weight>
489.931

>  <Exact Mass>
489.072546556

>  <XLogP3>
4.97

>  <Heavy Atom Count>
33

>  <Ring Count>
4

>  <Hydrogen Bond Acceptor Count>
4

>  <Hydrogen Bond Donor Count>
2

>  <Rotatable Bond Count>
7

>  <Topological Polar Surface Area>
91.92

>  <Molecular Formula>
C23H18ClF2N3O3S

>  <InChI>
InChI=1S/C23H18ClF2N3O3S/c1-2-9-33(31,32)29-19-8-7-18(25)20(21(19)26)22(30)17-12-28-23-16(17)10-14(11-27-23)13-3-5-15(24)6-4-13/h3-8,10-12,29H,2,9H2,1H3,(H,27,28)

>  <InChI Key>
GPXBXXGIAQBQNI-UHFFFAOYSA-N

>  <BindingDB>
50396483

>  <PubChem>
42611257

>  <ChEMBL>
CHEMBL1229517

$$$$
Compound 345
Actelion Java MolfileCreator 2.0

  0  0  0  0  0  0              0 V3000
M  V30 BEGIN CTAB
M  V30 COUNTS 33 36 0 0 0
M  V30 BEGIN ATOM
M  V30 1 Cl 0.0 0.0 0.0 0
M  V30 2 C -1.2719 -0.789 0.0 0
M  V30 3 C -1.2248 -2.273 0.0 0
M  V30 4 C -2.6145 -0.0824 0.0 0
M  V30 5 C -2.4968 -3.0621 0.0 0
M  V30 6 C -3.8865 -0.8715 0.0 0
M  V30 7 C -3.8394 -2.3554 0.0 0
M  V30 8 C -5.1113 -3.1445 0.0 0
M  V30 9 C -5.0642 -4.6285 0.0 0
M  V30 10 C -6.454 -2.4379 0.0 0
M  V30 11 N -6.3362 -5.4175 0.0 0
M  V30 12 C -7.7259 -3.227 0.0 0
M  V30 13 C -7.6788 -4.7109 0.0 0
M  V30 14 C -9.1745 -2.8147 0.0 0
M  V30 15 N -9.0921 -5.2173 0.0 0
M  V30 16 C -9.7045 -1.4015 0.0 0
M  V30 17 C -10.0107 -4.0514 0.0 0
M  V30 18 O -8.7623 -0.2355 0.0 0
M  V30 19 C -11.1885 -1.1424 0.0 0
M  V30 20 C -12.1542 -2.2848 0.0 0
M  V30 21 C -11.7184 0.2708 0.0 0
M  V30 22 F -11.6478 -3.6745 0.0 0
M  V30 23 C -13.6382 -2.0257 0.0 0
M  V30 24 F -10.7763 1.4368 0.0 0
M  V30 25 C -13.2024 0.5299 0.0 0
M  V30 26 N -14.6039 -3.1681 0.0 0
M  V30 27 C -14.1681 -0.6124 0.0 0
M  V30 28 S -16.0879 -2.909 0.0 0
M  V30 29 O -15.8523 -1.425 0.0 0
M  V30 30 O -16.347 -4.3694 0.0 0
M  V30 31 C -17.5718 -2.6499 0.0 0
M  V30 32 C -18.1018 -1.2366 0.0 0
M  V30 33 C -19.5857 -0.9775 0.0 0
M  V30 END ATOM
M  V30 BEGIN BOND
M  V30 1 1 1 2
M  V30 2 2 2 3
M  V30 3 1 2 4
M  V30 4 1 3 5
M  V30 5 2 4 6
M  V30 6 2 5 7
M  V30 7 1 7 8
M  V30 8 2 8 9
M  V30 9 1 8 10
M  V30 10 1 9 11
M  V30 11 2 10 12
M  V30 12 2 11 13
M  V30 13 1 12 14
M  V30 14 1 13 15
M  V30 15 1 14 16
M  V30 16 2 14 17
M  V30 17 2 16 18
M  V30 18 1 16 19
M  V30 19 2 19 20
M  V30 20 1 19 21
M  V30 21 1 20 22
M  V30 22 1 20 23
M  V30 23 1 21 24
M  V30 24 2 21 25
M  V30 25 1 23 26
M  V30 26 2 23 27
M  V30 27 1 26 28
M  V30 28 2 28 29
M  V30 29 2 28 30
M  V30 30 1 28 31
M  V30 31 1 31 32
M  V30 32 1 32 33
M  V30 33 1 6 7
M  V30 34 1 12 13
M  V30 35 1 15 17
M  V30 36 1 25 27
M  V30 END BOND
M  V30 END CTAB
M  END
>  <Compound ID>
121

>  <Name>
vemurafenib

>  <Uniprot>
P15056

>  <Target>
BRAF V600E

>  <Smiles>
CCCS(=O)(=O)NC1=CC=C(F)C(C(=O)C2=C[NH]C3=NC=C(C4=CC=C(Cl)C=C4)C=C23)=C1F

>  <Kd (nM)>
58.2

>  <Assay (Kd)>
Kd of BRAF V600E was tested by the KINOMEscan

>  <Ki (nM)>


>  <Assay (Ki)>


>  <IC50 (nM)>


>  <Assay (IC50)>


>  <EC50 (nM)>


>  <Assay (EC50)>


>  <Article DOI>
10.1021/acs.jmedchem.9b02083

>  <Molecular Weight>
489.931

>  <Exact Mass>
489.072546556

>  <XLogP3>
4.97

>  <Heavy Atom Count>
33

>  <Ring Count>
4

>  <Hydrogen Bond Acceptor Count>
4

>  <Hydrogen Bond Donor Count>
2

>  <Rotatable Bond Count>
7

>  <Topological Polar Surface Area>
91.92

>  <Molecular Formula>
C23H18ClF2N3O3S

>  <InChI>
InChI=1S/C23H18ClF2N3O3S/c1-2-9-33(31,32)29-19-8-7-18(25)20(21(19)26)22(30)17-12-28-23-16(17)10-14(11-27-23)13-3-5-15(24)6-4-13/h3-8,10-12,29H,2,9H2,1H3,(H,27,28)

>  <InChI Key>
GPXBXXGIAQBQNI-UHFFFAOYSA-N

>  <BindingDB>
50396483

>  <PubChem>
42611257

>  <ChEMBL>
CHEMBL1229517

$$$$
Compound 346
Actelion Java MolfileCreator 2.0

  0  0  0  0  0  0              0 V3000
M  V30 BEGIN CTAB
M  V30 COUNTS 33 36 0 0 0
M  V30 BEGIN ATOM
M  V30 1 Cl 0.0 0.0 0.0 0
M  V30 2 C -1.2719 -0.789 0.0 0
M  V30 3 C -1.2248 -2.273 0.0 0
M  V30 4 C -2.6145 -0.0824 0.0 0
M  V30 5 C -2.4968 -3.0621 0.0 0
M  V30 6 C -3.8865 -0.8715 0.0 0
M  V30 7 C -3.8394 -2.3554 0.0 0
M  V30 8 C -5.1113 -3.1445 0.0 0
M  V30 9 C -5.0642 -4.6285 0.0 0
M  V30 10 C -6.454 -2.4379 0.0 0
M  V30 11 N -6.3362 -5.4175 0.0 0
M  V30 12 C -7.7259 -3.227 0.0 0
M  V30 13 C -7.6788 -4.7109 0.0 0
M  V30 14 C -9.1745 -2.8147 0.0 0
M  V30 15 N -9.0921 -5.2173 0.0 0
M  V30 16 C -9.7045 -1.4015 0.0 0
M  V30 17 C -10.0107 -4.0514 0.0 0
M  V30 18 O -8.7623 -0.2355 0.0 0
M  V30 19 C -11.1885 -1.1424 0.0 0
M  V30 20 C -12.1542 -2.2848 0.0 0
M  V30 21 C -11.7184 0.2708 0.0 0
M  V30 22 F -11.6478 -3.6745 0.0 0
M  V30 23 C -13.6382 -2.0257 0.0 0
M  V30 24 F -10.7763 1.4368 0.0 0
M  V30 25 C -13.2024 0.5299 0.0 0
M  V30 26 N -14.6039 -3.1681 0.0 0
M  V30 27 C -14.1681 -0.6124 0.0 0
M  V30 28 S -16.0879 -2.909 0.0 0
M  V30 29 O -15.8523 -1.425 0.0 0
M  V30 30 O -16.347 -4.3694 0.0 0
M  V30 31 C -17.5718 -2.6499 0.0 0
M  V30 32 C -18.1018 -1.2366 0.0 0
M  V30 33 C -19.5857 -0.9775 0.0 0
M  V30 END ATOM
M  V30 BEGIN BOND
M  V30 1 1 1 2
M  V30 2 2 2 3
M  V30 3 1 2 4
M  V30 4 1 3 5
M  V30 5 2 4 6
M  V30 6 2 5 7
M  V30 7 1 7 8
M  V30 8 2 8 9
M  V30 9 1 8 10
M  V30 10 1 9 11
M  V30 11 2 10 12
M  V30 12 2 11 13
M  V30 13 1 12 14
M  V30 14 1 13 15
M  V30 15 1 14 16
M  V30 16 2 14 17
M  V30 17 2 16 18
M  V30 18 1 16 19
M  V30 19 2 19 20
M  V30 20 1 19 21
M  V30 21 1 20 22
M  V30 22 1 20 23
M  V30 23 1 21 24
M  V30 24 2 21 25
M  V30 25 1 23 26
M  V30 26 2 23 27
M  V30 27 1 26 28
M  V30 28 2 28 29
M  V30 29 2 28 30
M  V30 30 1 28 31
M  V30 31 1 31 32
M  V30 32 1 32 33
M  V30 33 1 6 7
M  V30 34 1 12 13
M  V30 35 1 15 17
M  V30 36 1 25 27
M  V30 END BOND
M  V30 END CTAB
M  END
>  <Compound ID>
121

>  <Name>
vemurafenib

>  <Uniprot>
P41240

>  <Target>
CSK

>  <Smiles>
CCCS(=O)(=O)NC1=CC=C(F)C(C(=O)C2=C[NH]C3=NC=C(C4=CC=C(Cl)C=C4)C=C23)=C1F

>  <Kd (nM)>
>30000

>  <Assay (Kd)>
Kd apparent of CSK

>  <Ki (nM)>


>  <Assay (Ki)>


>  <IC50 (nM)>


>  <Assay (IC50)>


>  <EC50 (nM)>


>  <Assay (EC50)>


>  <Article DOI>
10.1126/science.aan4368

>  <Molecular Weight>
489.931

>  <Exact Mass>
489.072546556

>  <XLogP3>
4.97

>  <Heavy Atom Count>
33

>  <Ring Count>
4

>  <Hydrogen Bond Acceptor Count>
4

>  <Hydrogen Bond Donor Count>
2

>  <Rotatable Bond Count>
7

>  <Topological Polar Surface Area>
91.92

>  <Molecular Formula>
C23H18ClF2N3O3S

>  <InChI>
InChI=1S/C23H18ClF2N3O3S/c1-2-9-33(31,32)29-19-8-7-18(25)20(21(19)26)22(30)17-12-28-23-16(17)10-14(11-27-23)13-3-5-15(24)6-4-13/h3-8,10-12,29H,2,9H2,1H3,(H,27,28)

>  <InChI Key>
GPXBXXGIAQBQNI-UHFFFAOYSA-N

>  <BindingDB>
50396483

>  <PubChem>
42611257

>  <ChEMBL>
CHEMBL1229517

$$$$
Compound 347
Actelion Java MolfileCreator 2.0

  0  0  0  0  0  0              0 V3000
M  V30 BEGIN CTAB
M  V30 COUNTS 33 36 0 0 0
M  V30 BEGIN ATOM
M  V30 1 Cl 0.0 0.0 0.0 0
M  V30 2 C -1.2719 -0.789 0.0 0
M  V30 3 C -1.2248 -2.273 0.0 0
M  V30 4 C -2.6145 -0.0824 0.0 0
M  V30 5 C -2.4968 -3.0621 0.0 0
M  V30 6 C -3.8865 -0.8715 0.0 0
M  V30 7 C -3.8394 -2.3554 0.0 0
M  V30 8 C -5.1113 -3.1445 0.0 0
M  V30 9 C -5.0642 -4.6285 0.0 0
M  V30 10 C -6.454 -2.4379 0.0 0
M  V30 11 N -6.3362 -5.4175 0.0 0
M  V30 12 C -7.7259 -3.227 0.0 0
M  V30 13 C -7.6788 -4.7109 0.0 0
M  V30 14 C -9.1745 -2.8147 0.0 0
M  V30 15 N -9.0921 -5.2173 0.0 0
M  V30 16 C -9.7045 -1.4015 0.0 0
M  V30 17 C -10.0107 -4.0514 0.0 0
M  V30 18 O -8.7623 -0.2355 0.0 0
M  V30 19 C -11.1885 -1.1424 0.0 0
M  V30 20 C -12.1542 -2.2848 0.0 0
M  V30 21 C -11.7184 0.2708 0.0 0
M  V30 22 F -11.6478 -3.6745 0.0 0
M  V30 23 C -13.6382 -2.0257 0.0 0
M  V30 24 F -10.7763 1.4368 0.0 0
M  V30 25 C -13.2024 0.5299 0.0 0
M  V30 26 N -14.6039 -3.1681 0.0 0
M  V30 27 C -14.1681 -0.6124 0.0 0
M  V30 28 S -16.0879 -2.909 0.0 0
M  V30 29 O -15.8523 -1.425 0.0 0
M  V30 30 O -16.347 -4.3694 0.0 0
M  V30 31 C -17.5718 -2.6499 0.0 0
M  V30 32 C -18.1018 -1.2366 0.0 0
M  V30 33 C -19.5857 -0.9775 0.0 0
M  V30 END ATOM
M  V30 BEGIN BOND
M  V30 1 1 1 2
M  V30 2 2 2 3
M  V30 3 1 2 4
M  V30 4 1 3 5
M  V30 5 2 4 6
M  V30 6 2 5 7
M  V30 7 1 7 8
M  V30 8 2 8 9
M  V30 9 1 8 10
M  V30 10 1 9 11
M  V30 11 2 10 12
M  V30 12 2 11 13
M  V30 13 1 12 14
M  V30 14 1 13 15
M  V30 15 1 14 16
M  V30 16 2 14 17
M  V30 17 2 16 18
M  V30 18 1 16 19
M  V30 19 2 19 20
M  V30 20 1 19 21
M  V30 21 1 20 22
M  V30 22 1 20 23
M  V30 23 1 21 24
M  V30 24 2 21 25
M  V30 25 1 23 26
M  V30 26 2 23 27
M  V30 27 1 26 28
M  V30 28 2 28 29
M  V30 29 2 28 30
M  V30 30 1 28 31
M  V30 31 1 31 32
M  V30 32 1 32 33
M  V30 33 1 6 7
M  V30 34 1 12 13
M  V30 35 1 15 17
M  V30 36 1 25 27
M  V30 END BOND
M  V30 END CTAB
M  END
>  <Compound ID>
121

>  <Name>
vemurafenib

>  <Uniprot>
P06239

>  <Target>
LCK

>  <Smiles>
CCCS(=O)(=O)NC1=CC=C(F)C(C(=O)C2=C[NH]C3=NC=C(C4=CC=C(Cl)C=C4)C=C23)=C1F

>  <Kd (nM)>
>30000

>  <Assay (Kd)>
Kd apparent of LCK

>  <Ki (nM)>


>  <Assay (Ki)>


>  <IC50 (nM)>


>  <Assay (IC50)>


>  <EC50 (nM)>


>  <Assay (EC50)>


>  <Article DOI>
10.1126/science.aan4368

>  <Molecular Weight>
489.931

>  <Exact Mass>
489.072546556

>  <XLogP3>
4.97

>  <Heavy Atom Count>
33

>  <Ring Count>
4

>  <Hydrogen Bond Acceptor Count>
4

>  <Hydrogen Bond Donor Count>
2

>  <Rotatable Bond Count>
7

>  <Topological Polar Surface Area>
91.92

>  <Molecular Formula>
C23H18ClF2N3O3S

>  <InChI>
InChI=1S/C23H18ClF2N3O3S/c1-2-9-33(31,32)29-19-8-7-18(25)20(21(19)26)22(30)17-12-28-23-16(17)10-14(11-27-23)13-3-5-15(24)6-4-13/h3-8,10-12,29H,2,9H2,1H3,(H,27,28)

>  <InChI Key>
GPXBXXGIAQBQNI-UHFFFAOYSA-N

>  <BindingDB>
50396483

>  <PubChem>
42611257

>  <ChEMBL>
CHEMBL1229517

$$$$
Compound 348
Actelion Java MolfileCreator 2.0

  0  0  0  0  0  0              0 V3000
M  V30 BEGIN CTAB
M  V30 COUNTS 33 36 0 0 0
M  V30 BEGIN ATOM
M  V30 1 Cl 0.0 0.0 0.0 0
M  V30 2 C -1.2719 -0.789 0.0 0
M  V30 3 C -1.2248 -2.273 0.0 0
M  V30 4 C -2.6145 -0.0824 0.0 0
M  V30 5 C -2.4968 -3.0621 0.0 0
M  V30 6 C -3.8865 -0.8715 0.0 0
M  V30 7 C -3.8394 -2.3554 0.0 0
M  V30 8 C -5.1113 -3.1445 0.0 0
M  V30 9 C -5.0642 -4.6285 0.0 0
M  V30 10 C -6.454 -2.4379 0.0 0
M  V30 11 N -6.3362 -5.4175 0.0 0
M  V30 12 C -7.7259 -3.227 0.0 0
M  V30 13 C -7.6788 -4.7109 0.0 0
M  V30 14 C -9.1745 -2.8147 0.0 0
M  V30 15 N -9.0921 -5.2173 0.0 0
M  V30 16 C -9.7045 -1.4015 0.0 0
M  V30 17 C -10.0107 -4.0514 0.0 0
M  V30 18 O -8.7623 -0.2355 0.0 0
M  V30 19 C -11.1885 -1.1424 0.0 0
M  V30 20 C -12.1542 -2.2848 0.0 0
M  V30 21 C -11.7184 0.2708 0.0 0
M  V30 22 F -11.6478 -3.6745 0.0 0
M  V30 23 C -13.6382 -2.0257 0.0 0
M  V30 24 F -10.7763 1.4368 0.0 0
M  V30 25 C -13.2024 0.5299 0.0 0
M  V30 26 N -14.6039 -3.1681 0.0 0
M  V30 27 C -14.1681 -0.6124 0.0 0
M  V30 28 S -16.0879 -2.909 0.0 0
M  V30 29 O -15.8523 -1.425 0.0 0
M  V30 30 O -16.347 -4.3694 0.0 0
M  V30 31 C -17.5718 -2.6499 0.0 0
M  V30 32 C -18.1018 -1.2366 0.0 0
M  V30 33 C -19.5857 -0.9775 0.0 0
M  V30 END ATOM
M  V30 BEGIN BOND
M  V30 1 1 1 2
M  V30 2 2 2 3
M  V30 3 1 2 4
M  V30 4 1 3 5
M  V30 5 2 4 6
M  V30 6 2 5 7
M  V30 7 1 7 8
M  V30 8 2 8 9
M  V30 9 1 8 10
M  V30 10 1 9 11
M  V30 11 2 10 12
M  V30 12 2 11 13
M  V30 13 1 12 14
M  V30 14 1 13 15
M  V30 15 1 14 16
M  V30 16 2 14 17
M  V30 17 2 16 18
M  V30 18 1 16 19
M  V30 19 2 19 20
M  V30 20 1 19 21
M  V30 21 1 20 22
M  V30 22 1 20 23
M  V30 23 1 21 24
M  V30 24 2 21 25
M  V30 25 1 23 26
M  V30 26 2 23 27
M  V30 27 1 26 28
M  V30 28 2 28 29
M  V30 29 2 28 30
M  V30 30 1 28 31
M  V30 31 1 31 32
M  V30 32 1 32 33
M  V30 33 1 6 7
M  V30 34 1 12 13
M  V30 35 1 15 17
M  V30 36 1 25 27
M  V30 END BOND
M  V30 END CTAB
M  END
>  <Compound ID>
121

>  <Name>
vemurafenib

>  <Uniprot>
P53671

>  <Target>
LIMK2

>  <Smiles>
CCCS(=O)(=O)NC1=CC=C(F)C(C(=O)C2=C[NH]C3=NC=C(C4=CC=C(Cl)C=C4)C=C23)=C1F

>  <Kd (nM)>


>  <Assay (Kd)>


>  <Ki (nM)>


>  <Assay (Ki)>


>  <IC50 (nM)>


>  <Assay (IC50)>


>  <EC50 (nM)>


>  <Assay (EC50)>


>  <Article DOI>
10.1016/j.cell.2020.10.038

>  <Molecular Weight>
489.931

>  <Exact Mass>
489.072546556

>  <XLogP3>
4.97

>  <Heavy Atom Count>
33

>  <Ring Count>
4

>  <Hydrogen Bond Acceptor Count>
4

>  <Hydrogen Bond Donor Count>
2

>  <Rotatable Bond Count>
7

>  <Topological Polar Surface Area>
91.92

>  <Molecular Formula>
C23H18ClF2N3O3S

>  <InChI>
InChI=1S/C23H18ClF2N3O3S/c1-2-9-33(31,32)29-19-8-7-18(25)20(21(19)26)22(30)17-12-28-23-16(17)10-14(11-27-23)13-3-5-15(24)6-4-13/h3-8,10-12,29H,2,9H2,1H3,(H,27,28)

>  <InChI Key>
GPXBXXGIAQBQNI-UHFFFAOYSA-N

>  <BindingDB>
50396483

>  <PubChem>
42611257

>  <ChEMBL>
CHEMBL1229517

$$$$
Compound 349
Actelion Java MolfileCreator 2.0

  0  0  0  0  0  0              0 V3000
M  V30 BEGIN CTAB
M  V30 COUNTS 33 36 0 0 0
M  V30 BEGIN ATOM
M  V30 1 Cl 0.0 0.0 0.0 0
M  V30 2 C -1.2719 -0.789 0.0 0
M  V30 3 C -1.2248 -2.273 0.0 0
M  V30 4 C -2.6145 -0.0824 0.0 0
M  V30 5 C -2.4968 -3.0621 0.0 0
M  V30 6 C -3.8865 -0.8715 0.0 0
M  V30 7 C -3.8394 -2.3554 0.0 0
M  V30 8 C -5.1113 -3.1445 0.0 0
M  V30 9 C -5.0642 -4.6285 0.0 0
M  V30 10 C -6.454 -2.4379 0.0 0
M  V30 11 N -6.3362 -5.4175 0.0 0
M  V30 12 C -7.7259 -3.227 0.0 0
M  V30 13 C -7.6788 -4.7109 0.0 0
M  V30 14 C -9.1745 -2.8147 0.0 0
M  V30 15 N -9.0921 -5.2173 0.0 0
M  V30 16 C -9.7045 -1.4015 0.0 0
M  V30 17 C -10.0107 -4.0514 0.0 0
M  V30 18 O -8.7623 -0.2355 0.0 0
M  V30 19 C -11.1885 -1.1424 0.0 0
M  V30 20 C -12.1542 -2.2848 0.0 0
M  V30 21 C -11.7184 0.2708 0.0 0
M  V30 22 F -11.6478 -3.6745 0.0 0
M  V30 23 C -13.6382 -2.0257 0.0 0
M  V30 24 F -10.7763 1.4368 0.0 0
M  V30 25 C -13.2024 0.5299 0.0 0
M  V30 26 N -14.6039 -3.1681 0.0 0
M  V30 27 C -14.1681 -0.6124 0.0 0
M  V30 28 S -16.0879 -2.909 0.0 0
M  V30 29 O -15.8523 -1.425 0.0 0
M  V30 30 O -16.347 -4.3694 0.0 0
M  V30 31 C -17.5718 -2.6499 0.0 0
M  V30 32 C -18.1018 -1.2366 0.0 0
M  V30 33 C -19.5857 -0.9775 0.0 0
M  V30 END ATOM
M  V30 BEGIN BOND
M  V30 1 1 1 2
M  V30 2 2 2 3
M  V30 3 1 2 4
M  V30 4 1 3 5
M  V30 5 2 4 6
M  V30 6 2 5 7
M  V30 7 1 7 8
M  V30 8 2 8 9
M  V30 9 1 8 10
M  V30 10 1 9 11
M  V30 11 2 10 12
M  V30 12 2 11 13
M  V30 13 1 12 14
M  V30 14 1 13 15
M  V30 15 1 14 16
M  V30 16 2 14 17
M  V30 17 2 16 18
M  V30 18 1 16 19
M  V30 19 2 19 20
M  V30 20 1 19 21
M  V30 21 1 20 22
M  V30 22 1 20 23
M  V30 23 1 21 24
M  V30 24 2 21 25
M  V30 25 1 23 26
M  V30 26 2 23 27
M  V30 27 1 26 28
M  V30 28 2 28 29
M  V30 29 2 28 30
M  V30 30 1 28 31
M  V30 31 1 31 32
M  V30 32 1 32 33
M  V30 33 1 6 7
M  V30 34 1 12 13
M  V30 35 1 15 17
M  V30 36 1 25 27
M  V30 END BOND
M  V30 END CTAB
M  END
>  <Compound ID>
121

>  <Name>
vemurafenib

>  <Uniprot>
Q13163

>  <Target>
MAP2K5

>  <Smiles>
CCCS(=O)(=O)NC1=CC=C(F)C(C(=O)C2=C[NH]C3=NC=C(C4=CC=C(Cl)C=C4)C=C23)=C1F

>  <Kd (nM)>


>  <Assay (Kd)>


>  <Ki (nM)>


>  <Assay (Ki)>


>  <IC50 (nM)>


>  <Assay (IC50)>


>  <EC50 (nM)>


>  <Assay (EC50)>


>  <Article DOI>
10.1016/j.cell.2020.10.038

>  <Molecular Weight>
489.931

>  <Exact Mass>
489.072546556

>  <XLogP3>
4.97

>  <Heavy Atom Count>
33

>  <Ring Count>
4

>  <Hydrogen Bond Acceptor Count>
4

>  <Hydrogen Bond Donor Count>
2

>  <Rotatable Bond Count>
7

>  <Topological Polar Surface Area>
91.92

>  <Molecular Formula>
C23H18ClF2N3O3S

>  <InChI>
InChI=1S/C23H18ClF2N3O3S/c1-2-9-33(31,32)29-19-8-7-18(25)20(21(19)26)22(30)17-12-28-23-16(17)10-14(11-27-23)13-3-5-15(24)6-4-13/h3-8,10-12,29H,2,9H2,1H3,(H,27,28)

>  <InChI Key>
GPXBXXGIAQBQNI-UHFFFAOYSA-N

>  <BindingDB>
50396483

>  <PubChem>
42611257

>  <ChEMBL>
CHEMBL1229517

$$$$
Compound 350
Actelion Java MolfileCreator 2.0

  0  0  0  0  0  0              0 V3000
M  V30 BEGIN CTAB
M  V30 COUNTS 33 36 0 0 0
M  V30 BEGIN ATOM
M  V30 1 Cl 0.0 0.0 0.0 0
M  V30 2 C -1.2719 -0.789 0.0 0
M  V30 3 C -1.2248 -2.273 0.0 0
M  V30 4 C -2.6145 -0.0824 0.0 0
M  V30 5 C -2.4968 -3.0621 0.0 0
M  V30 6 C -3.8865 -0.8715 0.0 0
M  V30 7 C -3.8394 -2.3554 0.0 0
M  V30 8 C -5.1113 -3.1445 0.0 0
M  V30 9 C -5.0642 -4.6285 0.0 0
M  V30 10 C -6.454 -2.4379 0.0 0
M  V30 11 N -6.3362 -5.4175 0.0 0
M  V30 12 C -7.7259 -3.227 0.0 0
M  V30 13 C -7.6788 -4.7109 0.0 0
M  V30 14 C -9.1745 -2.8147 0.0 0
M  V30 15 N -9.0921 -5.2173 0.0 0
M  V30 16 C -9.7045 -1.4015 0.0 0
M  V30 17 C -10.0107 -4.0514 0.0 0
M  V30 18 O -8.7623 -0.2355 0.0 0
M  V30 19 C -11.1885 -1.1424 0.0 0
M  V30 20 C -12.1542 -2.2848 0.0 0
M  V30 21 C -11.7184 0.2708 0.0 0
M  V30 22 F -11.6478 -3.6745 0.0 0
M  V30 23 C -13.6382 -2.0257 0.0 0
M  V30 24 F -10.7763 1.4368 0.0 0
M  V30 25 C -13.2024 0.5299 0.0 0
M  V30 26 N -14.6039 -3.1681 0.0 0
M  V30 27 C -14.1681 -0.6124 0.0 0
M  V30 28 S -16.0879 -2.909 0.0 0
M  V30 29 O -15.8523 -1.425 0.0 0
M  V30 30 O -16.347 -4.3694 0.0 0
M  V30 31 C -17.5718 -2.6499 0.0 0
M  V30 32 C -18.1018 -1.2366 0.0 0
M  V30 33 C -19.5857 -0.9775 0.0 0
M  V30 END ATOM
M  V30 BEGIN BOND
M  V30 1 1 1 2
M  V30 2 2 2 3
M  V30 3 1 2 4
M  V30 4 1 3 5
M  V30 5 2 4 6
M  V30 6 2 5 7
M  V30 7 1 7 8
M  V30 8 2 8 9
M  V30 9 1 8 10
M  V30 10 1 9 11
M  V30 11 2 10 12
M  V30 12 2 11 13
M  V30 13 1 12 14
M  V30 14 1 13 15
M  V30 15 1 14 16
M  V30 16 2 14 17
M  V30 17 2 16 18
M  V30 18 1 16 19
M  V30 19 2 19 20
M  V30 20 1 19 21
M  V30 21 1 20 22
M  V30 22 1 20 23
M  V30 23 1 21 24
M  V30 24 2 21 25
M  V30 25 1 23 26
M  V30 26 2 23 27
M  V30 27 1 26 28
M  V30 28 2 28 29
M  V30 29 2 28 30
M  V30 30 1 28 31
M  V30 31 1 31 32
M  V30 32 1 32 33
M  V30 33 1 6 7
M  V30 34 1 12 13
M  V30 35 1 15 17
M  V30 36 1 25 27
M  V30 END BOND
M  V30 END CTAB
M  END
>  <Compound ID>
121

>  <Name>
vemurafenib

>  <Uniprot>
Q9NYL2

>  <Target>
MAP3K20

>  <Smiles>
CCCS(=O)(=O)NC1=CC=C(F)C(C(=O)C2=C[NH]C3=NC=C(C4=CC=C(Cl)C=C4)C=C23)=C1F

>  <Kd (nM)>


>  <Assay (Kd)>


>  <Ki (nM)>


>  <Assay (Ki)>


>  <IC50 (nM)>
23

>  <Assay (IC50)>
Inhibition of MAP3K20

>  <EC50 (nM)>


>  <Assay (EC50)>


>  <Article DOI>
10.1021/acs.jmedchem.7b00572

>  <Molecular Weight>
489.931

>  <Exact Mass>
489.072546556

>  <XLogP3>
4.97

>  <Heavy Atom Count>
33

>  <Ring Count>
4

>  <Hydrogen Bond Acceptor Count>
4

>  <Hydrogen Bond Donor Count>
2

>  <Rotatable Bond Count>
7

>  <Topological Polar Surface Area>
91.92

>  <Molecular Formula>
C23H18ClF2N3O3S

>  <InChI>
InChI=1S/C23H18ClF2N3O3S/c1-2-9-33(31,32)29-19-8-7-18(25)20(21(19)26)22(30)17-12-28-23-16(17)10-14(11-27-23)13-3-5-15(24)6-4-13/h3-8,10-12,29H,2,9H2,1H3,(H,27,28)

>  <InChI Key>
GPXBXXGIAQBQNI-UHFFFAOYSA-N

>  <BindingDB>
50396483

>  <PubChem>
42611257

>  <ChEMBL>
CHEMBL1229517

$$$$
Compound 351
Actelion Java MolfileCreator 2.0

  0  0  0  0  0  0              0 V3000
M  V30 BEGIN CTAB
M  V30 COUNTS 40 44 0 0 0
M  V30 BEGIN ATOM
M  V30 1 S 0.0 0.0 0.0 0
M  V30 2 O 0.9589 1.1602 0.0 0
M  V30 3 O -0.9826 -1.1365 0.0 0
M  V30 4 N 1.1365 -0.9589 0.0 0
M  V30 5 C -1.1602 0.9826 0.0 0
M  V30 6 C 2.5454 -0.438 0.0 0
M  V30 7 C -0.8997 2.4744 0.0 0
M  V30 8 C 3.682 -1.397 0.0 0
M  V30 9 C 2.8059 1.0536 0.0 0
M  V30 10 C -2.06 3.457 0.0 0
M  V30 11 F 3.3978 -2.8651 0.0 0
M  V30 12 C 5.0908 -0.8761 0.0 0
M  V30 13 C 4.2147 1.5746 0.0 0
M  V30 14 N 6.2274 -1.835 0.0 0
M  V30 15 C 5.3513 0.6156 0.0 0
M  V30 16 C 7.6718 -1.468 0.0 0
M  V30 17 C 6.0972 -3.3268 0.0 0
M  V30 18 F 6.7602 1.1365 0.0 0
M  V30 19 C 8.4532 -2.7348 0.0 0
M  V30 20 C 8.3703 -0.1302 0.0 0
M  V30 21 C 7.4824 -3.8832 0.0 0
M  V30 22 N 9.9449 -2.6756 0.0 0
M  V30 23 C 9.8621 -0.071 0.0 0
M  V30 24 C 7.8257 -5.3276 0.0 0
M  V30 25 C 10.6435 -1.3378 0.0 0
M  V30 26 C 6.7247 -6.3576 0.0 0
M  V30 27 C 9.2583 -5.742 0.0 0
M  V30 28 N 12.1352 -1.2786 0.0 0
M  V30 29 N 7.068 -7.802 0.0 0
M  V30 30 N 9.6016 -7.1864 0.0 0
M  V30 31 C 12.8337 0.0591 0.0 0
M  V30 32 C 12.9166 -2.5454 0.0 0
M  V30 33 C 8.5006 -8.2164 0.0 0
M  V30 34 C 14.3255 0.1183 0.0 0
M  V30 35 C 12.0287 1.3496 0.0 0
M  V30 36 C 15.024 1.4562 0.0 0
M  V30 37 C 12.7272 2.6875 0.0 0
M  V30 38 N 14.2189 2.7467 0.0 0
M  V30 39 C 14.9174 4.0845 0.0 0
M  V30 40 C 16.4092 4.1437 0.0 0
M  V30 END ATOM
M  V30 BEGIN BOND
M  V30 1 2 1 2
M  V30 2 2 1 3
M  V30 3 1 1 4
M  V30 4 1 1 5
M  V30 5 1 4 6
M  V30 6 1 5 7
M  V30 7 2 6 8
M  V30 8 1 6 9
M  V30 9 1 7 10
M  V30 10 1 8 11
M  V30 11 1 8 12
M  V30 12 2 9 13
M  V30 13 1 12 14
M  V30 14 2 12 15
M  V30 15 1 14 16
M  V30 16 1 14 17
M  V30 17 1 15 18
M  V30 18 2 16 19
M  V30 19 1 16 20
M  V30 20 2 17 21
M  V30 21 1 19 22
M  V30 22 2 20 23
M  V30 23 1 21 24
M  V30 24 2 22 25
M  V30 25 2 24 26
M  V30 26 1 24 27
M  V30 27 1 25 28
M  V30 28 1 26 29
M  V30 29 2 27 30
M  V30 30 1 28 31
M  V30 31 1 28 32
M  V30 32 2 29 33
M  V30 33 1 31 34
M  V30 34 1 31 35
M  V30 35 1 34 36
M  V30 36 1 35 37
M  V30 37 1 36 38
M  V30 38 1 38 39
M  V30 39 1 39 40
M  V30 40 1 13 15
M  V30 41 1 19 21
M  V30 42 1 23 25
M  V30 43 1 30 33
M  V30 44 1 37 38
M  V30 END BOND
M  V30 END CTAB
M  END
>  <Compound ID>
122

>  <Name>
BI882370

>  <Uniprot>
P15056

>  <Target>
BRAF

>  <Smiles>
CCCS(=O)(=O)NC1=CC=C(F)C(N2C=C(C3=CN=CN=C3)C3=NC(N(C)C4CCN(CC)CC4)=CC=C32)=C1F

>  <Kd (nM)>
0.37

>  <Assay (Kd)>
Kd of BRAF WT was tested by the KINOMEscan

>  <Ki (nM)>


>  <Assay (Ki)>


>  <IC50 (nM)>


>  <Assay (IC50)>


>  <EC50 (nM)>


>  <Assay (EC50)>


>  <Article DOI>
10.1021/acs.jmedchem.9b02083

>  <Molecular Weight>
569.682

>  <Exact Mass>
569.238450736

>  <XLogP3>
4.06

>  <Heavy Atom Count>
40

>  <Ring Count>
5

>  <Hydrogen Bond Acceptor Count>
8

>  <Hydrogen Bond Donor Count>
1

>  <Rotatable Bond Count>
9

>  <Topological Polar Surface Area>
96.25

>  <Molecular Formula>
C28H33F2N7O2S

>  <InChI>
InChI=1S/C28H33F2N7O2S/c1-4-14-40(38,39)34-23-7-6-22(29)28(26(23)30)37-17-21(19-15-31-18-32-16-19)27-24(37)8-9-25(33-27)35(3)20-10-12-36(5-2)13-11-20/h6-9,15-18,20,34H,4-5,10-14H2,1-3H3

>  <InChI Key>
AEJACXAFHXBVHF-UHFFFAOYSA-N

>  <BindingDB>
50457446

>  <PubChem>
60152613

>  <ChEMBL>
CHEMBL4212692

$$$$
Compound 352
Actelion Java MolfileCreator 2.0

  0  0  0  0  0  0              0 V3000
M  V30 BEGIN CTAB
M  V30 COUNTS 40 44 0 0 0
M  V30 BEGIN ATOM
M  V30 1 S 0.0 0.0 0.0 0
M  V30 2 O 0.9589 1.1602 0.0 0
M  V30 3 O -0.9826 -1.1365 0.0 0
M  V30 4 N 1.1365 -0.9589 0.0 0
M  V30 5 C -1.1602 0.9826 0.0 0
M  V30 6 C 2.5454 -0.438 0.0 0
M  V30 7 C -0.8997 2.4744 0.0 0
M  V30 8 C 3.682 -1.397 0.0 0
M  V30 9 C 2.8059 1.0536 0.0 0
M  V30 10 C -2.06 3.457 0.0 0
M  V30 11 F 3.3978 -2.8651 0.0 0
M  V30 12 C 5.0908 -0.8761 0.0 0
M  V30 13 C 4.2147 1.5746 0.0 0
M  V30 14 N 6.2274 -1.835 0.0 0
M  V30 15 C 5.3513 0.6156 0.0 0
M  V30 16 C 7.6718 -1.468 0.0 0
M  V30 17 C 6.0972 -3.3268 0.0 0
M  V30 18 F 6.7602 1.1365 0.0 0
M  V30 19 C 8.4532 -2.7348 0.0 0
M  V30 20 C 8.3703 -0.1302 0.0 0
M  V30 21 C 7.4824 -3.8832 0.0 0
M  V30 22 N 9.9449 -2.6756 0.0 0
M  V30 23 C 9.8621 -0.071 0.0 0
M  V30 24 C 7.8257 -5.3276 0.0 0
M  V30 25 C 10.6435 -1.3378 0.0 0
M  V30 26 C 6.7247 -6.3576 0.0 0
M  V30 27 C 9.2583 -5.742 0.0 0
M  V30 28 N 12.1352 -1.2786 0.0 0
M  V30 29 N 7.068 -7.802 0.0 0
M  V30 30 N 9.6016 -7.1864 0.0 0
M  V30 31 C 12.8337 0.0591 0.0 0
M  V30 32 C 12.9166 -2.5454 0.0 0
M  V30 33 C 8.5006 -8.2164 0.0 0
M  V30 34 C 14.3255 0.1183 0.0 0
M  V30 35 C 12.0287 1.3496 0.0 0
M  V30 36 C 15.024 1.4562 0.0 0
M  V30 37 C 12.7272 2.6875 0.0 0
M  V30 38 N 14.2189 2.7467 0.0 0
M  V30 39 C 14.9174 4.0845 0.0 0
M  V30 40 C 16.4092 4.1437 0.0 0
M  V30 END ATOM
M  V30 BEGIN BOND
M  V30 1 2 1 2
M  V30 2 2 1 3
M  V30 3 1 1 4
M  V30 4 1 1 5
M  V30 5 1 4 6
M  V30 6 1 5 7
M  V30 7 2 6 8
M  V30 8 1 6 9
M  V30 9 1 7 10
M  V30 10 1 8 11
M  V30 11 1 8 12
M  V30 12 2 9 13
M  V30 13 1 12 14
M  V30 14 2 12 15
M  V30 15 1 14 16
M  V30 16 1 14 17
M  V30 17 1 15 18
M  V30 18 2 16 19
M  V30 19 1 16 20
M  V30 20 2 17 21
M  V30 21 1 19 22
M  V30 22 2 20 23
M  V30 23 1 21 24
M  V30 24 2 22 25
M  V30 25 2 24 26
M  V30 26 1 24 27
M  V30 27 1 25 28
M  V30 28 1 26 29
M  V30 29 2 27 30
M  V30 30 1 28 31
M  V30 31 1 28 32
M  V30 32 2 29 33
M  V30 33 1 31 34
M  V30 34 1 31 35
M  V30 35 1 34 36
M  V30 36 1 35 37
M  V30 37 1 36 38
M  V30 38 1 38 39
M  V30 39 1 39 40
M  V30 40 1 13 15
M  V30 41 1 19 21
M  V30 42 1 23 25
M  V30 43 1 30 33
M  V30 44 1 37 38
M  V30 END BOND
M  V30 END CTAB
M  END
>  <Compound ID>
122

>  <Name>
BI882370

>  <Uniprot>
P15056

>  <Target>
BRAF V600E

>  <Smiles>
CCCS(=O)(=O)NC1=CC=C(F)C(N2C=C(C3=CN=CN=C3)C3=NC(N(C)C4CCN(CC)CC4)=CC=C32)=C1F

>  <Kd (nM)>
0.33

>  <Assay (Kd)>
Kd of BRAF V600E was tested by the KINOMEscan

>  <Ki (nM)>


>  <Assay (Ki)>


>  <IC50 (nM)>


>  <Assay (IC50)>


>  <EC50 (nM)>


>  <Assay (EC50)>


>  <Article DOI>
10.1021/acs.jmedchem.9b02083

>  <Molecular Weight>
569.682

>  <Exact Mass>
569.238450736

>  <XLogP3>
4.06

>  <Heavy Atom Count>
40

>  <Ring Count>
5

>  <Hydrogen Bond Acceptor Count>
8

>  <Hydrogen Bond Donor Count>
1

>  <Rotatable Bond Count>
9

>  <Topological Polar Surface Area>
96.25

>  <Molecular Formula>
C28H33F2N7O2S

>  <InChI>
InChI=1S/C28H33F2N7O2S/c1-4-14-40(38,39)34-23-7-6-22(29)28(26(23)30)37-17-21(19-15-31-18-32-16-19)27-24(37)8-9-25(33-27)35(3)20-10-12-36(5-2)13-11-20/h6-9,15-18,20,34H,4-5,10-14H2,1-3H3

>  <InChI Key>
AEJACXAFHXBVHF-UHFFFAOYSA-N

>  <BindingDB>
50457446

>  <PubChem>
60152613

>  <ChEMBL>
CHEMBL4212692

$$$$
Compound 353
Actelion Java MolfileCreator 2.0

  0  0  0  0  0  0              0 V3000
M  V30 BEGIN CTAB
M  V30 COUNTS 41 44 0 0 0
M  V30 BEGIN ATOM
M  V30 1 F 0.0 0.0 0.0 0
M  V30 2 C 0.2488 -1.4693 0.0 0
M  V30 3 C 1.647 -1.967 0.0 0
M  V30 4 C -0.9124 -2.4291 0.0 0
M  V30 5 C 1.8959 -3.4363 0.0 0
M  V30 6 C -0.6635 -3.8985 0.0 0
M  V30 7 C 0.7346 -4.3961 0.0 0
M  V30 8 C 0.9835 -5.8655 0.0 0
M  V30 9 N -0.071 -6.9319 0.0 0
M  V30 10 C 2.3225 -6.5172 0.0 0
M  V30 11 C 0.628 -8.2472 0.0 0
M  V30 12 C -1.5759 -6.7068 0.0 0
M  V30 13 C 3.6378 -5.7944 0.0 0
M  V30 14 C 2.0973 -7.9984 0.0 0
M  V30 15 C -0.0473 -9.5862 0.0 0
M  V30 16 C -2.5121 -7.8799 0.0 0
M  V30 17 C 4.9057 -6.5765 0.0 0
M  V30 18 C 3.6733 -4.2776 0.0 0
M  V30 19 C 3.1638 -9.0293 0.0 0
M  V30 20 C -1.5641 -9.681 0.0 0
M  V30 21 C 0.782 -10.8186 0.0 0
M  V30 22 C -4.0169 -7.6548 0.0 0 CFG=1
M  V30 23 C 6.221 -5.8536 0.0 0
M  V30 24 C 4.9886 -3.5548 0.0 0
M  V30 25 O 4.5976 -8.6027 0.0 0
M  V30 26 N 2.7846 -10.475 0.0 0
M  V30 27 O -4.5976 -6.2447 0.0 0
M  V30 28 C -4.9531 -8.8279 0.0 0
M  V30 29 C 6.2565 -4.3369 0.0 0
M  V30 30 C 3.8511 -11.5059 0.0 0
M  V30 31 C -6.458 -8.6027 0.0 0 CFG=1
M  V30 32 C 3.4719 -12.9515 0.0 0
M  V30 33 C 5.2849 -11.0793 0.0 0
M  V30 34 O -7.0386 -7.1926 0.0 0
M  V30 35 C -7.3941 -9.7758 0.0 0
M  V30 36 C 4.5383 -13.9824 0.0 0
M  V30 37 C 6.3513 -12.1102 0.0 0
M  V30 38 C -8.899 -9.5507 0.0 0
M  V30 39 C 5.9721 -13.5558 0.0 0
M  V30 40 O -9.4796 -8.1406 0.0 0
M  V30 41 O -9.8351 -10.7238 0.0 0
M  V30 END ATOM
M  V30 BEGIN BOND
M  V30 1 1 1 2
M  V30 2 2 2 3
M  V30 3 1 2 4
M  V30 4 1 3 5
M  V30 5 2 4 6
M  V30 6 2 5 7
M  V30 7 1 7 8
M  V30 8 1 8 9
M  V30 9 2 8 10
M  V30 10 1 9 11
M  V30 11 1 9 12
M  V30 12 1 10 13
M  V30 13 1 10 14
M  V30 14 1 11 15
M  V30 15 1 12 16
M  V30 16 2 13 17
M  V30 17 1 13 18
M  V30 18 1 14 19
M  V30 19 1 15 20
M  V30 20 1 15 21
M  V30 21 1 16 22
M  V30 22 1 17 23
M  V30 23 2 18 24
M  V30 24 2 19 25
M  V30 25 1 19 26
M  V30 26 1 22 27 CFG=3
M  V30 27 1 22 28
M  V30 28 2 23 29
M  V30 29 1 26 30
M  V30 30 1 28 31
M  V30 31 2 30 32
M  V30 32 1 30 33
M  V30 33 1 31 34 CFG=3
M  V30 34 1 31 35
M  V30 35 1 32 36
M  V30 36 2 33 37
M  V30 37 1 35 38
M  V30 38 2 36 39
M  V30 39 2 38 40
M  V30 40 1 38 41
M  V30 41 1 6 7
M  V30 42 2 11 14
M  V30 43 1 24 29
M  V30 44 1 37 39
M  V30 END BOND
M  V30 BEGIN COLLECTION
M  V30 MDLV30/STEABS ATOMS=(2 22 31)
M  V30 END COLLECTION
M  V30 END CTAB
M  END
>  <Compound ID>
123

>  <Name>
Atorvastatin

>  <Uniprot>
P04035

>  <Target>
HMGCR

>  <Smiles>
CC(C)C1=C(C(=O)NC2=CC=CC=C2)C(C2=CC=CC=C2)=C(C2=CC=C(F)C=C2)N1CC[C@@H](O)C[C@@H](O)CC(=O)O

>  <Kd (nM)>


>  <Assay (Kd)>


>  <Ki (nM)>


>  <Assay (Ki)>


>  <IC50 (nM)>
12.9

>  <Assay (IC50)>
IC50 of HMGCR

>  <EC50 (nM)>


>  <Assay (EC50)>


>  <Article DOI>
10.1021/jm400179b

>  <Molecular Weight>
558.65

>  <Exact Mass>
558.25300044

>  <XLogP3>
4.96

>  <Heavy Atom Count>
41

>  <Ring Count>
4

>  <Hydrogen Bond Acceptor Count>
5

>  <Hydrogen Bond Donor Count>
4

>  <Rotatable Bond Count>
12

>  <Topological Polar Surface Area>
111.79

>  <Molecular Formula>
C33H35FN2O5

>  <InChI>
InChI=1S/C33H35FN2O5/c1-21(2)31-30(33(41)35-25-11-7-4-8-12-25)29(22-9-5-3-6-10-22)32(23-13-15-24(34)16-14-23)36(31)18-17-26(37)19-27(38)20-28(39)40/h3-16,21,26-27,37-38H,17-20H2,1-2H3,(H,35,41)(H,39,40)/t26-,27-/m1/s1

>  <InChI Key>
XUKUURHRXDUEBC-KAYWLYCHSA-N

>  <BindingDB>
22164

>  <PubChem>
60823

>  <ChEMBL>
CHEMBL1487

$$$$
Compound 354
Actelion Java MolfileCreator 2.0

  0  0  0  0  0  0              0 V3000
M  V30 BEGIN CTAB
M  V30 COUNTS 26 27 0 0 0
M  V30 BEGIN ATOM
M  V30 1 I 0.0 0.0 0.0 0
M  V30 2 C -1.4349 0.4591 0.0 0
M  V30 3 C -2.5484 -0.5395 0.0 0
M  V30 4 C -1.7793 1.9285 0.0 0
M  V30 5 C -3.9833 -0.0803 0.0 0
M  V30 6 C -3.2142 2.3877 0.0 0
M  V30 7 F -5.0968 -1.079 0.0 0
M  V30 8 C -4.3277 1.389 0.0 0
M  V30 9 N -5.7626 1.8481 0.0 0
M  V30 10 C -6.107 3.3175 0.0 0
M  V30 11 C -5.0165 4.3392 0.0 0
M  V30 12 C -7.5419 3.7767 0.0 0
M  V30 13 F -3.6045 3.903 0.0 0
M  V30 14 C -5.3608 5.8085 0.0 0
M  V30 15 C -8.6554 2.778 0.0 0
M  V30 16 C -7.8863 5.246 0.0 0
M  V30 17 F -4.2703 6.8302 0.0 0
M  V30 18 C -6.7958 6.2677 0.0 0
M  V30 19 O -8.334 1.3316 0.0 0
M  V30 20 N -10.0904 3.2371 0.0 0
M  V30 21 O -11.2039 2.2384 0.0 0
M  V30 22 C -12.6388 2.6976 0.0 0
M  V30 23 C -13.7523 1.6989 0.0 0 CFG=2
M  V30 24 O -13.4309 0.2525 0.0 0
M  V30 25 C -15.1872 2.1581 0.0 0
M  V30 26 O -16.3007 1.1594 0.0 0
M  V30 END ATOM
M  V30 BEGIN BOND
M  V30 1 1 1 2
M  V30 2 2 2 3
M  V30 3 1 2 4
M  V30 4 1 3 5
M  V30 5 2 4 6
M  V30 6 1 5 7
M  V30 7 2 5 8
M  V30 8 1 8 9
M  V30 9 1 9 10
M  V30 10 2 10 11
M  V30 11 1 10 12
M  V30 12 1 11 13
M  V30 13 1 11 14
M  V30 14 1 12 15
M  V30 15 2 12 16
M  V30 16 1 14 17
M  V30 17 2 14 18
M  V30 18 2 15 19
M  V30 19 1 15 20
M  V30 20 1 20 21
M  V30 21 1 21 22
M  V30 22 1 22 23
M  V30 23 1 23 24 CFG=3
M  V30 24 1 23 25
M  V30 25 1 25 26
M  V30 26 1 6 8
M  V30 27 1 16 18
M  V30 END BOND
M  V30 BEGIN COLLECTION
M  V30 MDLV30/STEABS ATOMS=(1 23)
M  V30 END COLLECTION
M  V30 END CTAB
M  END
>  <Compound ID>
124

>  <Name>
PD0325901

>  <Uniprot>
Q02750

>  <Target>
MEK1

>  <Smiles>
O=C(NOC[C@H](O)CO)C1=CC=C(F)C(F)=C1NC1=CC=C(I)C=C1F

>  <Kd (nM)>


>  <Assay (Kd)>


>  <Ki (nM)>


>  <Assay (Ki)>


>  <IC50 (nM)>
82

>  <Assay (IC50)>
IC50 of MEK1 was tested using the HotSpot kinase assay

>  <EC50 (nM)>


>  <Assay (EC50)>


>  <Article DOI>
10.1021/acs.jmedchem.9b01528

>  <Molecular Weight>
482.196

>  <Exact Mass>
481.995039588

>  <XLogP3>
2.99

>  <Heavy Atom Count>
26

>  <Ring Count>
2

>  <Hydrogen Bond Acceptor Count>
5

>  <Hydrogen Bond Donor Count>
4

>  <Rotatable Bond Count>
7

>  <Topological Polar Surface Area>
90.82

>  <Molecular Formula>
C16H14F3IN2O4

>  <InChI>
InChI=1S/C16H14F3IN2O4/c17-11-3-2-10(16(25)22-26-7-9(24)6-23)15(14(11)19)21-13-4-1-8(20)5-12(13)18/h1-5,9,21,23-24H,6-7H2,(H,22,25)/t9-/m1/s1

>  <InChI Key>
SUDAHWBOROXANE-SECBINFHSA-N

>  <BindingDB>
104963

>  <PubChem>
9826528

>  <ChEMBL>
CHEMBL507361

$$$$
Compound 355
Actelion Java MolfileCreator 2.0

  0  0  0  0  0  0              0 V3000
M  V30 BEGIN CTAB
M  V30 COUNTS 26 27 0 0 0
M  V30 BEGIN ATOM
M  V30 1 I 0.0 0.0 0.0 0
M  V30 2 C -1.4349 0.4591 0.0 0
M  V30 3 C -2.5484 -0.5395 0.0 0
M  V30 4 C -1.7793 1.9285 0.0 0
M  V30 5 C -3.9833 -0.0803 0.0 0
M  V30 6 C -3.2142 2.3877 0.0 0
M  V30 7 F -5.0968 -1.079 0.0 0
M  V30 8 C -4.3277 1.389 0.0 0
M  V30 9 N -5.7626 1.8481 0.0 0
M  V30 10 C -6.107 3.3175 0.0 0
M  V30 11 C -5.0165 4.3392 0.0 0
M  V30 12 C -7.5419 3.7767 0.0 0
M  V30 13 F -3.6045 3.903 0.0 0
M  V30 14 C -5.3608 5.8085 0.0 0
M  V30 15 C -8.6554 2.778 0.0 0
M  V30 16 C -7.8863 5.246 0.0 0
M  V30 17 F -4.2703 6.8302 0.0 0
M  V30 18 C -6.7958 6.2677 0.0 0
M  V30 19 O -8.334 1.3316 0.0 0
M  V30 20 N -10.0904 3.2371 0.0 0
M  V30 21 O -11.2039 2.2384 0.0 0
M  V30 22 C -12.6388 2.6976 0.0 0
M  V30 23 C -13.7523 1.6989 0.0 0 CFG=2
M  V30 24 O -13.4309 0.2525 0.0 0
M  V30 25 C -15.1872 2.1581 0.0 0
M  V30 26 O -16.3007 1.1594 0.0 0
M  V30 END ATOM
M  V30 BEGIN BOND
M  V30 1 1 1 2
M  V30 2 2 2 3
M  V30 3 1 2 4
M  V30 4 1 3 5
M  V30 5 2 4 6
M  V30 6 1 5 7
M  V30 7 2 5 8
M  V30 8 1 8 9
M  V30 9 1 9 10
M  V30 10 2 10 11
M  V30 11 1 10 12
M  V30 12 1 11 13
M  V30 13 1 11 14
M  V30 14 1 12 15
M  V30 15 2 12 16
M  V30 16 1 14 17
M  V30 17 2 14 18
M  V30 18 2 15 19
M  V30 19 1 15 20
M  V30 20 1 20 21
M  V30 21 1 21 22
M  V30 22 1 22 23
M  V30 23 1 23 24 CFG=3
M  V30 24 1 23 25
M  V30 25 1 25 26
M  V30 26 1 6 8
M  V30 27 1 16 18
M  V30 END BOND
M  V30 BEGIN COLLECTION
M  V30 MDLV30/STEABS ATOMS=(1 23)
M  V30 END COLLECTION
M  V30 END CTAB
M  END
>  <Compound ID>
124

>  <Name>
PD0325901

>  <Uniprot>
P36507

>  <Target>
MEK2

>  <Smiles>
O=C(NOC[C@H](O)CO)C1=CC=C(F)C(F)=C1NC1=CC=C(I)C=C1F

>  <Kd (nM)>


>  <Assay (Kd)>


>  <Ki (nM)>


>  <Assay (Ki)>


>  <IC50 (nM)>
110

>  <Assay (IC50)>
IC50 of MEK2 was tested using the HotSpot kinase assay

>  <EC50 (nM)>


>  <Assay (EC50)>


>  <Article DOI>
10.1021/acs.jmedchem.9b01528

>  <Molecular Weight>
482.196

>  <Exact Mass>
481.995039588

>  <XLogP3>
2.99

>  <Heavy Atom Count>
26

>  <Ring Count>
2

>  <Hydrogen Bond Acceptor Count>
5

>  <Hydrogen Bond Donor Count>
4

>  <Rotatable Bond Count>
7

>  <Topological Polar Surface Area>
90.82

>  <Molecular Formula>
C16H14F3IN2O4

>  <InChI>
InChI=1S/C16H14F3IN2O4/c17-11-3-2-10(16(25)22-26-7-9(24)6-23)15(14(11)19)21-13-4-1-8(20)5-12(13)18/h1-5,9,21,23-24H,6-7H2,(H,22,25)/t9-/m1/s1

>  <InChI Key>
SUDAHWBOROXANE-SECBINFHSA-N

>  <BindingDB>
104963

>  <PubChem>
9826528

>  <ChEMBL>
CHEMBL507361

$$$$
Compound 356
Actelion Java MolfileCreator 2.0

  0  0  0  0  0  0              0 V3000
M  V30 BEGIN CTAB
M  V30 COUNTS 32 35 0 0 0
M  V30 BEGIN ATOM
M  V30 1 S 0.0 0.0 0.0 0
M  V30 2 O -0.5684 -1.3855 0.0 0
M  V30 3 O -1.4802 0.3197 0.0 0
M  V30 4 C 0.0355 1.5158 0.0 0
M  V30 5 C 1.2671 -0.7815 0.0 0
M  V30 6 C 1.35 2.2382 0.0 0
M  V30 7 C 2.5816 -0.0592 0.0 0
M  V30 8 C 2.6171 1.4566 0.0 0
M  V30 9 N 3.9316 2.1789 0.0 0
M  V30 10 C 5.1987 1.3973 0.0 0
M  V30 11 N 5.1395 -0.0947 0.0 0
M  V30 12 C 6.5132 2.1197 0.0 0
M  V30 13 S 7.8514 1.4684 0.0 0
M  V30 14 C 6.7146 3.6237 0.0 0
M  V30 15 C 8.8817 2.5579 0.0 0
M  V30 16 C 8.183 3.8961 0.0 0
M  V30 17 C 10.3738 2.5224 0.0 0
M  V30 18 C 8.9646 5.1869 0.0 0
M  V30 19 C 11.0725 1.2079 0.0 0
M  V30 20 C 11.1554 3.8132 0.0 0
M  V30 21 O 8.2422 6.5251 0.0 0
M  V30 22 N 10.4567 5.1514 0.0 0
M  V30 23 C 12.5647 1.1723 0.0 0
M  V30 24 C 10.2673 -0.0592 0.0 0
M  V30 25 C 11.2383 6.4422 0.0 0
M  V30 26 C 13.2634 -0.1421 0.0 0
M  V30 27 C 10.966 -1.3737 0.0 0
M  V30 28 O 14.7555 -0.1776 0.0 0
M  V30 29 C 12.4581 -1.4092 0.0 0
M  V30 30 C 15.5371 1.1131 0.0 0
M  V30 31 O 13.1568 -2.7237 0.0 0
M  V30 32 C 12.3515 -3.9908 0.0 0
M  V30 END ATOM
M  V30 BEGIN BOND
M  V30 1 2 1 2
M  V30 2 2 1 3
M  V30 3 1 1 4
M  V30 4 1 1 5
M  V30 5 1 4 6
M  V30 6 1 5 7
M  V30 7 1 6 8
M  V30 8 1 8 9
M  V30 9 1 9 10
M  V30 10 2 10 11
M  V30 11 1 10 12
M  V30 12 1 12 13
M  V30 13 2 12 14
M  V30 14 1 13 15
M  V30 15 1 14 16
M  V30 16 1 15 17
M  V30 17 1 16 18
M  V30 18 1 17 19
M  V30 19 2 17 20
M  V30 20 2 18 21
M  V30 21 1 18 22
M  V30 22 2 19 23
M  V30 23 1 19 24
M  V30 24 1 22 25
M  V30 25 1 23 26
M  V30 26 2 24 27
M  V30 27 1 26 28
M  V30 28 2 26 29
M  V30 29 1 28 30
M  V30 30 1 29 31
M  V30 31 1 31 32
M  V30 32 1 7 8
M  V30 33 2 15 16
M  V30 34 1 20 22
M  V30 35 1 27 29
M  V30 END BOND
M  V30 END CTAB
M  END
>  <Compound ID>
125

>  <Name>
GSK-39

>  <Uniprot>
O60885

>  <Target>
BRD4

>  <Smiles>
COC1=CC=C(C2=CN(C)C(=O)C3=C2SC(C(=N)NC2CCS(=O)(=O)CC2)=C3)C=C1OC

>  <Kd (nM)>


>  <Assay (Kd)>


>  <Ki (nM)>


>  <Assay (Ki)>


>  <IC50 (nM)>
50

>  <Assay (IC50)>
IC50 of BRD4 BD1 was tested by the TR-FRET assay

>  <EC50 (nM)>


>  <Assay (EC50)>


>  <Article DOI>
10.1021/acs.jmedchem.5b00256

>  <Molecular Weight>
475.592

>  <Exact Mass>
475.1235629

>  <XLogP3>
1.98

>  <Heavy Atom Count>
32

>  <Ring Count>
4

>  <Hydrogen Bond Acceptor Count>
8

>  <Hydrogen Bond Donor Count>
2

>  <Rotatable Bond Count>
5

>  <Topological Polar Surface Area>
110.48

>  <Molecular Formula>
C22H25N3O5S2

>  <InChI>
InChI=1S/C22H25N3O5S2/c1-25-12-16(13-4-5-17(29-2)18(10-13)30-3)20-15(22(25)26)11-19(31-20)21(23)24-14-6-8-32(27,28)9-7-14/h4-5,10-12,14H,6-9H2,1-3H3,(H2,23,24)

>  <InChI Key>
KCZMLIMZGLNMQN-UHFFFAOYSA-N

>  <BindingDB>
50148456

>  <PubChem>
127025420

>  <ChEMBL>
CHEMBL3770188

$$$$
Compound 357
Actelion Java MolfileCreator 2.0

  0  0  0  0  0  0              0 V3000
M  V30 BEGIN CTAB
M  V30 COUNTS 32 35 0 0 0
M  V30 BEGIN ATOM
M  V30 1 S 0.0 0.0 0.0 0
M  V30 2 O -0.5684 -1.3855 0.0 0
M  V30 3 O -1.4802 0.3197 0.0 0
M  V30 4 C 0.0355 1.5158 0.0 0
M  V30 5 C 1.2671 -0.7815 0.0 0
M  V30 6 C 1.35 2.2382 0.0 0
M  V30 7 C 2.5816 -0.0592 0.0 0
M  V30 8 C 2.6171 1.4566 0.0 0
M  V30 9 N 3.9316 2.1789 0.0 0
M  V30 10 C 5.1987 1.3973 0.0 0
M  V30 11 N 5.1395 -0.0947 0.0 0
M  V30 12 C 6.5132 2.1197 0.0 0
M  V30 13 S 7.8514 1.4684 0.0 0
M  V30 14 C 6.7146 3.6237 0.0 0
M  V30 15 C 8.8817 2.5579 0.0 0
M  V30 16 C 8.183 3.8961 0.0 0
M  V30 17 C 10.3738 2.5224 0.0 0
M  V30 18 C 8.9646 5.1869 0.0 0
M  V30 19 C 11.0725 1.2079 0.0 0
M  V30 20 C 11.1554 3.8132 0.0 0
M  V30 21 O 8.2422 6.5251 0.0 0
M  V30 22 N 10.4567 5.1514 0.0 0
M  V30 23 C 12.5647 1.1723 0.0 0
M  V30 24 C 10.2673 -0.0592 0.0 0
M  V30 25 C 11.2383 6.4422 0.0 0
M  V30 26 C 13.2634 -0.1421 0.0 0
M  V30 27 C 10.966 -1.3737 0.0 0
M  V30 28 O 14.7555 -0.1776 0.0 0
M  V30 29 C 12.4581 -1.4092 0.0 0
M  V30 30 C 15.5371 1.1131 0.0 0
M  V30 31 O 13.1568 -2.7237 0.0 0
M  V30 32 C 12.3515 -3.9908 0.0 0
M  V30 END ATOM
M  V30 BEGIN BOND
M  V30 1 2 1 2
M  V30 2 2 1 3
M  V30 3 1 1 4
M  V30 4 1 1 5
M  V30 5 1 4 6
M  V30 6 1 5 7
M  V30 7 1 6 8
M  V30 8 1 8 9
M  V30 9 1 9 10
M  V30 10 2 10 11
M  V30 11 1 10 12
M  V30 12 1 12 13
M  V30 13 2 12 14
M  V30 14 1 13 15
M  V30 15 1 14 16
M  V30 16 1 15 17
M  V30 17 1 16 18
M  V30 18 1 17 19
M  V30 19 2 17 20
M  V30 20 2 18 21
M  V30 21 1 18 22
M  V30 22 2 19 23
M  V30 23 1 19 24
M  V30 24 1 22 25
M  V30 25 1 23 26
M  V30 26 2 24 27
M  V30 27 1 26 28
M  V30 28 2 26 29
M  V30 29 1 28 30
M  V30 30 1 29 31
M  V30 31 1 31 32
M  V30 32 1 7 8
M  V30 33 2 15 16
M  V30 34 1 20 22
M  V30 35 1 27 29
M  V30 END BOND
M  V30 END CTAB
M  END
>  <Compound ID>
125

>  <Name>
GSK-39

>  <Uniprot>
Q9NPI1

>  <Target>
BRD7

>  <Smiles>
COC1=CC=C(C2=CN(C)C(=O)C3=C2SC(C(=N)NC2CCS(=O)(=O)CC2)=C3)C=C1OC

>  <Kd (nM)>


>  <Assay (Kd)>


>  <Ki (nM)>


>  <Assay (Ki)>


>  <IC50 (nM)>


>  <Assay (IC50)>


>  <EC50 (nM)>


>  <Assay (EC50)>


>  <Article DOI>
10.1021/acs.jmedchem.5b00256

>  <Molecular Weight>
475.592

>  <Exact Mass>
475.1235629

>  <XLogP3>
1.98

>  <Heavy Atom Count>
32

>  <Ring Count>
4

>  <Hydrogen Bond Acceptor Count>
8

>  <Hydrogen Bond Donor Count>
2

>  <Rotatable Bond Count>
5

>  <Topological Polar Surface Area>
110.48

>  <Molecular Formula>
C22H25N3O5S2

>  <InChI>
InChI=1S/C22H25N3O5S2/c1-25-12-16(13-4-5-17(29-2)18(10-13)30-3)20-15(22(25)26)11-19(31-20)21(23)24-14-6-8-32(27,28)9-7-14/h4-5,10-12,14H,6-9H2,1-3H3,(H2,23,24)

>  <InChI Key>
KCZMLIMZGLNMQN-UHFFFAOYSA-N

>  <BindingDB>
50148456

>  <PubChem>
127025420

>  <ChEMBL>
CHEMBL3770188

$$$$
Compound 358
Actelion Java MolfileCreator 2.0

  0  0  0  0  0  0              0 V3000
M  V30 BEGIN CTAB
M  V30 COUNTS 32 35 0 0 0
M  V30 BEGIN ATOM
M  V30 1 S 0.0 0.0 0.0 0
M  V30 2 O -0.5684 -1.3855 0.0 0
M  V30 3 O -1.4802 0.3197 0.0 0
M  V30 4 C 0.0355 1.5158 0.0 0
M  V30 5 C 1.2671 -0.7815 0.0 0
M  V30 6 C 1.35 2.2382 0.0 0
M  V30 7 C 2.5816 -0.0592 0.0 0
M  V30 8 C 2.6171 1.4566 0.0 0
M  V30 9 N 3.9316 2.1789 0.0 0
M  V30 10 C 5.1987 1.3973 0.0 0
M  V30 11 N 5.1395 -0.0947 0.0 0
M  V30 12 C 6.5132 2.1197 0.0 0
M  V30 13 S 7.8514 1.4684 0.0 0
M  V30 14 C 6.7146 3.6237 0.0 0
M  V30 15 C 8.8817 2.5579 0.0 0
M  V30 16 C 8.183 3.8961 0.0 0
M  V30 17 C 10.3738 2.5224 0.0 0
M  V30 18 C 8.9646 5.1869 0.0 0
M  V30 19 C 11.0725 1.2079 0.0 0
M  V30 20 C 11.1554 3.8132 0.0 0
M  V30 21 O 8.2422 6.5251 0.0 0
M  V30 22 N 10.4567 5.1514 0.0 0
M  V30 23 C 12.5647 1.1723 0.0 0
M  V30 24 C 10.2673 -0.0592 0.0 0
M  V30 25 C 11.2383 6.4422 0.0 0
M  V30 26 C 13.2634 -0.1421 0.0 0
M  V30 27 C 10.966 -1.3737 0.0 0
M  V30 28 O 14.7555 -0.1776 0.0 0
M  V30 29 C 12.4581 -1.4092 0.0 0
M  V30 30 C 15.5371 1.1131 0.0 0
M  V30 31 O 13.1568 -2.7237 0.0 0
M  V30 32 C 12.3515 -3.9908 0.0 0
M  V30 END ATOM
M  V30 BEGIN BOND
M  V30 1 2 1 2
M  V30 2 2 1 3
M  V30 3 1 1 4
M  V30 4 1 1 5
M  V30 5 1 4 6
M  V30 6 1 5 7
M  V30 7 1 6 8
M  V30 8 1 8 9
M  V30 9 1 9 10
M  V30 10 2 10 11
M  V30 11 1 10 12
M  V30 12 1 12 13
M  V30 13 2 12 14
M  V30 14 1 13 15
M  V30 15 1 14 16
M  V30 16 1 15 17
M  V30 17 1 16 18
M  V30 18 1 17 19
M  V30 19 2 17 20
M  V30 20 2 18 21
M  V30 21 1 18 22
M  V30 22 2 19 23
M  V30 23 1 19 24
M  V30 24 1 22 25
M  V30 25 1 23 26
M  V30 26 2 24 27
M  V30 27 1 26 28
M  V30 28 2 26 29
M  V30 29 1 28 30
M  V30 30 1 29 31
M  V30 31 1 31 32
M  V30 32 1 7 8
M  V30 33 2 15 16
M  V30 34 1 20 22
M  V30 35 1 27 29
M  V30 END BOND
M  V30 END CTAB
M  END
>  <Compound ID>
125

>  <Name>
GSK-39

>  <Uniprot>
Q9H8M2

>  <Target>
BRD9

>  <Smiles>
COC1=CC=C(C2=CN(C)C(=O)C3=C2SC(C(=N)NC2CCS(=O)(=O)CC2)=C3)C=C1OC

>  <Kd (nM)>


>  <Assay (Kd)>


>  <Ki (nM)>


>  <Assay (Ki)>


>  <IC50 (nM)>
13

>  <Assay (IC50)>
IC50 was tested by the TR-FRET assay

>  <EC50 (nM)>


>  <Assay (EC50)>


>  <Article DOI>
10.1021/acs.jmedchem.5b00256

>  <Molecular Weight>
475.592

>  <Exact Mass>
475.1235629

>  <XLogP3>
1.98

>  <Heavy Atom Count>
32

>  <Ring Count>
4

>  <Hydrogen Bond Acceptor Count>
8

>  <Hydrogen Bond Donor Count>
2

>  <Rotatable Bond Count>
5

>  <Topological Polar Surface Area>
110.48

>  <Molecular Formula>
C22H25N3O5S2

>  <InChI>
InChI=1S/C22H25N3O5S2/c1-25-12-16(13-4-5-17(29-2)18(10-13)30-3)20-15(22(25)26)11-19(31-20)21(23)24-14-6-8-32(27,28)9-7-14/h4-5,10-12,14H,6-9H2,1-3H3,(H2,23,24)

>  <InChI Key>
KCZMLIMZGLNMQN-UHFFFAOYSA-N

>  <BindingDB>
50148456

>  <PubChem>
127025420

>  <ChEMBL>
CHEMBL3770188

$$$$
Compound 359
Actelion Java MolfileCreator 2.0

  0  0  0  0  0  0              0 V3000
M  V30 BEGIN CTAB
M  V30 COUNTS 18 20 0 0 0
M  V30 BEGIN ATOM
M  V30 1 S 0.0 0.0 0.0 0
M  V30 2 C -0.8975 -1.2046 0.0 0
M  V30 3 C 1.4172 -0.4606 0.0 0
M  V30 4 N -0.0354 -2.4093 0.0 0
M  V30 5 C -2.4093 -1.1928 0.0 0
M  V30 6 C 1.4054 -1.9487 0.0 0
M  V30 7 C 2.7046 0.2952 0.0 0
M  V30 8 C -3.1652 0.1181 0.0 0
M  V30 9 C -3.177 -2.4802 0.0 0
M  V30 10 C 2.6927 -2.6927 0.0 0
M  V30 11 C 3.9919 -0.4487 0.0 0
M  V30 12 C -4.6769 0.1299 0.0 0
M  V30 13 C -4.6887 -2.4683 0.0 0
M  V30 14 C 3.9801 -1.9369 0.0 0
M  V30 15 C 5.2792 0.307 0.0 0
M  V30 16 C -5.4446 -1.1574 0.0 0
M  V30 17 N -6.9563 -1.1456 0.0 0
M  V30 18 C -7.7122 0.1653 0.0 0
M  V30 END ATOM
M  V30 BEGIN BOND
M  V30 1 1 1 2
M  V30 2 1 1 3
M  V30 3 2 2 4
M  V30 4 1 2 5
M  V30 5 2 3 6
M  V30 6 1 3 7
M  V30 7 2 5 8
M  V30 8 1 5 9
M  V30 9 1 6 10
M  V30 10 2 7 11
M  V30 11 1 8 12
M  V30 12 2 9 13
M  V30 13 2 10 14
M  V30 14 1 11 15
M  V30 15 2 12 16
M  V30 16 1 16 17
M  V30 17 1 17 18
M  V30 18 1 4 6
M  V30 19 1 11 14
M  V30 20 1 13 16
M  V30 END BOND
M  V30 END CTAB
M  END
>  <Compound ID>
126

>  <Name>


>  <Uniprot>
P42858

>  <Target>
Htt

>  <Smiles>
CNC1=CC=C(C2=NC3=CC=C(C)C=C3S2)C=C1

>  <Kd (nM)>


>  <Assay (Kd)>


>  <Ki (nM)>


>  <Assay (Ki)>


>  <IC50 (nM)>


>  <Assay (IC50)>


>  <EC50 (nM)>


>  <Assay (EC50)>


>  <Article DOI>
10.1002/anie.201706529

>  <Molecular Weight>
254.358

>  <Exact Mass>
254.087769448

>  <XLogP3>
4.61

>  <Heavy Atom Count>
18

>  <Ring Count>
3

>  <Hydrogen Bond Acceptor Count>
3

>  <Hydrogen Bond Donor Count>
1

>  <Rotatable Bond Count>
2

>  <Topological Polar Surface Area>
24.92

>  <Molecular Formula>
C15H14N2S

>  <InChI>
InChI=1S/C15H14N2S/c1-10-3-8-13-14(9-10)18-15(17-13)11-4-6-12(16-2)7-5-11/h3-9,16H,1-2H3

>  <InChI Key>
GGFYWXBSNMOKOK-UHFFFAOYSA-N

>  <BindingDB>
50109051

>  <PubChem>
10422457

>  <ChEMBL>
CHEMBL330529

$$$$
Compound 360
Actelion Java MolfileCreator 2.0

  0  0  0  0  0  0              0 V3000
M  V30 BEGIN CTAB
M  V30 COUNTS 22 24 0 0 0
M  V30 BEGIN ATOM
M  V30 1 S 0.0 0.0 0.0 0
M  V30 2 C 1.0406 1.0874 0.0 0
M  V30 3 C -1.3564 0.6782 0.0 0
M  V30 4 N 0.3391 2.4321 0.0 0
M  V30 5 N 2.514 0.8769 0.0 0
M  V30 6 C -1.1459 2.1749 0.0 0
M  V30 7 C -2.7595 0.1403 0.0 0
M  V30 8 N 3.4377 2.0579 0.0 0
M  V30 9 C -2.3269 3.122 0.0 0
M  V30 10 C -3.9405 1.0874 0.0 0
M  V30 11 C 4.9111 1.8475 0.0 0
M  V30 12 C -3.7301 2.5841 0.0 0
M  V30 13 O -5.3437 0.5495 0.0 0
M  V30 14 C 5.4489 0.4677 0.0 0
M  V30 15 C 5.8348 3.0285 0.0 0
M  V30 16 C -6.5247 1.4967 0.0 0
M  V30 17 C 6.9223 0.2572 0.0 0
M  V30 18 C 7.3081 2.818 0.0 0
M  V30 19 C 7.846 1.4382 0.0 0
M  V30 20 N 9.3194 1.2277 0.0 0
M  V30 21 C 9.8572 -0.152 0.0 0
M  V30 22 C 10.2431 2.4087 0.0 0
M  V30 END ATOM
M  V30 BEGIN BOND
M  V30 1 1 1 2
M  V30 2 1 1 3
M  V30 3 2 2 4
M  V30 4 1 2 5
M  V30 5 2 3 6
M  V30 6 1 3 7
M  V30 7 2 5 8
M  V30 8 1 6 9
M  V30 9 2 7 10
M  V30 10 1 8 11
M  V30 11 2 9 12
M  V30 12 1 10 13
M  V30 13 2 11 14
M  V30 14 1 11 15
M  V30 15 1 13 16
M  V30 16 1 14 17
M  V30 17 2 15 18
M  V30 18 2 17 19
M  V30 19 1 19 20
M  V30 20 1 20 21
M  V30 21 1 20 22
M  V30 22 1 4 6
M  V30 23 1 10 12
M  V30 24 1 18 19
M  V30 END BOND
M  V30 END CTAB
M  END
>  <Compound ID>
127

>  <Name>


>  <Uniprot>
P42858

>  <Target>
Htt

>  <Smiles>
COC1=CC=C2N=C(/N=N/C3=CC=C(N(C)C)C=C3)SC2=C1

>  <Kd (nM)>


>  <Assay (Kd)>


>  <Ki (nM)>


>  <Assay (Ki)>


>  <IC50 (nM)>


>  <Assay (IC50)>


>  <EC50 (nM)>


>  <Assay (EC50)>


>  <Article DOI>
10.1002/anie.201706529

>  <Molecular Weight>
312.398

>  <Exact Mass>
312.104482132

>  <XLogP3>
4.64

>  <Heavy Atom Count>
22

>  <Ring Count>
3

>  <Hydrogen Bond Acceptor Count>
6

>  <Hydrogen Bond Donor Count>
0

>  <Rotatable Bond Count>
4

>  <Topological Polar Surface Area>
50.08

>  <Molecular Formula>
C16H16N4OS

>  <InChI>
InChI=1S/C16H16N4OS/c1-20(2)12-6-4-11(5-7-12)18-19-16-17-14-9-8-13(21-3)10-15(14)22-16/h4-10H,1-3H3/b19-18+

>  <InChI Key>
AVPFTROGVGTTEC-VHEBQXMUSA-N

>  <BindingDB>
50363719

>  <PubChem>
77390

>  <ChEMBL>
CHEMBL1378812

$$$$
Compound 361
Actelion Java MolfileCreator 2.0

  0  0  0  0  0  0              0 V3000
M  V30 BEGIN CTAB
M  V30 COUNTS 29 31 0 0 0
M  V30 BEGIN ATOM
M  V30 1 Br 0.0 0.0 0.0 0
M  V30 2 C -0.9116 1.2038 0.0 0
M  V30 3 C -0.3389 2.5946 0.0 0
M  V30 4 C -2.4076 1.0402 0.0 0
M  V30 5 N -1.2505 3.7984 0.0 0
M  V30 6 N 1.1337 2.7816 0.0 0
M  V30 7 N -3.3193 2.244 0.0 0
M  V30 8 C -2.7466 3.6348 0.0 0
M  V30 9 C 1.7064 4.1725 0.0 0
M  V30 10 N -3.6582 4.8386 0.0 0
M  V30 11 C 3.179 4.3595 0.0 0
M  V30 12 C 0.7947 5.3763 0.0 0
M  V30 13 C -5.1542 4.675 0.0 0
M  V30 14 C 3.7517 5.7503 0.0 0
M  V30 15 C 4.0673 3.179 0.0 0
M  V30 16 C 1.3674 6.7671 0.0 0
M  V30 17 C -6.0659 5.8789 0.0 0
M  V30 18 C -5.7503 3.3076 0.0 0
M  V30 19 F 5.2243 5.9373 0.0 0
M  V30 20 C 2.8401 6.9541 0.0 0
M  V30 21 O 3.4712 1.8115 0.0 0
M  V30 22 N 5.5399 3.366 0.0 0
M  V30 23 C -7.5619 5.7152 0.0 0
M  V30 24 C -7.2463 3.1439 0.0 0
M  V30 25 N -8.1579 4.3478 0.0 0
M  V30 26 S -9.654 4.1841 0.0 0
M  V30 27 O -9.4903 2.7115 0.0 0
M  V30 28 O -9.841 5.6802 0.0 0
M  V30 29 C -11.15 4.0205 0.0 0
M  V30 END ATOM
M  V30 BEGIN BOND
M  V30 1 1 1 2
M  V30 2 2 2 3
M  V30 3 1 2 4
M  V30 4 1 3 5
M  V30 5 1 3 6
M  V30 6 2 4 7
M  V30 7 2 5 8
M  V30 8 1 6 9
M  V30 9 1 8 10
M  V30 10 2 9 11
M  V30 11 1 9 12
M  V30 12 1 10 13
M  V30 13 1 11 14
M  V30 14 1 11 15
M  V30 15 2 12 16
M  V30 16 1 13 17
M  V30 17 1 13 18
M  V30 18 1 14 19
M  V30 19 2 14 20
M  V30 20 2 15 21
M  V30 21 1 15 22
M  V30 22 1 17 23
M  V30 23 1 18 24
M  V30 24 1 23 25
M  V30 25 1 25 26
M  V30 26 2 26 27
M  V30 27 2 26 28
M  V30 28 1 26 29
M  V30 29 1 7 8
M  V30 30 1 16 20
M  V30 31 1 24 25
M  V30 END BOND
M  V30 END CTAB
M  END
>  <Compound ID>
128

>  <Name>
TMX-2039

>  <Uniprot>
O14965

>  <Target>
AURKA

>  <Smiles>
CS(=O)(=O)N1CCC(NC2=NC=C(Br)C(NC3=CC=CC(F)=C3C(N)=O)=N2)CC1

>  <Kd (nM)>


>  <Assay (Kd)>


>  <Ki (nM)>


>  <Assay (Ki)>


>  <IC50 (nM)>


>  <Assay (IC50)>


>  <EC50 (nM)>


>  <Assay (EC50)>


>  <Article DOI>
10.1016/j.cell.2020.10.038

>  <Molecular Weight>
487.355

>  <Exact Mass>
486.04849982

>  <XLogP3>
2.46

>  <Heavy Atom Count>
29

>  <Ring Count>
3

>  <Hydrogen Bond Acceptor Count>
7

>  <Hydrogen Bond Donor Count>
3

>  <Rotatable Bond Count>
6

>  <Topological Polar Surface Area>
130.31

>  <Molecular Formula>
C17H20BrFN6O3S

>  <InChI>
InChI=1S/C17H20BrFN6O3S/c1-29(27,28)25-7-5-10(6-8-25)22-17-21-9-11(18)16(24-17)23-13-4-2-3-12(19)14(13)15(20)26/h2-4,9-10H,5-8H2,1H3,(H2,20,26)(H2,21,22,23,24)

>  <InChI Key>
WYMXMVOAIHZIFF-UHFFFAOYSA-N

>  <BindingDB>


>  <PubChem>
91800663

>  <ChEMBL>
CHEMBL3431194

$$$$
Compound 362
Actelion Java MolfileCreator 2.0

  0  0  0  0  0  0              0 V3000
M  V30 BEGIN CTAB
M  V30 COUNTS 29 31 0 0 0
M  V30 BEGIN ATOM
M  V30 1 Br 0.0 0.0 0.0 0
M  V30 2 C -0.9116 1.2038 0.0 0
M  V30 3 C -0.3389 2.5946 0.0 0
M  V30 4 C -2.4076 1.0402 0.0 0
M  V30 5 N -1.2505 3.7984 0.0 0
M  V30 6 N 1.1337 2.7816 0.0 0
M  V30 7 N -3.3193 2.244 0.0 0
M  V30 8 C -2.7466 3.6348 0.0 0
M  V30 9 C 1.7064 4.1725 0.0 0
M  V30 10 N -3.6582 4.8386 0.0 0
M  V30 11 C 3.179 4.3595 0.0 0
M  V30 12 C 0.7947 5.3763 0.0 0
M  V30 13 C -5.1542 4.675 0.0 0
M  V30 14 C 3.7517 5.7503 0.0 0
M  V30 15 C 4.0673 3.179 0.0 0
M  V30 16 C 1.3674 6.7671 0.0 0
M  V30 17 C -6.0659 5.8789 0.0 0
M  V30 18 C -5.7503 3.3076 0.0 0
M  V30 19 F 5.2243 5.9373 0.0 0
M  V30 20 C 2.8401 6.9541 0.0 0
M  V30 21 O 3.4712 1.8115 0.0 0
M  V30 22 N 5.5399 3.366 0.0 0
M  V30 23 C -7.5619 5.7152 0.0 0
M  V30 24 C -7.2463 3.1439 0.0 0
M  V30 25 N -8.1579 4.3478 0.0 0
M  V30 26 S -9.654 4.1841 0.0 0
M  V30 27 O -9.4903 2.7115 0.0 0
M  V30 28 O -9.841 5.6802 0.0 0
M  V30 29 C -11.15 4.0205 0.0 0
M  V30 END ATOM
M  V30 BEGIN BOND
M  V30 1 1 1 2
M  V30 2 2 2 3
M  V30 3 1 2 4
M  V30 4 1 3 5
M  V30 5 1 3 6
M  V30 6 2 4 7
M  V30 7 2 5 8
M  V30 8 1 6 9
M  V30 9 1 8 10
M  V30 10 2 9 11
M  V30 11 1 9 12
M  V30 12 1 10 13
M  V30 13 1 11 14
M  V30 14 1 11 15
M  V30 15 2 12 16
M  V30 16 1 13 17
M  V30 17 1 13 18
M  V30 18 1 14 19
M  V30 19 2 14 20
M  V30 20 2 15 21
M  V30 21 1 15 22
M  V30 22 1 17 23
M  V30 23 1 18 24
M  V30 24 1 23 25
M  V30 25 1 25 26
M  V30 26 2 26 27
M  V30 27 2 26 28
M  V30 28 1 26 29
M  V30 29 1 7 8
M  V30 30 1 16 20
M  V30 31 1 24 25
M  V30 END BOND
M  V30 END CTAB
M  END
>  <Compound ID>
128

>  <Name>
TMX-2039

>  <Uniprot>
Q9NYV4

>  <Target>
CDK12

>  <Smiles>
CS(=O)(=O)N1CCC(NC2=NC=C(Br)C(NC3=CC=CC(F)=C3C(N)=O)=N2)CC1

>  <Kd (nM)>


>  <Assay (Kd)>


>  <Ki (nM)>


>  <Assay (Ki)>


>  <IC50 (nM)>


>  <Assay (IC50)>


>  <EC50 (nM)>


>  <Assay (EC50)>


>  <Article DOI>
10.1016/j.cell.2020.10.038

>  <Molecular Weight>
487.355

>  <Exact Mass>
486.04849982

>  <XLogP3>
2.46

>  <Heavy Atom Count>
29

>  <Ring Count>
3

>  <Hydrogen Bond Acceptor Count>
7

>  <Hydrogen Bond Donor Count>
3

>  <Rotatable Bond Count>
6

>  <Topological Polar Surface Area>
130.31

>  <Molecular Formula>
C17H20BrFN6O3S

>  <InChI>
InChI=1S/C17H20BrFN6O3S/c1-29(27,28)25-7-5-10(6-8-25)22-17-21-9-11(18)16(24-17)23-13-4-2-3-12(19)14(13)15(20)26/h2-4,9-10H,5-8H2,1H3,(H2,20,26)(H2,21,22,23,24)

>  <InChI Key>
WYMXMVOAIHZIFF-UHFFFAOYSA-N

>  <BindingDB>


>  <PubChem>
91800663

>  <ChEMBL>
CHEMBL3431194

$$$$
Compound 363
Actelion Java MolfileCreator 2.0

  0  0  0  0  0  0              0 V3000
M  V30 BEGIN CTAB
M  V30 COUNTS 29 31 0 0 0
M  V30 BEGIN ATOM
M  V30 1 Br 0.0 0.0 0.0 0
M  V30 2 C -0.9116 1.2038 0.0 0
M  V30 3 C -0.3389 2.5946 0.0 0
M  V30 4 C -2.4076 1.0402 0.0 0
M  V30 5 N -1.2505 3.7984 0.0 0
M  V30 6 N 1.1337 2.7816 0.0 0
M  V30 7 N -3.3193 2.244 0.0 0
M  V30 8 C -2.7466 3.6348 0.0 0
M  V30 9 C 1.7064 4.1725 0.0 0
M  V30 10 N -3.6582 4.8386 0.0 0
M  V30 11 C 3.179 4.3595 0.0 0
M  V30 12 C 0.7947 5.3763 0.0 0
M  V30 13 C -5.1542 4.675 0.0 0
M  V30 14 C 3.7517 5.7503 0.0 0
M  V30 15 C 4.0673 3.179 0.0 0
M  V30 16 C 1.3674 6.7671 0.0 0
M  V30 17 C -6.0659 5.8789 0.0 0
M  V30 18 C -5.7503 3.3076 0.0 0
M  V30 19 F 5.2243 5.9373 0.0 0
M  V30 20 C 2.8401 6.9541 0.0 0
M  V30 21 O 3.4712 1.8115 0.0 0
M  V30 22 N 5.5399 3.366 0.0 0
M  V30 23 C -7.5619 5.7152 0.0 0
M  V30 24 C -7.2463 3.1439 0.0 0
M  V30 25 N -8.1579 4.3478 0.0 0
M  V30 26 S -9.654 4.1841 0.0 0
M  V30 27 O -9.4903 2.7115 0.0 0
M  V30 28 O -9.841 5.6802 0.0 0
M  V30 29 C -11.15 4.0205 0.0 0
M  V30 END ATOM
M  V30 BEGIN BOND
M  V30 1 1 1 2
M  V30 2 2 2 3
M  V30 3 1 2 4
M  V30 4 1 3 5
M  V30 5 1 3 6
M  V30 6 2 4 7
M  V30 7 2 5 8
M  V30 8 1 6 9
M  V30 9 1 8 10
M  V30 10 2 9 11
M  V30 11 1 9 12
M  V30 12 1 10 13
M  V30 13 1 11 14
M  V30 14 1 11 15
M  V30 15 2 12 16
M  V30 16 1 13 17
M  V30 17 1 13 18
M  V30 18 1 14 19
M  V30 19 2 14 20
M  V30 20 2 15 21
M  V30 21 1 15 22
M  V30 22 1 17 23
M  V30 23 1 18 24
M  V30 24 1 23 25
M  V30 25 1 25 26
M  V30 26 2 26 27
M  V30 27 2 26 28
M  V30 28 1 26 29
M  V30 29 1 7 8
M  V30 30 1 16 20
M  V30 31 1 24 25
M  V30 END BOND
M  V30 END CTAB
M  END
>  <Compound ID>
128

>  <Name>
TMX-2039

>  <Uniprot>
Q00536

>  <Target>
CDK16

>  <Smiles>
CS(=O)(=O)N1CCC(NC2=NC=C(Br)C(NC3=CC=CC(F)=C3C(N)=O)=N2)CC1

>  <Kd (nM)>


>  <Assay (Kd)>


>  <Ki (nM)>


>  <Assay (Ki)>


>  <IC50 (nM)>


>  <Assay (IC50)>


>  <EC50 (nM)>


>  <Assay (EC50)>


>  <Article DOI>
10.1016/j.cell.2020.10.038

>  <Molecular Weight>
487.355

>  <Exact Mass>
486.04849982

>  <XLogP3>
2.46

>  <Heavy Atom Count>
29

>  <Ring Count>
3

>  <Hydrogen Bond Acceptor Count>
7

>  <Hydrogen Bond Donor Count>
3

>  <Rotatable Bond Count>
6

>  <Topological Polar Surface Area>
130.31

>  <Molecular Formula>
C17H20BrFN6O3S

>  <InChI>
InChI=1S/C17H20BrFN6O3S/c1-29(27,28)25-7-5-10(6-8-25)22-17-21-9-11(18)16(24-17)23-13-4-2-3-12(19)14(13)15(20)26/h2-4,9-10H,5-8H2,1H3,(H2,20,26)(H2,21,22,23,24)

>  <InChI Key>
WYMXMVOAIHZIFF-UHFFFAOYSA-N

>  <BindingDB>


>  <PubChem>
91800663

>  <ChEMBL>
CHEMBL3431194

$$$$
Compound 364
Actelion Java MolfileCreator 2.0

  0  0  0  0  0  0              0 V3000
M  V30 BEGIN CTAB
M  V30 COUNTS 29 31 0 0 0
M  V30 BEGIN ATOM
M  V30 1 Br 0.0 0.0 0.0 0
M  V30 2 C -0.9116 1.2038 0.0 0
M  V30 3 C -0.3389 2.5946 0.0 0
M  V30 4 C -2.4076 1.0402 0.0 0
M  V30 5 N -1.2505 3.7984 0.0 0
M  V30 6 N 1.1337 2.7816 0.0 0
M  V30 7 N -3.3193 2.244 0.0 0
M  V30 8 C -2.7466 3.6348 0.0 0
M  V30 9 C 1.7064 4.1725 0.0 0
M  V30 10 N -3.6582 4.8386 0.0 0
M  V30 11 C 3.179 4.3595 0.0 0
M  V30 12 C 0.7947 5.3763 0.0 0
M  V30 13 C -5.1542 4.675 0.0 0
M  V30 14 C 3.7517 5.7503 0.0 0
M  V30 15 C 4.0673 3.179 0.0 0
M  V30 16 C 1.3674 6.7671 0.0 0
M  V30 17 C -6.0659 5.8789 0.0 0
M  V30 18 C -5.7503 3.3076 0.0 0
M  V30 19 F 5.2243 5.9373 0.0 0
M  V30 20 C 2.8401 6.9541 0.0 0
M  V30 21 O 3.4712 1.8115 0.0 0
M  V30 22 N 5.5399 3.366 0.0 0
M  V30 23 C -7.5619 5.7152 0.0 0
M  V30 24 C -7.2463 3.1439 0.0 0
M  V30 25 N -8.1579 4.3478 0.0 0
M  V30 26 S -9.654 4.1841 0.0 0
M  V30 27 O -9.4903 2.7115 0.0 0
M  V30 28 O -9.841 5.6802 0.0 0
M  V30 29 C -11.15 4.0205 0.0 0
M  V30 END ATOM
M  V30 BEGIN BOND
M  V30 1 1 1 2
M  V30 2 2 2 3
M  V30 3 1 2 4
M  V30 4 1 3 5
M  V30 5 1 3 6
M  V30 6 2 4 7
M  V30 7 2 5 8
M  V30 8 1 6 9
M  V30 9 1 8 10
M  V30 10 2 9 11
M  V30 11 1 9 12
M  V30 12 1 10 13
M  V30 13 1 11 14
M  V30 14 1 11 15
M  V30 15 2 12 16
M  V30 16 1 13 17
M  V30 17 1 13 18
M  V30 18 1 14 19
M  V30 19 2 14 20
M  V30 20 2 15 21
M  V30 21 1 15 22
M  V30 22 1 17 23
M  V30 23 1 18 24
M  V30 24 1 23 25
M  V30 25 1 25 26
M  V30 26 2 26 27
M  V30 27 2 26 28
M  V30 28 1 26 29
M  V30 29 1 7 8
M  V30 30 1 16 20
M  V30 31 1 24 25
M  V30 END BOND
M  V30 END CTAB
M  END
>  <Compound ID>
128

>  <Name>
TMX-2039

>  <Uniprot>
Q00537

>  <Target>
CDK17

>  <Smiles>
CS(=O)(=O)N1CCC(NC2=NC=C(Br)C(NC3=CC=CC(F)=C3C(N)=O)=N2)CC1

>  <Kd (nM)>


>  <Assay (Kd)>


>  <Ki (nM)>


>  <Assay (Ki)>


>  <IC50 (nM)>


>  <Assay (IC50)>


>  <EC50 (nM)>


>  <Assay (EC50)>


>  <Article DOI>
10.1016/j.cell.2020.10.038

>  <Molecular Weight>
487.355

>  <Exact Mass>
486.04849982

>  <XLogP3>
2.46

>  <Heavy Atom Count>
29

>  <Ring Count>
3

>  <Hydrogen Bond Acceptor Count>
7

>  <Hydrogen Bond Donor Count>
3

>  <Rotatable Bond Count>
6

>  <Topological Polar Surface Area>
130.31

>  <Molecular Formula>
C17H20BrFN6O3S

>  <InChI>
InChI=1S/C17H20BrFN6O3S/c1-29(27,28)25-7-5-10(6-8-25)22-17-21-9-11(18)16(24-17)23-13-4-2-3-12(19)14(13)15(20)26/h2-4,9-10H,5-8H2,1H3,(H2,20,26)(H2,21,22,23,24)

>  <InChI Key>
WYMXMVOAIHZIFF-UHFFFAOYSA-N

>  <BindingDB>


>  <PubChem>
91800663

>  <ChEMBL>
CHEMBL3431194

$$$$
Compound 365
Actelion Java MolfileCreator 2.0

  0  0  0  0  0  0              0 V3000
M  V30 BEGIN CTAB
M  V30 COUNTS 29 31 0 0 0
M  V30 BEGIN ATOM
M  V30 1 Br 0.0 0.0 0.0 0
M  V30 2 C -0.9116 1.2038 0.0 0
M  V30 3 C -0.3389 2.5946 0.0 0
M  V30 4 C -2.4076 1.0402 0.0 0
M  V30 5 N -1.2505 3.7984 0.0 0
M  V30 6 N 1.1337 2.7816 0.0 0
M  V30 7 N -3.3193 2.244 0.0 0
M  V30 8 C -2.7466 3.6348 0.0 0
M  V30 9 C 1.7064 4.1725 0.0 0
M  V30 10 N -3.6582 4.8386 0.0 0
M  V30 11 C 3.179 4.3595 0.0 0
M  V30 12 C 0.7947 5.3763 0.0 0
M  V30 13 C -5.1542 4.675 0.0 0
M  V30 14 C 3.7517 5.7503 0.0 0
M  V30 15 C 4.0673 3.179 0.0 0
M  V30 16 C 1.3674 6.7671 0.0 0
M  V30 17 C -6.0659 5.8789 0.0 0
M  V30 18 C -5.7503 3.3076 0.0 0
M  V30 19 F 5.2243 5.9373 0.0 0
M  V30 20 C 2.8401 6.9541 0.0 0
M  V30 21 O 3.4712 1.8115 0.0 0
M  V30 22 N 5.5399 3.366 0.0 0
M  V30 23 C -7.5619 5.7152 0.0 0
M  V30 24 C -7.2463 3.1439 0.0 0
M  V30 25 N -8.1579 4.3478 0.0 0
M  V30 26 S -9.654 4.1841 0.0 0
M  V30 27 O -9.4903 2.7115 0.0 0
M  V30 28 O -9.841 5.6802 0.0 0
M  V30 29 C -11.15 4.0205 0.0 0
M  V30 END ATOM
M  V30 BEGIN BOND
M  V30 1 1 1 2
M  V30 2 2 2 3
M  V30 3 1 2 4
M  V30 4 1 3 5
M  V30 5 1 3 6
M  V30 6 2 4 7
M  V30 7 2 5 8
M  V30 8 1 6 9
M  V30 9 1 8 10
M  V30 10 2 9 11
M  V30 11 1 9 12
M  V30 12 1 10 13
M  V30 13 1 11 14
M  V30 14 1 11 15
M  V30 15 2 12 16
M  V30 16 1 13 17
M  V30 17 1 13 18
M  V30 18 1 14 19
M  V30 19 2 14 20
M  V30 20 2 15 21
M  V30 21 1 15 22
M  V30 22 1 17 23
M  V30 23 1 18 24
M  V30 24 1 23 25
M  V30 25 1 25 26
M  V30 26 2 26 27
M  V30 27 2 26 28
M  V30 28 1 26 29
M  V30 29 1 7 8
M  V30 30 1 16 20
M  V30 31 1 24 25
M  V30 END BOND
M  V30 END CTAB
M  END
>  <Compound ID>
128

>  <Name>
TMX-2039

>  <Uniprot>
P06493

>  <Target>
CDK1

>  <Smiles>
CS(=O)(=O)N1CCC(NC2=NC=C(Br)C(NC3=CC=CC(F)=C3C(N)=O)=N2)CC1

>  <Kd (nM)>


>  <Assay (Kd)>


>  <Ki (nM)>


>  <Assay (Ki)>


>  <IC50 (nM)>
2.6

>  <Assay (IC50)>
IC50 of CDK1/cyclin B was tested by the Z'-LYTE assays

>  <EC50 (nM)>


>  <Assay (EC50)>


>  <Article DOI>
10.1002/anie.202004087

>  <Molecular Weight>
487.355

>  <Exact Mass>
486.04849982

>  <XLogP3>
2.46

>  <Heavy Atom Count>
29

>  <Ring Count>
3

>  <Hydrogen Bond Acceptor Count>
7

>  <Hydrogen Bond Donor Count>
3

>  <Rotatable Bond Count>
6

>  <Topological Polar Surface Area>
130.31

>  <Molecular Formula>
C17H20BrFN6O3S

>  <InChI>
InChI=1S/C17H20BrFN6O3S/c1-29(27,28)25-7-5-10(6-8-25)22-17-21-9-11(18)16(24-17)23-13-4-2-3-12(19)14(13)15(20)26/h2-4,9-10H,5-8H2,1H3,(H2,20,26)(H2,21,22,23,24)

>  <InChI Key>
WYMXMVOAIHZIFF-UHFFFAOYSA-N

>  <BindingDB>


>  <PubChem>
91800663

>  <ChEMBL>
CHEMBL3431194

$$$$
Compound 366
Actelion Java MolfileCreator 2.0

  0  0  0  0  0  0              0 V3000
M  V30 BEGIN CTAB
M  V30 COUNTS 29 31 0 0 0
M  V30 BEGIN ATOM
M  V30 1 Br 0.0 0.0 0.0 0
M  V30 2 C -0.9116 1.2038 0.0 0
M  V30 3 C -0.3389 2.5946 0.0 0
M  V30 4 C -2.4076 1.0402 0.0 0
M  V30 5 N -1.2505 3.7984 0.0 0
M  V30 6 N 1.1337 2.7816 0.0 0
M  V30 7 N -3.3193 2.244 0.0 0
M  V30 8 C -2.7466 3.6348 0.0 0
M  V30 9 C 1.7064 4.1725 0.0 0
M  V30 10 N -3.6582 4.8386 0.0 0
M  V30 11 C 3.179 4.3595 0.0 0
M  V30 12 C 0.7947 5.3763 0.0 0
M  V30 13 C -5.1542 4.675 0.0 0
M  V30 14 C 3.7517 5.7503 0.0 0
M  V30 15 C 4.0673 3.179 0.0 0
M  V30 16 C 1.3674 6.7671 0.0 0
M  V30 17 C -6.0659 5.8789 0.0 0
M  V30 18 C -5.7503 3.3076 0.0 0
M  V30 19 F 5.2243 5.9373 0.0 0
M  V30 20 C 2.8401 6.9541 0.0 0
M  V30 21 O 3.4712 1.8115 0.0 0
M  V30 22 N 5.5399 3.366 0.0 0
M  V30 23 C -7.5619 5.7152 0.0 0
M  V30 24 C -7.2463 3.1439 0.0 0
M  V30 25 N -8.1579 4.3478 0.0 0
M  V30 26 S -9.654 4.1841 0.0 0
M  V30 27 O -9.4903 2.7115 0.0 0
M  V30 28 O -9.841 5.6802 0.0 0
M  V30 29 C -11.15 4.0205 0.0 0
M  V30 END ATOM
M  V30 BEGIN BOND
M  V30 1 1 1 2
M  V30 2 2 2 3
M  V30 3 1 2 4
M  V30 4 1 3 5
M  V30 5 1 3 6
M  V30 6 2 4 7
M  V30 7 2 5 8
M  V30 8 1 6 9
M  V30 9 1 8 10
M  V30 10 2 9 11
M  V30 11 1 9 12
M  V30 12 1 10 13
M  V30 13 1 11 14
M  V30 14 1 11 15
M  V30 15 2 12 16
M  V30 16 1 13 17
M  V30 17 1 13 18
M  V30 18 1 14 19
M  V30 19 2 14 20
M  V30 20 2 15 21
M  V30 21 1 15 22
M  V30 22 1 17 23
M  V30 23 1 18 24
M  V30 24 1 23 25
M  V30 25 1 25 26
M  V30 26 2 26 27
M  V30 27 2 26 28
M  V30 28 1 26 29
M  V30 29 1 7 8
M  V30 30 1 16 20
M  V30 31 1 24 25
M  V30 END BOND
M  V30 END CTAB
M  END
>  <Compound ID>
128

>  <Name>
TMX-2039

>  <Uniprot>
P24941

>  <Target>
CDK2

>  <Smiles>
CS(=O)(=O)N1CCC(NC2=NC=C(Br)C(NC3=CC=CC(F)=C3C(N)=O)=N2)CC1

>  <Kd (nM)>


>  <Assay (Kd)>


>  <Ki (nM)>


>  <Assay (Ki)>


>  <IC50 (nM)>
1

>  <Assay (IC50)>
IC50 of CDK2/cyclin A was tested by the Z'-LYTE assays

>  <EC50 (nM)>


>  <Assay (EC50)>


>  <Article DOI>
10.1002/anie.202004087

>  <Molecular Weight>
487.355

>  <Exact Mass>
486.04849982

>  <XLogP3>
2.46

>  <Heavy Atom Count>
29

>  <Ring Count>
3

>  <Hydrogen Bond Acceptor Count>
7

>  <Hydrogen Bond Donor Count>
3

>  <Rotatable Bond Count>
6

>  <Topological Polar Surface Area>
130.31

>  <Molecular Formula>
C17H20BrFN6O3S

>  <InChI>
InChI=1S/C17H20BrFN6O3S/c1-29(27,28)25-7-5-10(6-8-25)22-17-21-9-11(18)16(24-17)23-13-4-2-3-12(19)14(13)15(20)26/h2-4,9-10H,5-8H2,1H3,(H2,20,26)(H2,21,22,23,24)

>  <InChI Key>
WYMXMVOAIHZIFF-UHFFFAOYSA-N

>  <BindingDB>


>  <PubChem>
91800663

>  <ChEMBL>
CHEMBL3431194

$$$$
Compound 367
Actelion Java MolfileCreator 2.0

  0  0  0  0  0  0              0 V3000
M  V30 BEGIN CTAB
M  V30 COUNTS 29 31 0 0 0
M  V30 BEGIN ATOM
M  V30 1 Br 0.0 0.0 0.0 0
M  V30 2 C -0.9116 1.2038 0.0 0
M  V30 3 C -0.3389 2.5946 0.0 0
M  V30 4 C -2.4076 1.0402 0.0 0
M  V30 5 N -1.2505 3.7984 0.0 0
M  V30 6 N 1.1337 2.7816 0.0 0
M  V30 7 N -3.3193 2.244 0.0 0
M  V30 8 C -2.7466 3.6348 0.0 0
M  V30 9 C 1.7064 4.1725 0.0 0
M  V30 10 N -3.6582 4.8386 0.0 0
M  V30 11 C 3.179 4.3595 0.0 0
M  V30 12 C 0.7947 5.3763 0.0 0
M  V30 13 C -5.1542 4.675 0.0 0
M  V30 14 C 3.7517 5.7503 0.0 0
M  V30 15 C 4.0673 3.179 0.0 0
M  V30 16 C 1.3674 6.7671 0.0 0
M  V30 17 C -6.0659 5.8789 0.0 0
M  V30 18 C -5.7503 3.3076 0.0 0
M  V30 19 F 5.2243 5.9373 0.0 0
M  V30 20 C 2.8401 6.9541 0.0 0
M  V30 21 O 3.4712 1.8115 0.0 0
M  V30 22 N 5.5399 3.366 0.0 0
M  V30 23 C -7.5619 5.7152 0.0 0
M  V30 24 C -7.2463 3.1439 0.0 0
M  V30 25 N -8.1579 4.3478 0.0 0
M  V30 26 S -9.654 4.1841 0.0 0
M  V30 27 O -9.4903 2.7115 0.0 0
M  V30 28 O -9.841 5.6802 0.0 0
M  V30 29 C -11.15 4.0205 0.0 0
M  V30 END ATOM
M  V30 BEGIN BOND
M  V30 1 1 1 2
M  V30 2 2 2 3
M  V30 3 1 2 4
M  V30 4 1 3 5
M  V30 5 1 3 6
M  V30 6 2 4 7
M  V30 7 2 5 8
M  V30 8 1 6 9
M  V30 9 1 8 10
M  V30 10 2 9 11
M  V30 11 1 9 12
M  V30 12 1 10 13
M  V30 13 1 11 14
M  V30 14 1 11 15
M  V30 15 2 12 16
M  V30 16 1 13 17
M  V30 17 1 13 18
M  V30 18 1 14 19
M  V30 19 2 14 20
M  V30 20 2 15 21
M  V30 21 1 15 22
M  V30 22 1 17 23
M  V30 23 1 18 24
M  V30 24 1 23 25
M  V30 25 1 25 26
M  V30 26 2 26 27
M  V30 27 2 26 28
M  V30 28 1 26 29
M  V30 29 1 7 8
M  V30 30 1 16 20
M  V30 31 1 24 25
M  V30 END BOND
M  V30 END CTAB
M  END
>  <Compound ID>
128

>  <Name>
TMX-2039

>  <Uniprot>
P11802

>  <Target>
CDK4

>  <Smiles>
CS(=O)(=O)N1CCC(NC2=NC=C(Br)C(NC3=CC=CC(F)=C3C(N)=O)=N2)CC1

>  <Kd (nM)>


>  <Assay (Kd)>


>  <Ki (nM)>


>  <Assay (Ki)>


>  <IC50 (nM)>
52.1

>  <Assay (IC50)>
IC50 of CDK4/cyclin D1 was tested by the Adapta assays

>  <EC50 (nM)>


>  <Assay (EC50)>


>  <Article DOI>
10.1002/anie.202004087

>  <Molecular Weight>
487.355

>  <Exact Mass>
486.04849982

>  <XLogP3>
2.46

>  <Heavy Atom Count>
29

>  <Ring Count>
3

>  <Hydrogen Bond Acceptor Count>
7

>  <Hydrogen Bond Donor Count>
3

>  <Rotatable Bond Count>
6

>  <Topological Polar Surface Area>
130.31

>  <Molecular Formula>
C17H20BrFN6O3S

>  <InChI>
InChI=1S/C17H20BrFN6O3S/c1-29(27,28)25-7-5-10(6-8-25)22-17-21-9-11(18)16(24-17)23-13-4-2-3-12(19)14(13)15(20)26/h2-4,9-10H,5-8H2,1H3,(H2,20,26)(H2,21,22,23,24)

>  <InChI Key>
WYMXMVOAIHZIFF-UHFFFAOYSA-N

>  <BindingDB>


>  <PubChem>
91800663

>  <ChEMBL>
CHEMBL3431194

$$$$
Compound 368
Actelion Java MolfileCreator 2.0

  0  0  0  0  0  0              0 V3000
M  V30 BEGIN CTAB
M  V30 COUNTS 29 31 0 0 0
M  V30 BEGIN ATOM
M  V30 1 Br 0.0 0.0 0.0 0
M  V30 2 C -0.9116 1.2038 0.0 0
M  V30 3 C -0.3389 2.5946 0.0 0
M  V30 4 C -2.4076 1.0402 0.0 0
M  V30 5 N -1.2505 3.7984 0.0 0
M  V30 6 N 1.1337 2.7816 0.0 0
M  V30 7 N -3.3193 2.244 0.0 0
M  V30 8 C -2.7466 3.6348 0.0 0
M  V30 9 C 1.7064 4.1725 0.0 0
M  V30 10 N -3.6582 4.8386 0.0 0
M  V30 11 C 3.179 4.3595 0.0 0
M  V30 12 C 0.7947 5.3763 0.0 0
M  V30 13 C -5.1542 4.675 0.0 0
M  V30 14 C 3.7517 5.7503 0.0 0
M  V30 15 C 4.0673 3.179 0.0 0
M  V30 16 C 1.3674 6.7671 0.0 0
M  V30 17 C -6.0659 5.8789 0.0 0
M  V30 18 C -5.7503 3.3076 0.0 0
M  V30 19 F 5.2243 5.9373 0.0 0
M  V30 20 C 2.8401 6.9541 0.0 0
M  V30 21 O 3.4712 1.8115 0.0 0
M  V30 22 N 5.5399 3.366 0.0 0
M  V30 23 C -7.5619 5.7152 0.0 0
M  V30 24 C -7.2463 3.1439 0.0 0
M  V30 25 N -8.1579 4.3478 0.0 0
M  V30 26 S -9.654 4.1841 0.0 0
M  V30 27 O -9.4903 2.7115 0.0 0
M  V30 28 O -9.841 5.6802 0.0 0
M  V30 29 C -11.15 4.0205 0.0 0
M  V30 END ATOM
M  V30 BEGIN BOND
M  V30 1 1 1 2
M  V30 2 2 2 3
M  V30 3 1 2 4
M  V30 4 1 3 5
M  V30 5 1 3 6
M  V30 6 2 4 7
M  V30 7 2 5 8
M  V30 8 1 6 9
M  V30 9 1 8 10
M  V30 10 2 9 11
M  V30 11 1 9 12
M  V30 12 1 10 13
M  V30 13 1 11 14
M  V30 14 1 11 15
M  V30 15 2 12 16
M  V30 16 1 13 17
M  V30 17 1 13 18
M  V30 18 1 14 19
M  V30 19 2 14 20
M  V30 20 2 15 21
M  V30 21 1 15 22
M  V30 22 1 17 23
M  V30 23 1 18 24
M  V30 24 1 23 25
M  V30 25 1 25 26
M  V30 26 2 26 27
M  V30 27 2 26 28
M  V30 28 1 26 29
M  V30 29 1 7 8
M  V30 30 1 16 20
M  V30 31 1 24 25
M  V30 END BOND
M  V30 END CTAB
M  END
>  <Compound ID>
128

>  <Name>
TMX-2039

>  <Uniprot>
Q00535

>  <Target>
CDK5

>  <Smiles>
CS(=O)(=O)N1CCC(NC2=NC=C(Br)C(NC3=CC=CC(F)=C3C(N)=O)=N2)CC1

>  <Kd (nM)>


>  <Assay (Kd)>


>  <Ki (nM)>


>  <Assay (Ki)>


>  <IC50 (nM)>
0.5

>  <Assay (IC50)>
IC50 of CDK5/p25 was tested by the Z'-LYTE assays

>  <EC50 (nM)>


>  <Assay (EC50)>


>  <Article DOI>
10.1002/anie.202004087

>  <Molecular Weight>
487.355

>  <Exact Mass>
486.04849982

>  <XLogP3>
2.46

>  <Heavy Atom Count>
29

>  <Ring Count>
3

>  <Hydrogen Bond Acceptor Count>
7

>  <Hydrogen Bond Donor Count>
3

>  <Rotatable Bond Count>
6

>  <Topological Polar Surface Area>
130.31

>  <Molecular Formula>
C17H20BrFN6O3S

>  <InChI>
InChI=1S/C17H20BrFN6O3S/c1-29(27,28)25-7-5-10(6-8-25)22-17-21-9-11(18)16(24-17)23-13-4-2-3-12(19)14(13)15(20)26/h2-4,9-10H,5-8H2,1H3,(H2,20,26)(H2,21,22,23,24)

>  <InChI Key>
WYMXMVOAIHZIFF-UHFFFAOYSA-N

>  <BindingDB>


>  <PubChem>
91800663

>  <ChEMBL>
CHEMBL3431194

$$$$
Compound 369
Actelion Java MolfileCreator 2.0

  0  0  0  0  0  0              0 V3000
M  V30 BEGIN CTAB
M  V30 COUNTS 29 31 0 0 0
M  V30 BEGIN ATOM
M  V30 1 Br 0.0 0.0 0.0 0
M  V30 2 C -0.9116 1.2038 0.0 0
M  V30 3 C -0.3389 2.5946 0.0 0
M  V30 4 C -2.4076 1.0402 0.0 0
M  V30 5 N -1.2505 3.7984 0.0 0
M  V30 6 N 1.1337 2.7816 0.0 0
M  V30 7 N -3.3193 2.244 0.0 0
M  V30 8 C -2.7466 3.6348 0.0 0
M  V30 9 C 1.7064 4.1725 0.0 0
M  V30 10 N -3.6582 4.8386 0.0 0
M  V30 11 C 3.179 4.3595 0.0 0
M  V30 12 C 0.7947 5.3763 0.0 0
M  V30 13 C -5.1542 4.675 0.0 0
M  V30 14 C 3.7517 5.7503 0.0 0
M  V30 15 C 4.0673 3.179 0.0 0
M  V30 16 C 1.3674 6.7671 0.0 0
M  V30 17 C -6.0659 5.8789 0.0 0
M  V30 18 C -5.7503 3.3076 0.0 0
M  V30 19 F 5.2243 5.9373 0.0 0
M  V30 20 C 2.8401 6.9541 0.0 0
M  V30 21 O 3.4712 1.8115 0.0 0
M  V30 22 N 5.5399 3.366 0.0 0
M  V30 23 C -7.5619 5.7152 0.0 0
M  V30 24 C -7.2463 3.1439 0.0 0
M  V30 25 N -8.1579 4.3478 0.0 0
M  V30 26 S -9.654 4.1841 0.0 0
M  V30 27 O -9.4903 2.7115 0.0 0
M  V30 28 O -9.841 5.6802 0.0 0
M  V30 29 C -11.15 4.0205 0.0 0
M  V30 END ATOM
M  V30 BEGIN BOND
M  V30 1 1 1 2
M  V30 2 2 2 3
M  V30 3 1 2 4
M  V30 4 1 3 5
M  V30 5 1 3 6
M  V30 6 2 4 7
M  V30 7 2 5 8
M  V30 8 1 6 9
M  V30 9 1 8 10
M  V30 10 2 9 11
M  V30 11 1 9 12
M  V30 12 1 10 13
M  V30 13 1 11 14
M  V30 14 1 11 15
M  V30 15 2 12 16
M  V30 16 1 13 17
M  V30 17 1 13 18
M  V30 18 1 14 19
M  V30 19 2 14 20
M  V30 20 2 15 21
M  V30 21 1 15 22
M  V30 22 1 17 23
M  V30 23 1 18 24
M  V30 24 1 23 25
M  V30 25 1 25 26
M  V30 26 2 26 27
M  V30 27 2 26 28
M  V30 28 1 26 29
M  V30 29 1 7 8
M  V30 30 1 16 20
M  V30 31 1 24 25
M  V30 END BOND
M  V30 END CTAB
M  END
>  <Compound ID>
128

>  <Name>
TMX-2039

>  <Uniprot>
Q00534

>  <Target>
CDK6

>  <Smiles>
CS(=O)(=O)N1CCC(NC2=NC=C(Br)C(NC3=CC=CC(F)=C3C(N)=O)=N2)CC1

>  <Kd (nM)>


>  <Assay (Kd)>


>  <Ki (nM)>


>  <Assay (Ki)>


>  <IC50 (nM)>
35

>  <Assay (IC50)>
IC50 of CDK6/cyclin D1 was tested by the Adapta assays

>  <EC50 (nM)>


>  <Assay (EC50)>


>  <Article DOI>
10.1002/anie.202004087

>  <Molecular Weight>
487.355

>  <Exact Mass>
486.04849982

>  <XLogP3>
2.46

>  <Heavy Atom Count>
29

>  <Ring Count>
3

>  <Hydrogen Bond Acceptor Count>
7

>  <Hydrogen Bond Donor Count>
3

>  <Rotatable Bond Count>
6

>  <Topological Polar Surface Area>
130.31

>  <Molecular Formula>
C17H20BrFN6O3S

>  <InChI>
InChI=1S/C17H20BrFN6O3S/c1-29(27,28)25-7-5-10(6-8-25)22-17-21-9-11(18)16(24-17)23-13-4-2-3-12(19)14(13)15(20)26/h2-4,9-10H,5-8H2,1H3,(H2,20,26)(H2,21,22,23,24)

>  <InChI Key>
WYMXMVOAIHZIFF-UHFFFAOYSA-N

>  <BindingDB>


>  <PubChem>
91800663

>  <ChEMBL>
CHEMBL3431194

$$$$
Compound 370
Actelion Java MolfileCreator 2.0

  0  0  0  0  0  0              0 V3000
M  V30 BEGIN CTAB
M  V30 COUNTS 29 31 0 0 0
M  V30 BEGIN ATOM
M  V30 1 Br 0.0 0.0 0.0 0
M  V30 2 C -0.9116 1.2038 0.0 0
M  V30 3 C -0.3389 2.5946 0.0 0
M  V30 4 C -2.4076 1.0402 0.0 0
M  V30 5 N -1.2505 3.7984 0.0 0
M  V30 6 N 1.1337 2.7816 0.0 0
M  V30 7 N -3.3193 2.244 0.0 0
M  V30 8 C -2.7466 3.6348 0.0 0
M  V30 9 C 1.7064 4.1725 0.0 0
M  V30 10 N -3.6582 4.8386 0.0 0
M  V30 11 C 3.179 4.3595 0.0 0
M  V30 12 C 0.7947 5.3763 0.0 0
M  V30 13 C -5.1542 4.675 0.0 0
M  V30 14 C 3.7517 5.7503 0.0 0
M  V30 15 C 4.0673 3.179 0.0 0
M  V30 16 C 1.3674 6.7671 0.0 0
M  V30 17 C -6.0659 5.8789 0.0 0
M  V30 18 C -5.7503 3.3076 0.0 0
M  V30 19 F 5.2243 5.9373 0.0 0
M  V30 20 C 2.8401 6.9541 0.0 0
M  V30 21 O 3.4712 1.8115 0.0 0
M  V30 22 N 5.5399 3.366 0.0 0
M  V30 23 C -7.5619 5.7152 0.0 0
M  V30 24 C -7.2463 3.1439 0.0 0
M  V30 25 N -8.1579 4.3478 0.0 0
M  V30 26 S -9.654 4.1841 0.0 0
M  V30 27 O -9.4903 2.7115 0.0 0
M  V30 28 O -9.841 5.6802 0.0 0
M  V30 29 C -11.15 4.0205 0.0 0
M  V30 END ATOM
M  V30 BEGIN BOND
M  V30 1 1 1 2
M  V30 2 2 2 3
M  V30 3 1 2 4
M  V30 4 1 3 5
M  V30 5 1 3 6
M  V30 6 2 4 7
M  V30 7 2 5 8
M  V30 8 1 6 9
M  V30 9 1 8 10
M  V30 10 2 9 11
M  V30 11 1 9 12
M  V30 12 1 10 13
M  V30 13 1 11 14
M  V30 14 1 11 15
M  V30 15 2 12 16
M  V30 16 1 13 17
M  V30 17 1 13 18
M  V30 18 1 14 19
M  V30 19 2 14 20
M  V30 20 2 15 21
M  V30 21 1 15 22
M  V30 22 1 17 23
M  V30 23 1 18 24
M  V30 24 1 23 25
M  V30 25 1 25 26
M  V30 26 2 26 27
M  V30 27 2 26 28
M  V30 28 1 26 29
M  V30 29 1 7 8
M  V30 30 1 16 20
M  V30 31 1 24 25
M  V30 END BOND
M  V30 END CTAB
M  END
>  <Compound ID>
128

>  <Name>
TMX-2039

>  <Uniprot>
P50613

>  <Target>
CDK7

>  <Smiles>
CS(=O)(=O)N1CCC(NC2=NC=C(Br)C(NC3=CC=CC(F)=C3C(N)=O)=N2)CC1

>  <Kd (nM)>


>  <Assay (Kd)>


>  <Ki (nM)>


>  <Assay (Ki)>


>  <IC50 (nM)>
32.5

>  <Assay (IC50)>
IC50 of CDK7/cyclin H was tested by the Adapta assays

>  <EC50 (nM)>


>  <Assay (EC50)>


>  <Article DOI>
10.1002/anie.202004087

>  <Molecular Weight>
487.355

>  <Exact Mass>
486.04849982

>  <XLogP3>
2.46

>  <Heavy Atom Count>
29

>  <Ring Count>
3

>  <Hydrogen Bond Acceptor Count>
7

>  <Hydrogen Bond Donor Count>
3

>  <Rotatable Bond Count>
6

>  <Topological Polar Surface Area>
130.31

>  <Molecular Formula>
C17H20BrFN6O3S

>  <InChI>
InChI=1S/C17H20BrFN6O3S/c1-29(27,28)25-7-5-10(6-8-25)22-17-21-9-11(18)16(24-17)23-13-4-2-3-12(19)14(13)15(20)26/h2-4,9-10H,5-8H2,1H3,(H2,20,26)(H2,21,22,23,24)

>  <InChI Key>
WYMXMVOAIHZIFF-UHFFFAOYSA-N

>  <BindingDB>


>  <PubChem>
91800663

>  <ChEMBL>
CHEMBL3431194

$$$$
Compound 371
Actelion Java MolfileCreator 2.0

  0  0  0  0  0  0              0 V3000
M  V30 BEGIN CTAB
M  V30 COUNTS 29 31 0 0 0
M  V30 BEGIN ATOM
M  V30 1 Br 0.0 0.0 0.0 0
M  V30 2 C -0.9116 1.2038 0.0 0
M  V30 3 C -0.3389 2.5946 0.0 0
M  V30 4 C -2.4076 1.0402 0.0 0
M  V30 5 N -1.2505 3.7984 0.0 0
M  V30 6 N 1.1337 2.7816 0.0 0
M  V30 7 N -3.3193 2.244 0.0 0
M  V30 8 C -2.7466 3.6348 0.0 0
M  V30 9 C 1.7064 4.1725 0.0 0
M  V30 10 N -3.6582 4.8386 0.0 0
M  V30 11 C 3.179 4.3595 0.0 0
M  V30 12 C 0.7947 5.3763 0.0 0
M  V30 13 C -5.1542 4.675 0.0 0
M  V30 14 C 3.7517 5.7503 0.0 0
M  V30 15 C 4.0673 3.179 0.0 0
M  V30 16 C 1.3674 6.7671 0.0 0
M  V30 17 C -6.0659 5.8789 0.0 0
M  V30 18 C -5.7503 3.3076 0.0 0
M  V30 19 F 5.2243 5.9373 0.0 0
M  V30 20 C 2.8401 6.9541 0.0 0
M  V30 21 O 3.4712 1.8115 0.0 0
M  V30 22 N 5.5399 3.366 0.0 0
M  V30 23 C -7.5619 5.7152 0.0 0
M  V30 24 C -7.2463 3.1439 0.0 0
M  V30 25 N -8.1579 4.3478 0.0 0
M  V30 26 S -9.654 4.1841 0.0 0
M  V30 27 O -9.4903 2.7115 0.0 0
M  V30 28 O -9.841 5.6802 0.0 0
M  V30 29 C -11.15 4.0205 0.0 0
M  V30 END ATOM
M  V30 BEGIN BOND
M  V30 1 1 1 2
M  V30 2 2 2 3
M  V30 3 1 2 4
M  V30 4 1 3 5
M  V30 5 1 3 6
M  V30 6 2 4 7
M  V30 7 2 5 8
M  V30 8 1 6 9
M  V30 9 1 8 10
M  V30 10 2 9 11
M  V30 11 1 9 12
M  V30 12 1 10 13
M  V30 13 1 11 14
M  V30 14 1 11 15
M  V30 15 2 12 16
M  V30 16 1 13 17
M  V30 17 1 13 18
M  V30 18 1 14 19
M  V30 19 2 14 20
M  V30 20 2 15 21
M  V30 21 1 15 22
M  V30 22 1 17 23
M  V30 23 1 18 24
M  V30 24 1 23 25
M  V30 25 1 25 26
M  V30 26 2 26 27
M  V30 27 2 26 28
M  V30 28 1 26 29
M  V30 29 1 7 8
M  V30 30 1 16 20
M  V30 31 1 24 25
M  V30 END BOND
M  V30 END CTAB
M  END
>  <Compound ID>
128

>  <Name>
TMX-2039

>  <Uniprot>
P50750

>  <Target>
CDK9

>  <Smiles>
CS(=O)(=O)N1CCC(NC2=NC=C(Br)C(NC3=CC=CC(F)=C3C(N)=O)=N2)CC1

>  <Kd (nM)>


>  <Assay (Kd)>


>  <Ki (nM)>


>  <Assay (Ki)>


>  <IC50 (nM)>
25

>  <Assay (IC50)>
IC50 of CDK9/cyclin T1 was tested by the Adapta assays

>  <EC50 (nM)>


>  <Assay (EC50)>


>  <Article DOI>
10.1002/anie.202004087

>  <Molecular Weight>
487.355

>  <Exact Mass>
486.04849982

>  <XLogP3>
2.46

>  <Heavy Atom Count>
29

>  <Ring Count>
3

>  <Hydrogen Bond Acceptor Count>
7

>  <Hydrogen Bond Donor Count>
3

>  <Rotatable Bond Count>
6

>  <Topological Polar Surface Area>
130.31

>  <Molecular Formula>
C17H20BrFN6O3S

>  <InChI>
InChI=1S/C17H20BrFN6O3S/c1-29(27,28)25-7-5-10(6-8-25)22-17-21-9-11(18)16(24-17)23-13-4-2-3-12(19)14(13)15(20)26/h2-4,9-10H,5-8H2,1H3,(H2,20,26)(H2,21,22,23,24)

>  <InChI Key>
WYMXMVOAIHZIFF-UHFFFAOYSA-N

>  <BindingDB>


>  <PubChem>
91800663

>  <ChEMBL>
CHEMBL3431194

$$$$
Compound 372
Actelion Java MolfileCreator 2.0

  0  0  0  0  0  0              0 V3000
M  V30 BEGIN CTAB
M  V30 COUNTS 29 31 0 0 0
M  V30 BEGIN ATOM
M  V30 1 Br 0.0 0.0 0.0 0
M  V30 2 C -0.9116 1.2038 0.0 0
M  V30 3 C -0.3389 2.5946 0.0 0
M  V30 4 C -2.4076 1.0402 0.0 0
M  V30 5 N -1.2505 3.7984 0.0 0
M  V30 6 N 1.1337 2.7816 0.0 0
M  V30 7 N -3.3193 2.244 0.0 0
M  V30 8 C -2.7466 3.6348 0.0 0
M  V30 9 C 1.7064 4.1725 0.0 0
M  V30 10 N -3.6582 4.8386 0.0 0
M  V30 11 C 3.179 4.3595 0.0 0
M  V30 12 C 0.7947 5.3763 0.0 0
M  V30 13 C -5.1542 4.675 0.0 0
M  V30 14 C 3.7517 5.7503 0.0 0
M  V30 15 C 4.0673 3.179 0.0 0
M  V30 16 C 1.3674 6.7671 0.0 0
M  V30 17 C -6.0659 5.8789 0.0 0
M  V30 18 C -5.7503 3.3076 0.0 0
M  V30 19 F 5.2243 5.9373 0.0 0
M  V30 20 C 2.8401 6.9541 0.0 0
M  V30 21 O 3.4712 1.8115 0.0 0
M  V30 22 N 5.5399 3.366 0.0 0
M  V30 23 C -7.5619 5.7152 0.0 0
M  V30 24 C -7.2463 3.1439 0.0 0
M  V30 25 N -8.1579 4.3478 0.0 0
M  V30 26 S -9.654 4.1841 0.0 0
M  V30 27 O -9.4903 2.7115 0.0 0
M  V30 28 O -9.841 5.6802 0.0 0
M  V30 29 C -11.15 4.0205 0.0 0
M  V30 END ATOM
M  V30 BEGIN BOND
M  V30 1 1 1 2
M  V30 2 2 2 3
M  V30 3 1 2 4
M  V30 4 1 3 5
M  V30 5 1 3 6
M  V30 6 2 4 7
M  V30 7 2 5 8
M  V30 8 1 6 9
M  V30 9 1 8 10
M  V30 10 2 9 11
M  V30 11 1 9 12
M  V30 12 1 10 13
M  V30 13 1 11 14
M  V30 14 1 11 15
M  V30 15 2 12 16
M  V30 16 1 13 17
M  V30 17 1 13 18
M  V30 18 1 14 19
M  V30 19 2 14 20
M  V30 20 2 15 21
M  V30 21 1 15 22
M  V30 22 1 17 23
M  V30 23 1 18 24
M  V30 24 1 23 25
M  V30 25 1 25 26
M  V30 26 2 26 27
M  V30 27 2 26 28
M  V30 28 1 26 29
M  V30 29 1 7 8
M  V30 30 1 16 20
M  V30 31 1 24 25
M  V30 END BOND
M  V30 END CTAB
M  END
>  <Compound ID>
128

>  <Name>
TMX-2039

>  <Uniprot>
P53779

>  <Target>
MAPK10

>  <Smiles>
CS(=O)(=O)N1CCC(NC2=NC=C(Br)C(NC3=CC=CC(F)=C3C(N)=O)=N2)CC1

>  <Kd (nM)>


>  <Assay (Kd)>


>  <Ki (nM)>


>  <Assay (Ki)>


>  <IC50 (nM)>


>  <Assay (IC50)>


>  <EC50 (nM)>


>  <Assay (EC50)>


>  <Article DOI>
10.1016/j.cell.2020.10.038

>  <Molecular Weight>
487.355

>  <Exact Mass>
486.04849982

>  <XLogP3>
2.46

>  <Heavy Atom Count>
29

>  <Ring Count>
3

>  <Hydrogen Bond Acceptor Count>
7

>  <Hydrogen Bond Donor Count>
3

>  <Rotatable Bond Count>
6

>  <Topological Polar Surface Area>
130.31

>  <Molecular Formula>
C17H20BrFN6O3S

>  <InChI>
InChI=1S/C17H20BrFN6O3S/c1-29(27,28)25-7-5-10(6-8-25)22-17-21-9-11(18)16(24-17)23-13-4-2-3-12(19)14(13)15(20)26/h2-4,9-10H,5-8H2,1H3,(H2,20,26)(H2,21,22,23,24)

>  <InChI Key>
WYMXMVOAIHZIFF-UHFFFAOYSA-N

>  <BindingDB>


>  <PubChem>
91800663

>  <ChEMBL>
CHEMBL3431194

$$$$
Compound 373
Actelion Java MolfileCreator 2.0

  0  0  0  0  0  0              0 V3000
M  V30 BEGIN CTAB
M  V30 COUNTS 29 31 0 0 0
M  V30 BEGIN ATOM
M  V30 1 Br 0.0 0.0 0.0 0
M  V30 2 C -0.9116 1.2038 0.0 0
M  V30 3 C -0.3389 2.5946 0.0 0
M  V30 4 C -2.4076 1.0402 0.0 0
M  V30 5 N -1.2505 3.7984 0.0 0
M  V30 6 N 1.1337 2.7816 0.0 0
M  V30 7 N -3.3193 2.244 0.0 0
M  V30 8 C -2.7466 3.6348 0.0 0
M  V30 9 C 1.7064 4.1725 0.0 0
M  V30 10 N -3.6582 4.8386 0.0 0
M  V30 11 C 3.179 4.3595 0.0 0
M  V30 12 C 0.7947 5.3763 0.0 0
M  V30 13 C -5.1542 4.675 0.0 0
M  V30 14 C 3.7517 5.7503 0.0 0
M  V30 15 C 4.0673 3.179 0.0 0
M  V30 16 C 1.3674 6.7671 0.0 0
M  V30 17 C -6.0659 5.8789 0.0 0
M  V30 18 C -5.7503 3.3076 0.0 0
M  V30 19 F 5.2243 5.9373 0.0 0
M  V30 20 C 2.8401 6.9541 0.0 0
M  V30 21 O 3.4712 1.8115 0.0 0
M  V30 22 N 5.5399 3.366 0.0 0
M  V30 23 C -7.5619 5.7152 0.0 0
M  V30 24 C -7.2463 3.1439 0.0 0
M  V30 25 N -8.1579 4.3478 0.0 0
M  V30 26 S -9.654 4.1841 0.0 0
M  V30 27 O -9.4903 2.7115 0.0 0
M  V30 28 O -9.841 5.6802 0.0 0
M  V30 29 C -11.15 4.0205 0.0 0
M  V30 END ATOM
M  V30 BEGIN BOND
M  V30 1 1 1 2
M  V30 2 2 2 3
M  V30 3 1 2 4
M  V30 4 1 3 5
M  V30 5 1 3 6
M  V30 6 2 4 7
M  V30 7 2 5 8
M  V30 8 1 6 9
M  V30 9 1 8 10
M  V30 10 2 9 11
M  V30 11 1 9 12
M  V30 12 1 10 13
M  V30 13 1 11 14
M  V30 14 1 11 15
M  V30 15 2 12 16
M  V30 16 1 13 17
M  V30 17 1 13 18
M  V30 18 1 14 19
M  V30 19 2 14 20
M  V30 20 2 15 21
M  V30 21 1 15 22
M  V30 22 1 17 23
M  V30 23 1 18 24
M  V30 24 1 23 25
M  V30 25 1 25 26
M  V30 26 2 26 27
M  V30 27 2 26 28
M  V30 28 1 26 29
M  V30 29 1 7 8
M  V30 30 1 16 20
M  V30 31 1 24 25
M  V30 END BOND
M  V30 END CTAB
M  END
>  <Compound ID>
128

>  <Name>
TMX-2039

>  <Uniprot>
P45983

>  <Target>
MAPK8

>  <Smiles>
CS(=O)(=O)N1CCC(NC2=NC=C(Br)C(NC3=CC=CC(F)=C3C(N)=O)=N2)CC1

>  <Kd (nM)>


>  <Assay (Kd)>


>  <Ki (nM)>


>  <Assay (Ki)>


>  <IC50 (nM)>


>  <Assay (IC50)>


>  <EC50 (nM)>


>  <Assay (EC50)>


>  <Article DOI>
10.1016/j.cell.2020.10.038

>  <Molecular Weight>
487.355

>  <Exact Mass>
486.04849982

>  <XLogP3>
2.46

>  <Heavy Atom Count>
29

>  <Ring Count>
3

>  <Hydrogen Bond Acceptor Count>
7

>  <Hydrogen Bond Donor Count>
3

>  <Rotatable Bond Count>
6

>  <Topological Polar Surface Area>
130.31

>  <Molecular Formula>
C17H20BrFN6O3S

>  <InChI>
InChI=1S/C17H20BrFN6O3S/c1-29(27,28)25-7-5-10(6-8-25)22-17-21-9-11(18)16(24-17)23-13-4-2-3-12(19)14(13)15(20)26/h2-4,9-10H,5-8H2,1H3,(H2,20,26)(H2,21,22,23,24)

>  <InChI Key>
WYMXMVOAIHZIFF-UHFFFAOYSA-N

>  <BindingDB>


>  <PubChem>
91800663

>  <ChEMBL>
CHEMBL3431194

$$$$
Compound 374
Actelion Java MolfileCreator 2.0

  0  0  0  0  0  0              0 V3000
M  V30 BEGIN CTAB
M  V30 COUNTS 29 31 0 0 0
M  V30 BEGIN ATOM
M  V30 1 Br 0.0 0.0 0.0 0
M  V30 2 C -0.9116 1.2038 0.0 0
M  V30 3 C -0.3389 2.5946 0.0 0
M  V30 4 C -2.4076 1.0402 0.0 0
M  V30 5 N -1.2505 3.7984 0.0 0
M  V30 6 N 1.1337 2.7816 0.0 0
M  V30 7 N -3.3193 2.244 0.0 0
M  V30 8 C -2.7466 3.6348 0.0 0
M  V30 9 C 1.7064 4.1725 0.0 0
M  V30 10 N -3.6582 4.8386 0.0 0
M  V30 11 C 3.179 4.3595 0.0 0
M  V30 12 C 0.7947 5.3763 0.0 0
M  V30 13 C -5.1542 4.675 0.0 0
M  V30 14 C 3.7517 5.7503 0.0 0
M  V30 15 C 4.0673 3.179 0.0 0
M  V30 16 C 1.3674 6.7671 0.0 0
M  V30 17 C -6.0659 5.8789 0.0 0
M  V30 18 C -5.7503 3.3076 0.0 0
M  V30 19 F 5.2243 5.9373 0.0 0
M  V30 20 C 2.8401 6.9541 0.0 0
M  V30 21 O 3.4712 1.8115 0.0 0
M  V30 22 N 5.5399 3.366 0.0 0
M  V30 23 C -7.5619 5.7152 0.0 0
M  V30 24 C -7.2463 3.1439 0.0 0
M  V30 25 N -8.1579 4.3478 0.0 0
M  V30 26 S -9.654 4.1841 0.0 0
M  V30 27 O -9.4903 2.7115 0.0 0
M  V30 28 O -9.841 5.6802 0.0 0
M  V30 29 C -11.15 4.0205 0.0 0
M  V30 END ATOM
M  V30 BEGIN BOND
M  V30 1 1 1 2
M  V30 2 2 2 3
M  V30 3 1 2 4
M  V30 4 1 3 5
M  V30 5 1 3 6
M  V30 6 2 4 7
M  V30 7 2 5 8
M  V30 8 1 6 9
M  V30 9 1 8 10
M  V30 10 2 9 11
M  V30 11 1 9 12
M  V30 12 1 10 13
M  V30 13 1 11 14
M  V30 14 1 11 15
M  V30 15 2 12 16
M  V30 16 1 13 17
M  V30 17 1 13 18
M  V30 18 1 14 19
M  V30 19 2 14 20
M  V30 20 2 15 21
M  V30 21 1 15 22
M  V30 22 1 17 23
M  V30 23 1 18 24
M  V30 24 1 23 25
M  V30 25 1 25 26
M  V30 26 2 26 27
M  V30 27 2 26 28
M  V30 28 1 26 29
M  V30 29 1 7 8
M  V30 30 1 16 20
M  V30 31 1 24 25
M  V30 END BOND
M  V30 END CTAB
M  END
>  <Compound ID>
128

>  <Name>
TMX-2039

>  <Uniprot>
P45984

>  <Target>
MAPK9

>  <Smiles>
CS(=O)(=O)N1CCC(NC2=NC=C(Br)C(NC3=CC=CC(F)=C3C(N)=O)=N2)CC1

>  <Kd (nM)>


>  <Assay (Kd)>


>  <Ki (nM)>


>  <Assay (Ki)>


>  <IC50 (nM)>


>  <Assay (IC50)>


>  <EC50 (nM)>


>  <Assay (EC50)>


>  <Article DOI>
10.1016/j.cell.2020.10.038

>  <Molecular Weight>
487.355

>  <Exact Mass>
486.04849982

>  <XLogP3>
2.46

>  <Heavy Atom Count>
29

>  <Ring Count>
3

>  <Hydrogen Bond Acceptor Count>
7

>  <Hydrogen Bond Donor Count>
3

>  <Rotatable Bond Count>
6

>  <Topological Polar Surface Area>
130.31

>  <Molecular Formula>
C17H20BrFN6O3S

>  <InChI>
InChI=1S/C17H20BrFN6O3S/c1-29(27,28)25-7-5-10(6-8-25)22-17-21-9-11(18)16(24-17)23-13-4-2-3-12(19)14(13)15(20)26/h2-4,9-10H,5-8H2,1H3,(H2,20,26)(H2,21,22,23,24)

>  <InChI Key>
WYMXMVOAIHZIFF-UHFFFAOYSA-N

>  <BindingDB>


>  <PubChem>
91800663

>  <ChEMBL>
CHEMBL3431194

$$$$
Compound 375
Actelion Java MolfileCreator 2.0

  0  0  0  0  0  0              0 V3000
M  V30 BEGIN CTAB
M  V30 COUNTS 29 31 0 0 0
M  V30 BEGIN ATOM
M  V30 1 Br 0.0 0.0 0.0 0
M  V30 2 C -0.9116 1.2038 0.0 0
M  V30 3 C -0.3389 2.5946 0.0 0
M  V30 4 C -2.4076 1.0402 0.0 0
M  V30 5 N -1.2505 3.7984 0.0 0
M  V30 6 N 1.1337 2.7816 0.0 0
M  V30 7 N -3.3193 2.244 0.0 0
M  V30 8 C -2.7466 3.6348 0.0 0
M  V30 9 C 1.7064 4.1725 0.0 0
M  V30 10 N -3.6582 4.8386 0.0 0
M  V30 11 C 3.179 4.3595 0.0 0
M  V30 12 C 0.7947 5.3763 0.0 0
M  V30 13 C -5.1542 4.675 0.0 0
M  V30 14 C 3.7517 5.7503 0.0 0
M  V30 15 C 4.0673 3.179 0.0 0
M  V30 16 C 1.3674 6.7671 0.0 0
M  V30 17 C -6.0659 5.8789 0.0 0
M  V30 18 C -5.7503 3.3076 0.0 0
M  V30 19 F 5.2243 5.9373 0.0 0
M  V30 20 C 2.8401 6.9541 0.0 0
M  V30 21 O 3.4712 1.8115 0.0 0
M  V30 22 N 5.5399 3.366 0.0 0
M  V30 23 C -7.5619 5.7152 0.0 0
M  V30 24 C -7.2463 3.1439 0.0 0
M  V30 25 N -8.1579 4.3478 0.0 0
M  V30 26 S -9.654 4.1841 0.0 0
M  V30 27 O -9.4903 2.7115 0.0 0
M  V30 28 O -9.841 5.6802 0.0 0
M  V30 29 C -11.15 4.0205 0.0 0
M  V30 END ATOM
M  V30 BEGIN BOND
M  V30 1 1 1 2
M  V30 2 2 2 3
M  V30 3 1 2 4
M  V30 4 1 3 5
M  V30 5 1 3 6
M  V30 6 2 4 7
M  V30 7 2 5 8
M  V30 8 1 6 9
M  V30 9 1 8 10
M  V30 10 2 9 11
M  V30 11 1 9 12
M  V30 12 1 10 13
M  V30 13 1 11 14
M  V30 14 1 11 15
M  V30 15 2 12 16
M  V30 16 1 13 17
M  V30 17 1 13 18
M  V30 18 1 14 19
M  V30 19 2 14 20
M  V30 20 2 15 21
M  V30 21 1 15 22
M  V30 22 1 17 23
M  V30 23 1 18 24
M  V30 24 1 23 25
M  V30 25 1 25 26
M  V30 26 2 26 27
M  V30 27 2 26 28
M  V30 28 1 26 29
M  V30 29 1 7 8
M  V30 30 1 16 20
M  V30 31 1 24 25
M  V30 END BOND
M  V30 END CTAB
M  END
>  <Compound ID>
128

>  <Name>
TMX-2039

>  <Uniprot>
Q15418

>  <Target>
RPS6KA1

>  <Smiles>
CS(=O)(=O)N1CCC(NC2=NC=C(Br)C(NC3=CC=CC(F)=C3C(N)=O)=N2)CC1

>  <Kd (nM)>


>  <Assay (Kd)>


>  <Ki (nM)>


>  <Assay (Ki)>


>  <IC50 (nM)>


>  <Assay (IC50)>


>  <EC50 (nM)>


>  <Assay (EC50)>


>  <Article DOI>
10.1016/j.cell.2020.10.038

>  <Molecular Weight>
487.355

>  <Exact Mass>
486.04849982

>  <XLogP3>
2.46

>  <Heavy Atom Count>
29

>  <Ring Count>
3

>  <Hydrogen Bond Acceptor Count>
7

>  <Hydrogen Bond Donor Count>
3

>  <Rotatable Bond Count>
6

>  <Topological Polar Surface Area>
130.31

>  <Molecular Formula>
C17H20BrFN6O3S

>  <InChI>
InChI=1S/C17H20BrFN6O3S/c1-29(27,28)25-7-5-10(6-8-25)22-17-21-9-11(18)16(24-17)23-13-4-2-3-12(19)14(13)15(20)26/h2-4,9-10H,5-8H2,1H3,(H2,20,26)(H2,21,22,23,24)

>  <InChI Key>
WYMXMVOAIHZIFF-UHFFFAOYSA-N

>  <BindingDB>


>  <PubChem>
91800663

>  <ChEMBL>
CHEMBL3431194

$$$$
Compound 376
Actelion Java MolfileCreator 2.0

  0  0  0  0  0  0              0 V3000
M  V30 BEGIN CTAB
M  V30 COUNTS 29 31 0 0 0
M  V30 BEGIN ATOM
M  V30 1 Br 0.0 0.0 0.0 0
M  V30 2 C 1.489 0.1299 0.0 0
M  V30 3 C 2.3281 -1.099 0.0 0
M  V30 4 C 2.1272 1.5008 0.0 0
M  V30 5 N 3.8171 -0.969 0.0 0
M  V30 6 N 1.6663 -2.4462 0.0 0
M  V30 7 N 3.6162 1.6308 0.0 0
M  V30 8 C 4.4553 0.4018 0.0 0
M  V30 9 C 0.1536 -2.5526 0.0 0
M  V30 10 N 5.9443 0.5318 0.0 0
M  V30 11 C -0.5081 -3.8998 0.0 0
M  V30 12 C -0.709 -1.2999 0.0 0
M  V30 13 C 6.7834 -0.6972 0.0 0
M  V30 14 C -2.0208 -4.0062 0.0 0
M  V30 15 C 0.3308 -5.1289 0.0 0
M  V30 16 C -2.2217 -1.4063 0.0 0
M  V30 17 C 6.1216 -2.0444 0.0 0
M  V30 18 C 8.2724 -0.5672 0.0 0
M  V30 19 F -2.6826 -5.3534 0.0 0
M  V30 20 C -2.8835 -2.7535 0.0 0
M  V30 21 O 1.8199 -4.9989 0.0 0
M  V30 22 N -0.3308 -6.4761 0.0 0
M  V30 23 C 6.9606 -3.2735 0.0 0
M  V30 24 C 9.1115 -1.7963 0.0 0
M  V30 25 C 8.4497 -3.1435 0.0 0
M  V30 26 S 9.2887 -4.3725 0.0 0
M  V30 27 O 8.0361 -5.2116 0.0 0
M  V30 28 O 10.5178 -3.5098 0.0 0
M  V30 29 N 10.1278 -5.6016 0.0 0
M  V30 END ATOM
M  V30 BEGIN BOND
M  V30 1 1 1 2
M  V30 2 2 2 3
M  V30 3 1 2 4
M  V30 4 1 3 5
M  V30 5 1 3 6
M  V30 6 2 4 7
M  V30 7 2 5 8
M  V30 8 1 6 9
M  V30 9 1 8 10
M  V30 10 2 9 11
M  V30 11 1 9 12
M  V30 12 1 10 13
M  V30 13 1 11 14
M  V30 14 1 11 15
M  V30 15 2 12 16
M  V30 16 2 13 17
M  V30 17 1 13 18
M  V30 18 1 14 19
M  V30 19 2 14 20
M  V30 20 2 15 21
M  V30 21 1 15 22
M  V30 22 1 17 23
M  V30 23 2 18 24
M  V30 24 2 23 25
M  V30 25 1 25 26
M  V30 26 2 26 27
M  V30 27 2 26 28
M  V30 28 1 26 29
M  V30 29 1 7 8
M  V30 30 1 16 20
M  V30 31 1 24 25
M  V30 END BOND
M  V30 END CTAB
M  END
>  <Compound ID>
129

>  <Name>
TMX-3013

>  <Uniprot>
Q2M2I8

>  <Target>
AAK1

>  <Smiles>
NC(=O)C1=C(F)C=CC=C1NC1=NC(NC2=CC=C(S(N)(=O)=O)C=C2)=NC=C1Br

>  <Kd (nM)>


>  <Assay (Kd)>


>  <Ki (nM)>


>  <Assay (Ki)>


>  <IC50 (nM)>


>  <Assay (IC50)>


>  <EC50 (nM)>


>  <Assay (EC50)>


>  <Article DOI>
10.1016/j.cell.2020.10.038

>  <Molecular Weight>
481.307

>  <Exact Mass>
480.001549628

>  <XLogP3>
2.74

>  <Heavy Atom Count>
29

>  <Ring Count>
3

>  <Hydrogen Bond Acceptor Count>
7

>  <Hydrogen Bond Donor Count>
4

>  <Rotatable Bond Count>
6

>  <Topological Polar Surface Area>
153.09

>  <Molecular Formula>
C17H14BrFN6O3S

>  <InChI>
InChI=1S/C17H14BrFN6O3S/c18-11-8-22-17(23-9-4-6-10(7-5-9)29(21,27)28)25-16(11)24-13-3-1-2-12(19)14(13)15(20)26/h1-8H,(H2,20,26)(H2,21,27,28)(H2,22,23,24,25)

>  <InChI Key>
VCPYDRGRPKSEOJ-UHFFFAOYSA-N

>  <BindingDB>


>  <PubChem>
155184510

>  <ChEMBL>


$$$$
Compound 377
Actelion Java MolfileCreator 2.0

  0  0  0  0  0  0              0 V3000
M  V30 BEGIN CTAB
M  V30 COUNTS 29 31 0 0 0
M  V30 BEGIN ATOM
M  V30 1 Br 0.0 0.0 0.0 0
M  V30 2 C 1.489 0.1299 0.0 0
M  V30 3 C 2.3281 -1.099 0.0 0
M  V30 4 C 2.1272 1.5008 0.0 0
M  V30 5 N 3.8171 -0.969 0.0 0
M  V30 6 N 1.6663 -2.4462 0.0 0
M  V30 7 N 3.6162 1.6308 0.0 0
M  V30 8 C 4.4553 0.4018 0.0 0
M  V30 9 C 0.1536 -2.5526 0.0 0
M  V30 10 N 5.9443 0.5318 0.0 0
M  V30 11 C -0.5081 -3.8998 0.0 0
M  V30 12 C -0.709 -1.2999 0.0 0
M  V30 13 C 6.7834 -0.6972 0.0 0
M  V30 14 C -2.0208 -4.0062 0.0 0
M  V30 15 C 0.3308 -5.1289 0.0 0
M  V30 16 C -2.2217 -1.4063 0.0 0
M  V30 17 C 6.1216 -2.0444 0.0 0
M  V30 18 C 8.2724 -0.5672 0.0 0
M  V30 19 F -2.6826 -5.3534 0.0 0
M  V30 20 C -2.8835 -2.7535 0.0 0
M  V30 21 O 1.8199 -4.9989 0.0 0
M  V30 22 N -0.3308 -6.4761 0.0 0
M  V30 23 C 6.9606 -3.2735 0.0 0
M  V30 24 C 9.1115 -1.7963 0.0 0
M  V30 25 C 8.4497 -3.1435 0.0 0
M  V30 26 S 9.2887 -4.3725 0.0 0
M  V30 27 O 8.0361 -5.2116 0.0 0
M  V30 28 O 10.5178 -3.5098 0.0 0
M  V30 29 N 10.1278 -5.6016 0.0 0
M  V30 END ATOM
M  V30 BEGIN BOND
M  V30 1 1 1 2
M  V30 2 2 2 3
M  V30 3 1 2 4
M  V30 4 1 3 5
M  V30 5 1 3 6
M  V30 6 2 4 7
M  V30 7 2 5 8
M  V30 8 1 6 9
M  V30 9 1 8 10
M  V30 10 2 9 11
M  V30 11 1 9 12
M  V30 12 1 10 13
M  V30 13 1 11 14
M  V30 14 1 11 15
M  V30 15 2 12 16
M  V30 16 2 13 17
M  V30 17 1 13 18
M  V30 18 1 14 19
M  V30 19 2 14 20
M  V30 20 2 15 21
M  V30 21 1 15 22
M  V30 22 1 17 23
M  V30 23 2 18 24
M  V30 24 2 23 25
M  V30 25 1 25 26
M  V30 26 2 26 27
M  V30 27 2 26 28
M  V30 28 1 26 29
M  V30 29 1 7 8
M  V30 30 1 16 20
M  V30 31 1 24 25
M  V30 END BOND
M  V30 END CTAB
M  END
>  <Compound ID>
129

>  <Name>
TMX-3013

>  <Uniprot>
O14965

>  <Target>
AURKA

>  <Smiles>
NC(=O)C1=C(F)C=CC=C1NC1=NC(NC2=CC=C(S(N)(=O)=O)C=C2)=NC=C1Br

>  <Kd (nM)>


>  <Assay (Kd)>


>  <Ki (nM)>


>  <Assay (Ki)>


>  <IC50 (nM)>


>  <Assay (IC50)>


>  <EC50 (nM)>


>  <Assay (EC50)>


>  <Article DOI>
10.1016/j.cell.2020.10.038

>  <Molecular Weight>
481.307

>  <Exact Mass>
480.001549628

>  <XLogP3>
2.74

>  <Heavy Atom Count>
29

>  <Ring Count>
3

>  <Hydrogen Bond Acceptor Count>
7

>  <Hydrogen Bond Donor Count>
4

>  <Rotatable Bond Count>
6

>  <Topological Polar Surface Area>
153.09

>  <Molecular Formula>
C17H14BrFN6O3S

>  <InChI>
InChI=1S/C17H14BrFN6O3S/c18-11-8-22-17(23-9-4-6-10(7-5-9)29(21,27)28)25-16(11)24-13-3-1-2-12(19)14(13)15(20)26/h1-8H,(H2,20,26)(H2,21,27,28)(H2,22,23,24,25)

>  <InChI Key>
VCPYDRGRPKSEOJ-UHFFFAOYSA-N

>  <BindingDB>


>  <PubChem>
155184510

>  <ChEMBL>


$$$$
Compound 378
Actelion Java MolfileCreator 2.0

  0  0  0  0  0  0              0 V3000
M  V30 BEGIN CTAB
M  V30 COUNTS 29 31 0 0 0
M  V30 BEGIN ATOM
M  V30 1 Br 0.0 0.0 0.0 0
M  V30 2 C 1.489 0.1299 0.0 0
M  V30 3 C 2.3281 -1.099 0.0 0
M  V30 4 C 2.1272 1.5008 0.0 0
M  V30 5 N 3.8171 -0.969 0.0 0
M  V30 6 N 1.6663 -2.4462 0.0 0
M  V30 7 N 3.6162 1.6308 0.0 0
M  V30 8 C 4.4553 0.4018 0.0 0
M  V30 9 C 0.1536 -2.5526 0.0 0
M  V30 10 N 5.9443 0.5318 0.0 0
M  V30 11 C -0.5081 -3.8998 0.0 0
M  V30 12 C -0.709 -1.2999 0.0 0
M  V30 13 C 6.7834 -0.6972 0.0 0
M  V30 14 C -2.0208 -4.0062 0.0 0
M  V30 15 C 0.3308 -5.1289 0.0 0
M  V30 16 C -2.2217 -1.4063 0.0 0
M  V30 17 C 6.1216 -2.0444 0.0 0
M  V30 18 C 8.2724 -0.5672 0.0 0
M  V30 19 F -2.6826 -5.3534 0.0 0
M  V30 20 C -2.8835 -2.7535 0.0 0
M  V30 21 O 1.8199 -4.9989 0.0 0
M  V30 22 N -0.3308 -6.4761 0.0 0
M  V30 23 C 6.9606 -3.2735 0.0 0
M  V30 24 C 9.1115 -1.7963 0.0 0
M  V30 25 C 8.4497 -3.1435 0.0 0
M  V30 26 S 9.2887 -4.3725 0.0 0
M  V30 27 O 8.0361 -5.2116 0.0 0
M  V30 28 O 10.5178 -3.5098 0.0 0
M  V30 29 N 10.1278 -5.6016 0.0 0
M  V30 END ATOM
M  V30 BEGIN BOND
M  V30 1 1 1 2
M  V30 2 2 2 3
M  V30 3 1 2 4
M  V30 4 1 3 5
M  V30 5 1 3 6
M  V30 6 2 4 7
M  V30 7 2 5 8
M  V30 8 1 6 9
M  V30 9 1 8 10
M  V30 10 2 9 11
M  V30 11 1 9 12
M  V30 12 1 10 13
M  V30 13 1 11 14
M  V30 14 1 11 15
M  V30 15 2 12 16
M  V30 16 2 13 17
M  V30 17 1 13 18
M  V30 18 1 14 19
M  V30 19 2 14 20
M  V30 20 2 15 21
M  V30 21 1 15 22
M  V30 22 1 17 23
M  V30 23 2 18 24
M  V30 24 2 23 25
M  V30 25 1 25 26
M  V30 26 2 26 27
M  V30 27 2 26 28
M  V30 28 1 26 29
M  V30 29 1 7 8
M  V30 30 1 16 20
M  V30 31 1 24 25
M  V30 END BOND
M  V30 END CTAB
M  END
>  <Compound ID>
129

>  <Name>
TMX-3013

>  <Uniprot>
Q96GD4

>  <Target>
AURKB

>  <Smiles>
NC(=O)C1=C(F)C=CC=C1NC1=NC(NC2=CC=C(S(N)(=O)=O)C=C2)=NC=C1Br

>  <Kd (nM)>


>  <Assay (Kd)>


>  <Ki (nM)>


>  <Assay (Ki)>


>  <IC50 (nM)>


>  <Assay (IC50)>


>  <EC50 (nM)>


>  <Assay (EC50)>


>  <Article DOI>
10.1016/j.cell.2020.10.038

>  <Molecular Weight>
481.307

>  <Exact Mass>
480.001549628

>  <XLogP3>
2.74

>  <Heavy Atom Count>
29

>  <Ring Count>
3

>  <Hydrogen Bond Acceptor Count>
7

>  <Hydrogen Bond Donor Count>
4

>  <Rotatable Bond Count>
6

>  <Topological Polar Surface Area>
153.09

>  <Molecular Formula>
C17H14BrFN6O3S

>  <InChI>
InChI=1S/C17H14BrFN6O3S/c18-11-8-22-17(23-9-4-6-10(7-5-9)29(21,27)28)25-16(11)24-13-3-1-2-12(19)14(13)15(20)26/h1-8H,(H2,20,26)(H2,21,27,28)(H2,22,23,24,25)

>  <InChI Key>
VCPYDRGRPKSEOJ-UHFFFAOYSA-N

>  <BindingDB>


>  <PubChem>
155184510

>  <ChEMBL>


$$$$
Compound 379
Actelion Java MolfileCreator 2.0

  0  0  0  0  0  0              0 V3000
M  V30 BEGIN CTAB
M  V30 COUNTS 29 31 0 0 0
M  V30 BEGIN ATOM
M  V30 1 Br 0.0 0.0 0.0 0
M  V30 2 C 1.489 0.1299 0.0 0
M  V30 3 C 2.3281 -1.099 0.0 0
M  V30 4 C 2.1272 1.5008 0.0 0
M  V30 5 N 3.8171 -0.969 0.0 0
M  V30 6 N 1.6663 -2.4462 0.0 0
M  V30 7 N 3.6162 1.6308 0.0 0
M  V30 8 C 4.4553 0.4018 0.0 0
M  V30 9 C 0.1536 -2.5526 0.0 0
M  V30 10 N 5.9443 0.5318 0.0 0
M  V30 11 C -0.5081 -3.8998 0.0 0
M  V30 12 C -0.709 -1.2999 0.0 0
M  V30 13 C 6.7834 -0.6972 0.0 0
M  V30 14 C -2.0208 -4.0062 0.0 0
M  V30 15 C 0.3308 -5.1289 0.0 0
M  V30 16 C -2.2217 -1.4063 0.0 0
M  V30 17 C 6.1216 -2.0444 0.0 0
M  V30 18 C 8.2724 -0.5672 0.0 0
M  V30 19 F -2.6826 -5.3534 0.0 0
M  V30 20 C -2.8835 -2.7535 0.0 0
M  V30 21 O 1.8199 -4.9989 0.0 0
M  V30 22 N -0.3308 -6.4761 0.0 0
M  V30 23 C 6.9606 -3.2735 0.0 0
M  V30 24 C 9.1115 -1.7963 0.0 0
M  V30 25 C 8.4497 -3.1435 0.0 0
M  V30 26 S 9.2887 -4.3725 0.0 0
M  V30 27 O 8.0361 -5.2116 0.0 0
M  V30 28 O 10.5178 -3.5098 0.0 0
M  V30 29 N 10.1278 -5.6016 0.0 0
M  V30 END ATOM
M  V30 BEGIN BOND
M  V30 1 1 1 2
M  V30 2 2 2 3
M  V30 3 1 2 4
M  V30 4 1 3 5
M  V30 5 1 3 6
M  V30 6 2 4 7
M  V30 7 2 5 8
M  V30 8 1 6 9
M  V30 9 1 8 10
M  V30 10 2 9 11
M  V30 11 1 9 12
M  V30 12 1 10 13
M  V30 13 1 11 14
M  V30 14 1 11 15
M  V30 15 2 12 16
M  V30 16 2 13 17
M  V30 17 1 13 18
M  V30 18 1 14 19
M  V30 19 2 14 20
M  V30 20 2 15 21
M  V30 21 1 15 22
M  V30 22 1 17 23
M  V30 23 2 18 24
M  V30 24 2 23 25
M  V30 25 1 25 26
M  V30 26 2 26 27
M  V30 27 2 26 28
M  V30 28 1 26 29
M  V30 29 1 7 8
M  V30 30 1 16 20
M  V30 31 1 24 25
M  V30 END BOND
M  V30 END CTAB
M  END
>  <Compound ID>
129

>  <Name>
TMX-3013

>  <Uniprot>
Q9NYV4

>  <Target>
CDK12

>  <Smiles>
NC(=O)C1=C(F)C=CC=C1NC1=NC(NC2=CC=C(S(N)(=O)=O)C=C2)=NC=C1Br

>  <Kd (nM)>


>  <Assay (Kd)>


>  <Ki (nM)>


>  <Assay (Ki)>


>  <IC50 (nM)>


>  <Assay (IC50)>


>  <EC50 (nM)>


>  <Assay (EC50)>


>  <Article DOI>
10.1016/j.cell.2020.10.038

>  <Molecular Weight>
481.307

>  <Exact Mass>
480.001549628

>  <XLogP3>
2.74

>  <Heavy Atom Count>
29

>  <Ring Count>
3

>  <Hydrogen Bond Acceptor Count>
7

>  <Hydrogen Bond Donor Count>
4

>  <Rotatable Bond Count>
6

>  <Topological Polar Surface Area>
153.09

>  <Molecular Formula>
C17H14BrFN6O3S

>  <InChI>
InChI=1S/C17H14BrFN6O3S/c18-11-8-22-17(23-9-4-6-10(7-5-9)29(21,27)28)25-16(11)24-13-3-1-2-12(19)14(13)15(20)26/h1-8H,(H2,20,26)(H2,21,27,28)(H2,22,23,24,25)

>  <InChI Key>
VCPYDRGRPKSEOJ-UHFFFAOYSA-N

>  <BindingDB>


>  <PubChem>
155184510

>  <ChEMBL>


$$$$
Compound 380
Actelion Java MolfileCreator 2.0

  0  0  0  0  0  0              0 V3000
M  V30 BEGIN CTAB
M  V30 COUNTS 29 31 0 0 0
M  V30 BEGIN ATOM
M  V30 1 Br 0.0 0.0 0.0 0
M  V30 2 C 1.489 0.1299 0.0 0
M  V30 3 C 2.3281 -1.099 0.0 0
M  V30 4 C 2.1272 1.5008 0.0 0
M  V30 5 N 3.8171 -0.969 0.0 0
M  V30 6 N 1.6663 -2.4462 0.0 0
M  V30 7 N 3.6162 1.6308 0.0 0
M  V30 8 C 4.4553 0.4018 0.0 0
M  V30 9 C 0.1536 -2.5526 0.0 0
M  V30 10 N 5.9443 0.5318 0.0 0
M  V30 11 C -0.5081 -3.8998 0.0 0
M  V30 12 C -0.709 -1.2999 0.0 0
M  V30 13 C 6.7834 -0.6972 0.0 0
M  V30 14 C -2.0208 -4.0062 0.0 0
M  V30 15 C 0.3308 -5.1289 0.0 0
M  V30 16 C -2.2217 -1.4063 0.0 0
M  V30 17 C 6.1216 -2.0444 0.0 0
M  V30 18 C 8.2724 -0.5672 0.0 0
M  V30 19 F -2.6826 -5.3534 0.0 0
M  V30 20 C -2.8835 -2.7535 0.0 0
M  V30 21 O 1.8199 -4.9989 0.0 0
M  V30 22 N -0.3308 -6.4761 0.0 0
M  V30 23 C 6.9606 -3.2735 0.0 0
M  V30 24 C 9.1115 -1.7963 0.0 0
M  V30 25 C 8.4497 -3.1435 0.0 0
M  V30 26 S 9.2887 -4.3725 0.0 0
M  V30 27 O 8.0361 -5.2116 0.0 0
M  V30 28 O 10.5178 -3.5098 0.0 0
M  V30 29 N 10.1278 -5.6016 0.0 0
M  V30 END ATOM
M  V30 BEGIN BOND
M  V30 1 1 1 2
M  V30 2 2 2 3
M  V30 3 1 2 4
M  V30 4 1 3 5
M  V30 5 1 3 6
M  V30 6 2 4 7
M  V30 7 2 5 8
M  V30 8 1 6 9
M  V30 9 1 8 10
M  V30 10 2 9 11
M  V30 11 1 9 12
M  V30 12 1 10 13
M  V30 13 1 11 14
M  V30 14 1 11 15
M  V30 15 2 12 16
M  V30 16 2 13 17
M  V30 17 1 13 18
M  V30 18 1 14 19
M  V30 19 2 14 20
M  V30 20 2 15 21
M  V30 21 1 15 22
M  V30 22 1 17 23
M  V30 23 2 18 24
M  V30 24 2 23 25
M  V30 25 1 25 26
M  V30 26 2 26 27
M  V30 27 2 26 28
M  V30 28 1 26 29
M  V30 29 1 7 8
M  V30 30 1 16 20
M  V30 31 1 24 25
M  V30 END BOND
M  V30 END CTAB
M  END
>  <Compound ID>
129

>  <Name>
TMX-3013

>  <Uniprot>
Q00536

>  <Target>
CDK16

>  <Smiles>
NC(=O)C1=C(F)C=CC=C1NC1=NC(NC2=CC=C(S(N)(=O)=O)C=C2)=NC=C1Br

>  <Kd (nM)>


>  <Assay (Kd)>


>  <Ki (nM)>


>  <Assay (Ki)>


>  <IC50 (nM)>


>  <Assay (IC50)>


>  <EC50 (nM)>


>  <Assay (EC50)>


>  <Article DOI>
10.1016/j.cell.2020.10.038

>  <Molecular Weight>
481.307

>  <Exact Mass>
480.001549628

>  <XLogP3>
2.74

>  <Heavy Atom Count>
29

>  <Ring Count>
3

>  <Hydrogen Bond Acceptor Count>
7

>  <Hydrogen Bond Donor Count>
4

>  <Rotatable Bond Count>
6

>  <Topological Polar Surface Area>
153.09

>  <Molecular Formula>
C17H14BrFN6O3S

>  <InChI>
InChI=1S/C17H14BrFN6O3S/c18-11-8-22-17(23-9-4-6-10(7-5-9)29(21,27)28)25-16(11)24-13-3-1-2-12(19)14(13)15(20)26/h1-8H,(H2,20,26)(H2,21,27,28)(H2,22,23,24,25)

>  <InChI Key>
VCPYDRGRPKSEOJ-UHFFFAOYSA-N

>  <BindingDB>


>  <PubChem>
155184510

>  <ChEMBL>


$$$$
Compound 381
Actelion Java MolfileCreator 2.0

  0  0  0  0  0  0              0 V3000
M  V30 BEGIN CTAB
M  V30 COUNTS 29 31 0 0 0
M  V30 BEGIN ATOM
M  V30 1 Br 0.0 0.0 0.0 0
M  V30 2 C 1.489 0.1299 0.0 0
M  V30 3 C 2.3281 -1.099 0.0 0
M  V30 4 C 2.1272 1.5008 0.0 0
M  V30 5 N 3.8171 -0.969 0.0 0
M  V30 6 N 1.6663 -2.4462 0.0 0
M  V30 7 N 3.6162 1.6308 0.0 0
M  V30 8 C 4.4553 0.4018 0.0 0
M  V30 9 C 0.1536 -2.5526 0.0 0
M  V30 10 N 5.9443 0.5318 0.0 0
M  V30 11 C -0.5081 -3.8998 0.0 0
M  V30 12 C -0.709 -1.2999 0.0 0
M  V30 13 C 6.7834 -0.6972 0.0 0
M  V30 14 C -2.0208 -4.0062 0.0 0
M  V30 15 C 0.3308 -5.1289 0.0 0
M  V30 16 C -2.2217 -1.4063 0.0 0
M  V30 17 C 6.1216 -2.0444 0.0 0
M  V30 18 C 8.2724 -0.5672 0.0 0
M  V30 19 F -2.6826 -5.3534 0.0 0
M  V30 20 C -2.8835 -2.7535 0.0 0
M  V30 21 O 1.8199 -4.9989 0.0 0
M  V30 22 N -0.3308 -6.4761 0.0 0
M  V30 23 C 6.9606 -3.2735 0.0 0
M  V30 24 C 9.1115 -1.7963 0.0 0
M  V30 25 C 8.4497 -3.1435 0.0 0
M  V30 26 S 9.2887 -4.3725 0.0 0
M  V30 27 O 8.0361 -5.2116 0.0 0
M  V30 28 O 10.5178 -3.5098 0.0 0
M  V30 29 N 10.1278 -5.6016 0.0 0
M  V30 END ATOM
M  V30 BEGIN BOND
M  V30 1 1 1 2
M  V30 2 2 2 3
M  V30 3 1 2 4
M  V30 4 1 3 5
M  V30 5 1 3 6
M  V30 6 2 4 7
M  V30 7 2 5 8
M  V30 8 1 6 9
M  V30 9 1 8 10
M  V30 10 2 9 11
M  V30 11 1 9 12
M  V30 12 1 10 13
M  V30 13 1 11 14
M  V30 14 1 11 15
M  V30 15 2 12 16
M  V30 16 2 13 17
M  V30 17 1 13 18
M  V30 18 1 14 19
M  V30 19 2 14 20
M  V30 20 2 15 21
M  V30 21 1 15 22
M  V30 22 1 17 23
M  V30 23 2 18 24
M  V30 24 2 23 25
M  V30 25 1 25 26
M  V30 26 2 26 27
M  V30 27 2 26 28
M  V30 28 1 26 29
M  V30 29 1 7 8
M  V30 30 1 16 20
M  V30 31 1 24 25
M  V30 END BOND
M  V30 END CTAB
M  END
>  <Compound ID>
129

>  <Name>
TMX-3013

>  <Uniprot>
Q00537

>  <Target>
CDK17

>  <Smiles>
NC(=O)C1=C(F)C=CC=C1NC1=NC(NC2=CC=C(S(N)(=O)=O)C=C2)=NC=C1Br

>  <Kd (nM)>


>  <Assay (Kd)>


>  <Ki (nM)>


>  <Assay (Ki)>


>  <IC50 (nM)>


>  <Assay (IC50)>


>  <EC50 (nM)>


>  <Assay (EC50)>


>  <Article DOI>
10.1016/j.cell.2020.10.038

>  <Molecular Weight>
481.307

>  <Exact Mass>
480.001549628

>  <XLogP3>
2.74

>  <Heavy Atom Count>
29

>  <Ring Count>
3

>  <Hydrogen Bond Acceptor Count>
7

>  <Hydrogen Bond Donor Count>
4

>  <Rotatable Bond Count>
6

>  <Topological Polar Surface Area>
153.09

>  <Molecular Formula>
C17H14BrFN6O3S

>  <InChI>
InChI=1S/C17H14BrFN6O3S/c18-11-8-22-17(23-9-4-6-10(7-5-9)29(21,27)28)25-16(11)24-13-3-1-2-12(19)14(13)15(20)26/h1-8H,(H2,20,26)(H2,21,27,28)(H2,22,23,24,25)

>  <InChI Key>
VCPYDRGRPKSEOJ-UHFFFAOYSA-N

>  <BindingDB>


>  <PubChem>
155184510

>  <ChEMBL>


$$$$
Compound 382
Actelion Java MolfileCreator 2.0

  0  0  0  0  0  0              0 V3000
M  V30 BEGIN CTAB
M  V30 COUNTS 29 31 0 0 0
M  V30 BEGIN ATOM
M  V30 1 Br 0.0 0.0 0.0 0
M  V30 2 C 1.489 0.1299 0.0 0
M  V30 3 C 2.3281 -1.099 0.0 0
M  V30 4 C 2.1272 1.5008 0.0 0
M  V30 5 N 3.8171 -0.969 0.0 0
M  V30 6 N 1.6663 -2.4462 0.0 0
M  V30 7 N 3.6162 1.6308 0.0 0
M  V30 8 C 4.4553 0.4018 0.0 0
M  V30 9 C 0.1536 -2.5526 0.0 0
M  V30 10 N 5.9443 0.5318 0.0 0
M  V30 11 C -0.5081 -3.8998 0.0 0
M  V30 12 C -0.709 -1.2999 0.0 0
M  V30 13 C 6.7834 -0.6972 0.0 0
M  V30 14 C -2.0208 -4.0062 0.0 0
M  V30 15 C 0.3308 -5.1289 0.0 0
M  V30 16 C -2.2217 -1.4063 0.0 0
M  V30 17 C 6.1216 -2.0444 0.0 0
M  V30 18 C 8.2724 -0.5672 0.0 0
M  V30 19 F -2.6826 -5.3534 0.0 0
M  V30 20 C -2.8835 -2.7535 0.0 0
M  V30 21 O 1.8199 -4.9989 0.0 0
M  V30 22 N -0.3308 -6.4761 0.0 0
M  V30 23 C 6.9606 -3.2735 0.0 0
M  V30 24 C 9.1115 -1.7963 0.0 0
M  V30 25 C 8.4497 -3.1435 0.0 0
M  V30 26 S 9.2887 -4.3725 0.0 0
M  V30 27 O 8.0361 -5.2116 0.0 0
M  V30 28 O 10.5178 -3.5098 0.0 0
M  V30 29 N 10.1278 -5.6016 0.0 0
M  V30 END ATOM
M  V30 BEGIN BOND
M  V30 1 1 1 2
M  V30 2 2 2 3
M  V30 3 1 2 4
M  V30 4 1 3 5
M  V30 5 1 3 6
M  V30 6 2 4 7
M  V30 7 2 5 8
M  V30 8 1 6 9
M  V30 9 1 8 10
M  V30 10 2 9 11
M  V30 11 1 9 12
M  V30 12 1 10 13
M  V30 13 1 11 14
M  V30 14 1 11 15
M  V30 15 2 12 16
M  V30 16 2 13 17
M  V30 17 1 13 18
M  V30 18 1 14 19
M  V30 19 2 14 20
M  V30 20 2 15 21
M  V30 21 1 15 22
M  V30 22 1 17 23
M  V30 23 2 18 24
M  V30 24 2 23 25
M  V30 25 1 25 26
M  V30 26 2 26 27
M  V30 27 2 26 28
M  V30 28 1 26 29
M  V30 29 1 7 8
M  V30 30 1 16 20
M  V30 31 1 24 25
M  V30 END BOND
M  V30 END CTAB
M  END
>  <Compound ID>
129

>  <Name>
TMX-3013

>  <Uniprot>
P06493

>  <Target>
CDK1

>  <Smiles>
NC(=O)C1=C(F)C=CC=C1NC1=NC(NC2=CC=C(S(N)(=O)=O)C=C2)=NC=C1Br

>  <Kd (nM)>


>  <Assay (Kd)>


>  <Ki (nM)>


>  <Assay (Ki)>


>  <IC50 (nM)>
0.9

>  <Assay (IC50)>
IC50 of CDK1/cyclin B was tested by the Z'-LYTE assays

>  <EC50 (nM)>


>  <Assay (EC50)>


>  <Article DOI>
10.1002/anie.202004087

>  <Molecular Weight>
481.307

>  <Exact Mass>
480.001549628

>  <XLogP3>
2.74

>  <Heavy Atom Count>
29

>  <Ring Count>
3

>  <Hydrogen Bond Acceptor Count>
7

>  <Hydrogen Bond Donor Count>
4

>  <Rotatable Bond Count>
6

>  <Topological Polar Surface Area>
153.09

>  <Molecular Formula>
C17H14BrFN6O3S

>  <InChI>
InChI=1S/C17H14BrFN6O3S/c18-11-8-22-17(23-9-4-6-10(7-5-9)29(21,27)28)25-16(11)24-13-3-1-2-12(19)14(13)15(20)26/h1-8H,(H2,20,26)(H2,21,27,28)(H2,22,23,24,25)

>  <InChI Key>
VCPYDRGRPKSEOJ-UHFFFAOYSA-N

>  <BindingDB>


>  <PubChem>
155184510

>  <ChEMBL>


$$$$
Compound 383
Actelion Java MolfileCreator 2.0

  0  0  0  0  0  0              0 V3000
M  V30 BEGIN CTAB
M  V30 COUNTS 29 31 0 0 0
M  V30 BEGIN ATOM
M  V30 1 Br 0.0 0.0 0.0 0
M  V30 2 C 1.489 0.1299 0.0 0
M  V30 3 C 2.3281 -1.099 0.0 0
M  V30 4 C 2.1272 1.5008 0.0 0
M  V30 5 N 3.8171 -0.969 0.0 0
M  V30 6 N 1.6663 -2.4462 0.0 0
M  V30 7 N 3.6162 1.6308 0.0 0
M  V30 8 C 4.4553 0.4018 0.0 0
M  V30 9 C 0.1536 -2.5526 0.0 0
M  V30 10 N 5.9443 0.5318 0.0 0
M  V30 11 C -0.5081 -3.8998 0.0 0
M  V30 12 C -0.709 -1.2999 0.0 0
M  V30 13 C 6.7834 -0.6972 0.0 0
M  V30 14 C -2.0208 -4.0062 0.0 0
M  V30 15 C 0.3308 -5.1289 0.0 0
M  V30 16 C -2.2217 -1.4063 0.0 0
M  V30 17 C 6.1216 -2.0444 0.0 0
M  V30 18 C 8.2724 -0.5672 0.0 0
M  V30 19 F -2.6826 -5.3534 0.0 0
M  V30 20 C -2.8835 -2.7535 0.0 0
M  V30 21 O 1.8199 -4.9989 0.0 0
M  V30 22 N -0.3308 -6.4761 0.0 0
M  V30 23 C 6.9606 -3.2735 0.0 0
M  V30 24 C 9.1115 -1.7963 0.0 0
M  V30 25 C 8.4497 -3.1435 0.0 0
M  V30 26 S 9.2887 -4.3725 0.0 0
M  V30 27 O 8.0361 -5.2116 0.0 0
M  V30 28 O 10.5178 -3.5098 0.0 0
M  V30 29 N 10.1278 -5.6016 0.0 0
M  V30 END ATOM
M  V30 BEGIN BOND
M  V30 1 1 1 2
M  V30 2 2 2 3
M  V30 3 1 2 4
M  V30 4 1 3 5
M  V30 5 1 3 6
M  V30 6 2 4 7
M  V30 7 2 5 8
M  V30 8 1 6 9
M  V30 9 1 8 10
M  V30 10 2 9 11
M  V30 11 1 9 12
M  V30 12 1 10 13
M  V30 13 1 11 14
M  V30 14 1 11 15
M  V30 15 2 12 16
M  V30 16 2 13 17
M  V30 17 1 13 18
M  V30 18 1 14 19
M  V30 19 2 14 20
M  V30 20 2 15 21
M  V30 21 1 15 22
M  V30 22 1 17 23
M  V30 23 2 18 24
M  V30 24 2 23 25
M  V30 25 1 25 26
M  V30 26 2 26 27
M  V30 27 2 26 28
M  V30 28 1 26 29
M  V30 29 1 7 8
M  V30 30 1 16 20
M  V30 31 1 24 25
M  V30 END BOND
M  V30 END CTAB
M  END
>  <Compound ID>
129

>  <Name>
TMX-3013

>  <Uniprot>
P24941

>  <Target>
CDK2

>  <Smiles>
NC(=O)C1=C(F)C=CC=C1NC1=NC(NC2=CC=C(S(N)(=O)=O)C=C2)=NC=C1Br

>  <Kd (nM)>


>  <Assay (Kd)>


>  <Ki (nM)>


>  <Assay (Ki)>


>  <IC50 (nM)>
<0.5

>  <Assay (IC50)>
IC50 of CDK2/cyclin A was tested by the Z'-LYTE assays

>  <EC50 (nM)>


>  <Assay (EC50)>


>  <Article DOI>
10.1002/anie.202004087

>  <Molecular Weight>
481.307

>  <Exact Mass>
480.001549628

>  <XLogP3>
2.74

>  <Heavy Atom Count>
29

>  <Ring Count>
3

>  <Hydrogen Bond Acceptor Count>
7

>  <Hydrogen Bond Donor Count>
4

>  <Rotatable Bond Count>
6

>  <Topological Polar Surface Area>
153.09

>  <Molecular Formula>
C17H14BrFN6O3S

>  <InChI>
InChI=1S/C17H14BrFN6O3S/c18-11-8-22-17(23-9-4-6-10(7-5-9)29(21,27)28)25-16(11)24-13-3-1-2-12(19)14(13)15(20)26/h1-8H,(H2,20,26)(H2,21,27,28)(H2,22,23,24,25)

>  <InChI Key>
VCPYDRGRPKSEOJ-UHFFFAOYSA-N

>  <BindingDB>


>  <PubChem>
155184510

>  <ChEMBL>


$$$$
Compound 384
Actelion Java MolfileCreator 2.0

  0  0  0  0  0  0              0 V3000
M  V30 BEGIN CTAB
M  V30 COUNTS 29 31 0 0 0
M  V30 BEGIN ATOM
M  V30 1 Br 0.0 0.0 0.0 0
M  V30 2 C 1.489 0.1299 0.0 0
M  V30 3 C 2.3281 -1.099 0.0 0
M  V30 4 C 2.1272 1.5008 0.0 0
M  V30 5 N 3.8171 -0.969 0.0 0
M  V30 6 N 1.6663 -2.4462 0.0 0
M  V30 7 N 3.6162 1.6308 0.0 0
M  V30 8 C 4.4553 0.4018 0.0 0
M  V30 9 C 0.1536 -2.5526 0.0 0
M  V30 10 N 5.9443 0.5318 0.0 0
M  V30 11 C -0.5081 -3.8998 0.0 0
M  V30 12 C -0.709 -1.2999 0.0 0
M  V30 13 C 6.7834 -0.6972 0.0 0
M  V30 14 C -2.0208 -4.0062 0.0 0
M  V30 15 C 0.3308 -5.1289 0.0 0
M  V30 16 C -2.2217 -1.4063 0.0 0
M  V30 17 C 6.1216 -2.0444 0.0 0
M  V30 18 C 8.2724 -0.5672 0.0 0
M  V30 19 F -2.6826 -5.3534 0.0 0
M  V30 20 C -2.8835 -2.7535 0.0 0
M  V30 21 O 1.8199 -4.9989 0.0 0
M  V30 22 N -0.3308 -6.4761 0.0 0
M  V30 23 C 6.9606 -3.2735 0.0 0
M  V30 24 C 9.1115 -1.7963 0.0 0
M  V30 25 C 8.4497 -3.1435 0.0 0
M  V30 26 S 9.2887 -4.3725 0.0 0
M  V30 27 O 8.0361 -5.2116 0.0 0
M  V30 28 O 10.5178 -3.5098 0.0 0
M  V30 29 N 10.1278 -5.6016 0.0 0
M  V30 END ATOM
M  V30 BEGIN BOND
M  V30 1 1 1 2
M  V30 2 2 2 3
M  V30 3 1 2 4
M  V30 4 1 3 5
M  V30 5 1 3 6
M  V30 6 2 4 7
M  V30 7 2 5 8
M  V30 8 1 6 9
M  V30 9 1 8 10
M  V30 10 2 9 11
M  V30 11 1 9 12
M  V30 12 1 10 13
M  V30 13 1 11 14
M  V30 14 1 11 15
M  V30 15 2 12 16
M  V30 16 2 13 17
M  V30 17 1 13 18
M  V30 18 1 14 19
M  V30 19 2 14 20
M  V30 20 2 15 21
M  V30 21 1 15 22
M  V30 22 1 17 23
M  V30 23 2 18 24
M  V30 24 2 23 25
M  V30 25 1 25 26
M  V30 26 2 26 27
M  V30 27 2 26 28
M  V30 28 1 26 29
M  V30 29 1 7 8
M  V30 30 1 16 20
M  V30 31 1 24 25
M  V30 END BOND
M  V30 END CTAB
M  END
>  <Compound ID>
129

>  <Name>
TMX-3013

>  <Uniprot>
P11802

>  <Target>
CDK4

>  <Smiles>
NC(=O)C1=C(F)C=CC=C1NC1=NC(NC2=CC=C(S(N)(=O)=O)C=C2)=NC=C1Br

>  <Kd (nM)>


>  <Assay (Kd)>


>  <Ki (nM)>


>  <Assay (Ki)>


>  <IC50 (nM)>
24.5

>  <Assay (IC50)>
IC50 of CDK4/cyclin D1 was tested by the Adapta assays

>  <EC50 (nM)>


>  <Assay (EC50)>


>  <Article DOI>
10.1002/anie.202004087

>  <Molecular Weight>
481.307

>  <Exact Mass>
480.001549628

>  <XLogP3>
2.74

>  <Heavy Atom Count>
29

>  <Ring Count>
3

>  <Hydrogen Bond Acceptor Count>
7

>  <Hydrogen Bond Donor Count>
4

>  <Rotatable Bond Count>
6

>  <Topological Polar Surface Area>
153.09

>  <Molecular Formula>
C17H14BrFN6O3S

>  <InChI>
InChI=1S/C17H14BrFN6O3S/c18-11-8-22-17(23-9-4-6-10(7-5-9)29(21,27)28)25-16(11)24-13-3-1-2-12(19)14(13)15(20)26/h1-8H,(H2,20,26)(H2,21,27,28)(H2,22,23,24,25)

>  <InChI Key>
VCPYDRGRPKSEOJ-UHFFFAOYSA-N

>  <BindingDB>


>  <PubChem>
155184510

>  <ChEMBL>


$$$$
Compound 385
Actelion Java MolfileCreator 2.0

  0  0  0  0  0  0              0 V3000
M  V30 BEGIN CTAB
M  V30 COUNTS 29 31 0 0 0
M  V30 BEGIN ATOM
M  V30 1 Br 0.0 0.0 0.0 0
M  V30 2 C 1.489 0.1299 0.0 0
M  V30 3 C 2.3281 -1.099 0.0 0
M  V30 4 C 2.1272 1.5008 0.0 0
M  V30 5 N 3.8171 -0.969 0.0 0
M  V30 6 N 1.6663 -2.4462 0.0 0
M  V30 7 N 3.6162 1.6308 0.0 0
M  V30 8 C 4.4553 0.4018 0.0 0
M  V30 9 C 0.1536 -2.5526 0.0 0
M  V30 10 N 5.9443 0.5318 0.0 0
M  V30 11 C -0.5081 -3.8998 0.0 0
M  V30 12 C -0.709 -1.2999 0.0 0
M  V30 13 C 6.7834 -0.6972 0.0 0
M  V30 14 C -2.0208 -4.0062 0.0 0
M  V30 15 C 0.3308 -5.1289 0.0 0
M  V30 16 C -2.2217 -1.4063 0.0 0
M  V30 17 C 6.1216 -2.0444 0.0 0
M  V30 18 C 8.2724 -0.5672 0.0 0
M  V30 19 F -2.6826 -5.3534 0.0 0
M  V30 20 C -2.8835 -2.7535 0.0 0
M  V30 21 O 1.8199 -4.9989 0.0 0
M  V30 22 N -0.3308 -6.4761 0.0 0
M  V30 23 C 6.9606 -3.2735 0.0 0
M  V30 24 C 9.1115 -1.7963 0.0 0
M  V30 25 C 8.4497 -3.1435 0.0 0
M  V30 26 S 9.2887 -4.3725 0.0 0
M  V30 27 O 8.0361 -5.2116 0.0 0
M  V30 28 O 10.5178 -3.5098 0.0 0
M  V30 29 N 10.1278 -5.6016 0.0 0
M  V30 END ATOM
M  V30 BEGIN BOND
M  V30 1 1 1 2
M  V30 2 2 2 3
M  V30 3 1 2 4
M  V30 4 1 3 5
M  V30 5 1 3 6
M  V30 6 2 4 7
M  V30 7 2 5 8
M  V30 8 1 6 9
M  V30 9 1 8 10
M  V30 10 2 9 11
M  V30 11 1 9 12
M  V30 12 1 10 13
M  V30 13 1 11 14
M  V30 14 1 11 15
M  V30 15 2 12 16
M  V30 16 2 13 17
M  V30 17 1 13 18
M  V30 18 1 14 19
M  V30 19 2 14 20
M  V30 20 2 15 21
M  V30 21 1 15 22
M  V30 22 1 17 23
M  V30 23 2 18 24
M  V30 24 2 23 25
M  V30 25 1 25 26
M  V30 26 2 26 27
M  V30 27 2 26 28
M  V30 28 1 26 29
M  V30 29 1 7 8
M  V30 30 1 16 20
M  V30 31 1 24 25
M  V30 END BOND
M  V30 END CTAB
M  END
>  <Compound ID>
129

>  <Name>
TMX-3013

>  <Uniprot>
Q00535

>  <Target>
CDK5

>  <Smiles>
NC(=O)C1=C(F)C=CC=C1NC1=NC(NC2=CC=C(S(N)(=O)=O)C=C2)=NC=C1Br

>  <Kd (nM)>


>  <Assay (Kd)>


>  <Ki (nM)>


>  <Assay (Ki)>


>  <IC50 (nM)>
0.5

>  <Assay (IC50)>
IC50 of CDK5/p25 was tested by the Z'-LYTE assays

>  <EC50 (nM)>


>  <Assay (EC50)>


>  <Article DOI>
10.1002/anie.202004087

>  <Molecular Weight>
481.307

>  <Exact Mass>
480.001549628

>  <XLogP3>
2.74

>  <Heavy Atom Count>
29

>  <Ring Count>
3

>  <Hydrogen Bond Acceptor Count>
7

>  <Hydrogen Bond Donor Count>
4

>  <Rotatable Bond Count>
6

>  <Topological Polar Surface Area>
153.09

>  <Molecular Formula>
C17H14BrFN6O3S

>  <InChI>
InChI=1S/C17H14BrFN6O3S/c18-11-8-22-17(23-9-4-6-10(7-5-9)29(21,27)28)25-16(11)24-13-3-1-2-12(19)14(13)15(20)26/h1-8H,(H2,20,26)(H2,21,27,28)(H2,22,23,24,25)

>  <InChI Key>
VCPYDRGRPKSEOJ-UHFFFAOYSA-N

>  <BindingDB>


>  <PubChem>
155184510

>  <ChEMBL>


$$$$
Compound 386
Actelion Java MolfileCreator 2.0

  0  0  0  0  0  0              0 V3000
M  V30 BEGIN CTAB
M  V30 COUNTS 29 31 0 0 0
M  V30 BEGIN ATOM
M  V30 1 Br 0.0 0.0 0.0 0
M  V30 2 C 1.489 0.1299 0.0 0
M  V30 3 C 2.3281 -1.099 0.0 0
M  V30 4 C 2.1272 1.5008 0.0 0
M  V30 5 N 3.8171 -0.969 0.0 0
M  V30 6 N 1.6663 -2.4462 0.0 0
M  V30 7 N 3.6162 1.6308 0.0 0
M  V30 8 C 4.4553 0.4018 0.0 0
M  V30 9 C 0.1536 -2.5526 0.0 0
M  V30 10 N 5.9443 0.5318 0.0 0
M  V30 11 C -0.5081 -3.8998 0.0 0
M  V30 12 C -0.709 -1.2999 0.0 0
M  V30 13 C 6.7834 -0.6972 0.0 0
M  V30 14 C -2.0208 -4.0062 0.0 0
M  V30 15 C 0.3308 -5.1289 0.0 0
M  V30 16 C -2.2217 -1.4063 0.0 0
M  V30 17 C 6.1216 -2.0444 0.0 0
M  V30 18 C 8.2724 -0.5672 0.0 0
M  V30 19 F -2.6826 -5.3534 0.0 0
M  V30 20 C -2.8835 -2.7535 0.0 0
M  V30 21 O 1.8199 -4.9989 0.0 0
M  V30 22 N -0.3308 -6.4761 0.0 0
M  V30 23 C 6.9606 -3.2735 0.0 0
M  V30 24 C 9.1115 -1.7963 0.0 0
M  V30 25 C 8.4497 -3.1435 0.0 0
M  V30 26 S 9.2887 -4.3725 0.0 0
M  V30 27 O 8.0361 -5.2116 0.0 0
M  V30 28 O 10.5178 -3.5098 0.0 0
M  V30 29 N 10.1278 -5.6016 0.0 0
M  V30 END ATOM
M  V30 BEGIN BOND
M  V30 1 1 1 2
M  V30 2 2 2 3
M  V30 3 1 2 4
M  V30 4 1 3 5
M  V30 5 1 3 6
M  V30 6 2 4 7
M  V30 7 2 5 8
M  V30 8 1 6 9
M  V30 9 1 8 10
M  V30 10 2 9 11
M  V30 11 1 9 12
M  V30 12 1 10 13
M  V30 13 1 11 14
M  V30 14 1 11 15
M  V30 15 2 12 16
M  V30 16 2 13 17
M  V30 17 1 13 18
M  V30 18 1 14 19
M  V30 19 2 14 20
M  V30 20 2 15 21
M  V30 21 1 15 22
M  V30 22 1 17 23
M  V30 23 2 18 24
M  V30 24 2 23 25
M  V30 25 1 25 26
M  V30 26 2 26 27
M  V30 27 2 26 28
M  V30 28 1 26 29
M  V30 29 1 7 8
M  V30 30 1 16 20
M  V30 31 1 24 25
M  V30 END BOND
M  V30 END CTAB
M  END
>  <Compound ID>
129

>  <Name>
TMX-3013

>  <Uniprot>
Q00534

>  <Target>
CDK6

>  <Smiles>
NC(=O)C1=C(F)C=CC=C1NC1=NC(NC2=CC=C(S(N)(=O)=O)C=C2)=NC=C1Br

>  <Kd (nM)>


>  <Assay (Kd)>


>  <Ki (nM)>


>  <Assay (Ki)>


>  <IC50 (nM)>
15.6

>  <Assay (IC50)>
IC50 of CDK6/cyclin D1 was tested by the Adapta assays

>  <EC50 (nM)>


>  <Assay (EC50)>


>  <Article DOI>
10.1002/anie.202004087

>  <Molecular Weight>
481.307

>  <Exact Mass>
480.001549628

>  <XLogP3>
2.74

>  <Heavy Atom Count>
29

>  <Ring Count>
3

>  <Hydrogen Bond Acceptor Count>
7

>  <Hydrogen Bond Donor Count>
4

>  <Rotatable Bond Count>
6

>  <Topological Polar Surface Area>
153.09

>  <Molecular Formula>
C17H14BrFN6O3S

>  <InChI>
InChI=1S/C17H14BrFN6O3S/c18-11-8-22-17(23-9-4-6-10(7-5-9)29(21,27)28)25-16(11)24-13-3-1-2-12(19)14(13)15(20)26/h1-8H,(H2,20,26)(H2,21,27,28)(H2,22,23,24,25)

>  <InChI Key>
VCPYDRGRPKSEOJ-UHFFFAOYSA-N

>  <BindingDB>


>  <PubChem>
155184510

>  <ChEMBL>


$$$$
Compound 387
Actelion Java MolfileCreator 2.0

  0  0  0  0  0  0              0 V3000
M  V30 BEGIN CTAB
M  V30 COUNTS 29 31 0 0 0
M  V30 BEGIN ATOM
M  V30 1 Br 0.0 0.0 0.0 0
M  V30 2 C 1.489 0.1299 0.0 0
M  V30 3 C 2.3281 -1.099 0.0 0
M  V30 4 C 2.1272 1.5008 0.0 0
M  V30 5 N 3.8171 -0.969 0.0 0
M  V30 6 N 1.6663 -2.4462 0.0 0
M  V30 7 N 3.6162 1.6308 0.0 0
M  V30 8 C 4.4553 0.4018 0.0 0
M  V30 9 C 0.1536 -2.5526 0.0 0
M  V30 10 N 5.9443 0.5318 0.0 0
M  V30 11 C -0.5081 -3.8998 0.0 0
M  V30 12 C -0.709 -1.2999 0.0 0
M  V30 13 C 6.7834 -0.6972 0.0 0
M  V30 14 C -2.0208 -4.0062 0.0 0
M  V30 15 C 0.3308 -5.1289 0.0 0
M  V30 16 C -2.2217 -1.4063 0.0 0
M  V30 17 C 6.1216 -2.0444 0.0 0
M  V30 18 C 8.2724 -0.5672 0.0 0
M  V30 19 F -2.6826 -5.3534 0.0 0
M  V30 20 C -2.8835 -2.7535 0.0 0
M  V30 21 O 1.8199 -4.9989 0.0 0
M  V30 22 N -0.3308 -6.4761 0.0 0
M  V30 23 C 6.9606 -3.2735 0.0 0
M  V30 24 C 9.1115 -1.7963 0.0 0
M  V30 25 C 8.4497 -3.1435 0.0 0
M  V30 26 S 9.2887 -4.3725 0.0 0
M  V30 27 O 8.0361 -5.2116 0.0 0
M  V30 28 O 10.5178 -3.5098 0.0 0
M  V30 29 N 10.1278 -5.6016 0.0 0
M  V30 END ATOM
M  V30 BEGIN BOND
M  V30 1 1 1 2
M  V30 2 2 2 3
M  V30 3 1 2 4
M  V30 4 1 3 5
M  V30 5 1 3 6
M  V30 6 2 4 7
M  V30 7 2 5 8
M  V30 8 1 6 9
M  V30 9 1 8 10
M  V30 10 2 9 11
M  V30 11 1 9 12
M  V30 12 1 10 13
M  V30 13 1 11 14
M  V30 14 1 11 15
M  V30 15 2 12 16
M  V30 16 2 13 17
M  V30 17 1 13 18
M  V30 18 1 14 19
M  V30 19 2 14 20
M  V30 20 2 15 21
M  V30 21 1 15 22
M  V30 22 1 17 23
M  V30 23 2 18 24
M  V30 24 2 23 25
M  V30 25 1 25 26
M  V30 26 2 26 27
M  V30 27 2 26 28
M  V30 28 1 26 29
M  V30 29 1 7 8
M  V30 30 1 16 20
M  V30 31 1 24 25
M  V30 END BOND
M  V30 END CTAB
M  END
>  <Compound ID>
129

>  <Name>
TMX-3013

>  <Uniprot>
P50613

>  <Target>
CDK7

>  <Smiles>
NC(=O)C1=C(F)C=CC=C1NC1=NC(NC2=CC=C(S(N)(=O)=O)C=C2)=NC=C1Br

>  <Kd (nM)>


>  <Assay (Kd)>


>  <Ki (nM)>


>  <Assay (Ki)>


>  <IC50 (nM)>


>  <Assay (IC50)>


>  <EC50 (nM)>


>  <Assay (EC50)>


>  <Article DOI>
10.1016/j.cell.2020.10.038

>  <Molecular Weight>
481.307

>  <Exact Mass>
480.001549628

>  <XLogP3>
2.74

>  <Heavy Atom Count>
29

>  <Ring Count>
3

>  <Hydrogen Bond Acceptor Count>
7

>  <Hydrogen Bond Donor Count>
4

>  <Rotatable Bond Count>
6

>  <Topological Polar Surface Area>
153.09

>  <Molecular Formula>
C17H14BrFN6O3S

>  <InChI>
InChI=1S/C17H14BrFN6O3S/c18-11-8-22-17(23-9-4-6-10(7-5-9)29(21,27)28)25-16(11)24-13-3-1-2-12(19)14(13)15(20)26/h1-8H,(H2,20,26)(H2,21,27,28)(H2,22,23,24,25)

>  <InChI Key>
VCPYDRGRPKSEOJ-UHFFFAOYSA-N

>  <BindingDB>


>  <PubChem>
155184510

>  <ChEMBL>


$$$$
Compound 388
Actelion Java MolfileCreator 2.0

  0  0  0  0  0  0              0 V3000
M  V30 BEGIN CTAB
M  V30 COUNTS 29 31 0 0 0
M  V30 BEGIN ATOM
M  V30 1 Br 0.0 0.0 0.0 0
M  V30 2 C 1.489 0.1299 0.0 0
M  V30 3 C 2.3281 -1.099 0.0 0
M  V30 4 C 2.1272 1.5008 0.0 0
M  V30 5 N 3.8171 -0.969 0.0 0
M  V30 6 N 1.6663 -2.4462 0.0 0
M  V30 7 N 3.6162 1.6308 0.0 0
M  V30 8 C 4.4553 0.4018 0.0 0
M  V30 9 C 0.1536 -2.5526 0.0 0
M  V30 10 N 5.9443 0.5318 0.0 0
M  V30 11 C -0.5081 -3.8998 0.0 0
M  V30 12 C -0.709 -1.2999 0.0 0
M  V30 13 C 6.7834 -0.6972 0.0 0
M  V30 14 C -2.0208 -4.0062 0.0 0
M  V30 15 C 0.3308 -5.1289 0.0 0
M  V30 16 C -2.2217 -1.4063 0.0 0
M  V30 17 C 6.1216 -2.0444 0.0 0
M  V30 18 C 8.2724 -0.5672 0.0 0
M  V30 19 F -2.6826 -5.3534 0.0 0
M  V30 20 C -2.8835 -2.7535 0.0 0
M  V30 21 O 1.8199 -4.9989 0.0 0
M  V30 22 N -0.3308 -6.4761 0.0 0
M  V30 23 C 6.9606 -3.2735 0.0 0
M  V30 24 C 9.1115 -1.7963 0.0 0
M  V30 25 C 8.4497 -3.1435 0.0 0
M  V30 26 S 9.2887 -4.3725 0.0 0
M  V30 27 O 8.0361 -5.2116 0.0 0
M  V30 28 O 10.5178 -3.5098 0.0 0
M  V30 29 N 10.1278 -5.6016 0.0 0
M  V30 END ATOM
M  V30 BEGIN BOND
M  V30 1 1 1 2
M  V30 2 2 2 3
M  V30 3 1 2 4
M  V30 4 1 3 5
M  V30 5 1 3 6
M  V30 6 2 4 7
M  V30 7 2 5 8
M  V30 8 1 6 9
M  V30 9 1 8 10
M  V30 10 2 9 11
M  V30 11 1 9 12
M  V30 12 1 10 13
M  V30 13 1 11 14
M  V30 14 1 11 15
M  V30 15 2 12 16
M  V30 16 2 13 17
M  V30 17 1 13 18
M  V30 18 1 14 19
M  V30 19 2 14 20
M  V30 20 2 15 21
M  V30 21 1 15 22
M  V30 22 1 17 23
M  V30 23 2 18 24
M  V30 24 2 23 25
M  V30 25 1 25 26
M  V30 26 2 26 27
M  V30 27 2 26 28
M  V30 28 1 26 29
M  V30 29 1 7 8
M  V30 30 1 16 20
M  V30 31 1 24 25
M  V30 END BOND
M  V30 END CTAB
M  END
>  <Compound ID>
129

>  <Name>
TMX-3013

>  <Uniprot>
P50750

>  <Target>
CDK9

>  <Smiles>
NC(=O)C1=C(F)C=CC=C1NC1=NC(NC2=CC=C(S(N)(=O)=O)C=C2)=NC=C1Br

>  <Kd (nM)>


>  <Assay (Kd)>


>  <Ki (nM)>


>  <Assay (Ki)>


>  <IC50 (nM)>


>  <Assay (IC50)>


>  <EC50 (nM)>


>  <Assay (EC50)>


>  <Article DOI>
10.1016/j.cell.2020.10.038

>  <Molecular Weight>
481.307

>  <Exact Mass>
480.001549628

>  <XLogP3>
2.74

>  <Heavy Atom Count>
29

>  <Ring Count>
3

>  <Hydrogen Bond Acceptor Count>
7

>  <Hydrogen Bond Donor Count>
4

>  <Rotatable Bond Count>
6

>  <Topological Polar Surface Area>
153.09

>  <Molecular Formula>
C17H14BrFN6O3S

>  <InChI>
InChI=1S/C17H14BrFN6O3S/c18-11-8-22-17(23-9-4-6-10(7-5-9)29(21,27)28)25-16(11)24-13-3-1-2-12(19)14(13)15(20)26/h1-8H,(H2,20,26)(H2,21,27,28)(H2,22,23,24,25)

>  <InChI Key>
VCPYDRGRPKSEOJ-UHFFFAOYSA-N

>  <BindingDB>


>  <PubChem>
155184510

>  <ChEMBL>


$$$$
Compound 389
Actelion Java MolfileCreator 2.0

  0  0  0  0  0  0              0 V3000
M  V30 BEGIN CTAB
M  V30 COUNTS 29 31 0 0 0
M  V30 BEGIN ATOM
M  V30 1 Br 0.0 0.0 0.0 0
M  V30 2 C 1.489 0.1299 0.0 0
M  V30 3 C 2.3281 -1.099 0.0 0
M  V30 4 C 2.1272 1.5008 0.0 0
M  V30 5 N 3.8171 -0.969 0.0 0
M  V30 6 N 1.6663 -2.4462 0.0 0
M  V30 7 N 3.6162 1.6308 0.0 0
M  V30 8 C 4.4553 0.4018 0.0 0
M  V30 9 C 0.1536 -2.5526 0.0 0
M  V30 10 N 5.9443 0.5318 0.0 0
M  V30 11 C -0.5081 -3.8998 0.0 0
M  V30 12 C -0.709 -1.2999 0.0 0
M  V30 13 C 6.7834 -0.6972 0.0 0
M  V30 14 C -2.0208 -4.0062 0.0 0
M  V30 15 C 0.3308 -5.1289 0.0 0
M  V30 16 C -2.2217 -1.4063 0.0 0
M  V30 17 C 6.1216 -2.0444 0.0 0
M  V30 18 C 8.2724 -0.5672 0.0 0
M  V30 19 F -2.6826 -5.3534 0.0 0
M  V30 20 C -2.8835 -2.7535 0.0 0
M  V30 21 O 1.8199 -4.9989 0.0 0
M  V30 22 N -0.3308 -6.4761 0.0 0
M  V30 23 C 6.9606 -3.2735 0.0 0
M  V30 24 C 9.1115 -1.7963 0.0 0
M  V30 25 C 8.4497 -3.1435 0.0 0
M  V30 26 S 9.2887 -4.3725 0.0 0
M  V30 27 O 8.0361 -5.2116 0.0 0
M  V30 28 O 10.5178 -3.5098 0.0 0
M  V30 29 N 10.1278 -5.6016 0.0 0
M  V30 END ATOM
M  V30 BEGIN BOND
M  V30 1 1 1 2
M  V30 2 2 2 3
M  V30 3 1 2 4
M  V30 4 1 3 5
M  V30 5 1 3 6
M  V30 6 2 4 7
M  V30 7 2 5 8
M  V30 8 1 6 9
M  V30 9 1 8 10
M  V30 10 2 9 11
M  V30 11 1 9 12
M  V30 12 1 10 13
M  V30 13 1 11 14
M  V30 14 1 11 15
M  V30 15 2 12 16
M  V30 16 2 13 17
M  V30 17 1 13 18
M  V30 18 1 14 19
M  V30 19 2 14 20
M  V30 20 2 15 21
M  V30 21 1 15 22
M  V30 22 1 17 23
M  V30 23 2 18 24
M  V30 24 2 23 25
M  V30 25 1 25 26
M  V30 26 2 26 27
M  V30 27 2 26 28
M  V30 28 1 26 29
M  V30 29 1 7 8
M  V30 30 1 16 20
M  V30 31 1 24 25
M  V30 END BOND
M  V30 END CTAB
M  END
>  <Compound ID>
129

>  <Name>
TMX-3013

>  <Uniprot>
P49759

>  <Target>
CLK1

>  <Smiles>
NC(=O)C1=C(F)C=CC=C1NC1=NC(NC2=CC=C(S(N)(=O)=O)C=C2)=NC=C1Br

>  <Kd (nM)>


>  <Assay (Kd)>


>  <Ki (nM)>


>  <Assay (Ki)>


>  <IC50 (nM)>


>  <Assay (IC50)>


>  <EC50 (nM)>


>  <Assay (EC50)>


>  <Article DOI>
10.1016/j.cell.2020.10.038

>  <Molecular Weight>
481.307

>  <Exact Mass>
480.001549628

>  <XLogP3>
2.74

>  <Heavy Atom Count>
29

>  <Ring Count>
3

>  <Hydrogen Bond Acceptor Count>
7

>  <Hydrogen Bond Donor Count>
4

>  <Rotatable Bond Count>
6

>  <Topological Polar Surface Area>
153.09

>  <Molecular Formula>
C17H14BrFN6O3S

>  <InChI>
InChI=1S/C17H14BrFN6O3S/c18-11-8-22-17(23-9-4-6-10(7-5-9)29(21,27)28)25-16(11)24-13-3-1-2-12(19)14(13)15(20)26/h1-8H,(H2,20,26)(H2,21,27,28)(H2,22,23,24,25)

>  <InChI Key>
VCPYDRGRPKSEOJ-UHFFFAOYSA-N

>  <BindingDB>


>  <PubChem>
155184510

>  <ChEMBL>


$$$$
Compound 390
Actelion Java MolfileCreator 2.0

  0  0  0  0  0  0              0 V3000
M  V30 BEGIN CTAB
M  V30 COUNTS 29 31 0 0 0
M  V30 BEGIN ATOM
M  V30 1 Br 0.0 0.0 0.0 0
M  V30 2 C 1.489 0.1299 0.0 0
M  V30 3 C 2.3281 -1.099 0.0 0
M  V30 4 C 2.1272 1.5008 0.0 0
M  V30 5 N 3.8171 -0.969 0.0 0
M  V30 6 N 1.6663 -2.4462 0.0 0
M  V30 7 N 3.6162 1.6308 0.0 0
M  V30 8 C 4.4553 0.4018 0.0 0
M  V30 9 C 0.1536 -2.5526 0.0 0
M  V30 10 N 5.9443 0.5318 0.0 0
M  V30 11 C -0.5081 -3.8998 0.0 0
M  V30 12 C -0.709 -1.2999 0.0 0
M  V30 13 C 6.7834 -0.6972 0.0 0
M  V30 14 C -2.0208 -4.0062 0.0 0
M  V30 15 C 0.3308 -5.1289 0.0 0
M  V30 16 C -2.2217 -1.4063 0.0 0
M  V30 17 C 6.1216 -2.0444 0.0 0
M  V30 18 C 8.2724 -0.5672 0.0 0
M  V30 19 F -2.6826 -5.3534 0.0 0
M  V30 20 C -2.8835 -2.7535 0.0 0
M  V30 21 O 1.8199 -4.9989 0.0 0
M  V30 22 N -0.3308 -6.4761 0.0 0
M  V30 23 C 6.9606 -3.2735 0.0 0
M  V30 24 C 9.1115 -1.7963 0.0 0
M  V30 25 C 8.4497 -3.1435 0.0 0
M  V30 26 S 9.2887 -4.3725 0.0 0
M  V30 27 O 8.0361 -5.2116 0.0 0
M  V30 28 O 10.5178 -3.5098 0.0 0
M  V30 29 N 10.1278 -5.6016 0.0 0
M  V30 END ATOM
M  V30 BEGIN BOND
M  V30 1 1 1 2
M  V30 2 2 2 3
M  V30 3 1 2 4
M  V30 4 1 3 5
M  V30 5 1 3 6
M  V30 6 2 4 7
M  V30 7 2 5 8
M  V30 8 1 6 9
M  V30 9 1 8 10
M  V30 10 2 9 11
M  V30 11 1 9 12
M  V30 12 1 10 13
M  V30 13 1 11 14
M  V30 14 1 11 15
M  V30 15 2 12 16
M  V30 16 2 13 17
M  V30 17 1 13 18
M  V30 18 1 14 19
M  V30 19 2 14 20
M  V30 20 2 15 21
M  V30 21 1 15 22
M  V30 22 1 17 23
M  V30 23 2 18 24
M  V30 24 2 23 25
M  V30 25 1 25 26
M  V30 26 2 26 27
M  V30 27 2 26 28
M  V30 28 1 26 29
M  V30 29 1 7 8
M  V30 30 1 16 20
M  V30 31 1 24 25
M  V30 END BOND
M  V30 END CTAB
M  END
>  <Compound ID>
129

>  <Name>
TMX-3013

>  <Uniprot>
P16591

>  <Target>
FER

>  <Smiles>
NC(=O)C1=C(F)C=CC=C1NC1=NC(NC2=CC=C(S(N)(=O)=O)C=C2)=NC=C1Br

>  <Kd (nM)>


>  <Assay (Kd)>


>  <Ki (nM)>


>  <Assay (Ki)>


>  <IC50 (nM)>


>  <Assay (IC50)>


>  <EC50 (nM)>


>  <Assay (EC50)>


>  <Article DOI>
10.1016/j.cell.2020.10.038

>  <Molecular Weight>
481.307

>  <Exact Mass>
480.001549628

>  <XLogP3>
2.74

>  <Heavy Atom Count>
29

>  <Ring Count>
3

>  <Hydrogen Bond Acceptor Count>
7

>  <Hydrogen Bond Donor Count>
4

>  <Rotatable Bond Count>
6

>  <Topological Polar Surface Area>
153.09

>  <Molecular Formula>
C17H14BrFN6O3S

>  <InChI>
InChI=1S/C17H14BrFN6O3S/c18-11-8-22-17(23-9-4-6-10(7-5-9)29(21,27)28)25-16(11)24-13-3-1-2-12(19)14(13)15(20)26/h1-8H,(H2,20,26)(H2,21,27,28)(H2,22,23,24,25)

>  <InChI Key>
VCPYDRGRPKSEOJ-UHFFFAOYSA-N

>  <BindingDB>


>  <PubChem>
155184510

>  <ChEMBL>


$$$$
Compound 391
Actelion Java MolfileCreator 2.0

  0  0  0  0  0  0              0 V3000
M  V30 BEGIN CTAB
M  V30 COUNTS 29 31 0 0 0
M  V30 BEGIN ATOM
M  V30 1 Br 0.0 0.0 0.0 0
M  V30 2 C 1.489 0.1299 0.0 0
M  V30 3 C 2.3281 -1.099 0.0 0
M  V30 4 C 2.1272 1.5008 0.0 0
M  V30 5 N 3.8171 -0.969 0.0 0
M  V30 6 N 1.6663 -2.4462 0.0 0
M  V30 7 N 3.6162 1.6308 0.0 0
M  V30 8 C 4.4553 0.4018 0.0 0
M  V30 9 C 0.1536 -2.5526 0.0 0
M  V30 10 N 5.9443 0.5318 0.0 0
M  V30 11 C -0.5081 -3.8998 0.0 0
M  V30 12 C -0.709 -1.2999 0.0 0
M  V30 13 C 6.7834 -0.6972 0.0 0
M  V30 14 C -2.0208 -4.0062 0.0 0
M  V30 15 C 0.3308 -5.1289 0.0 0
M  V30 16 C -2.2217 -1.4063 0.0 0
M  V30 17 C 6.1216 -2.0444 0.0 0
M  V30 18 C 8.2724 -0.5672 0.0 0
M  V30 19 F -2.6826 -5.3534 0.0 0
M  V30 20 C -2.8835 -2.7535 0.0 0
M  V30 21 O 1.8199 -4.9989 0.0 0
M  V30 22 N -0.3308 -6.4761 0.0 0
M  V30 23 C 6.9606 -3.2735 0.0 0
M  V30 24 C 9.1115 -1.7963 0.0 0
M  V30 25 C 8.4497 -3.1435 0.0 0
M  V30 26 S 9.2887 -4.3725 0.0 0
M  V30 27 O 8.0361 -5.2116 0.0 0
M  V30 28 O 10.5178 -3.5098 0.0 0
M  V30 29 N 10.1278 -5.6016 0.0 0
M  V30 END ATOM
M  V30 BEGIN BOND
M  V30 1 1 1 2
M  V30 2 2 2 3
M  V30 3 1 2 4
M  V30 4 1 3 5
M  V30 5 1 3 6
M  V30 6 2 4 7
M  V30 7 2 5 8
M  V30 8 1 6 9
M  V30 9 1 8 10
M  V30 10 2 9 11
M  V30 11 1 9 12
M  V30 12 1 10 13
M  V30 13 1 11 14
M  V30 14 1 11 15
M  V30 15 2 12 16
M  V30 16 2 13 17
M  V30 17 1 13 18
M  V30 18 1 14 19
M  V30 19 2 14 20
M  V30 20 2 15 21
M  V30 21 1 15 22
M  V30 22 1 17 23
M  V30 23 2 18 24
M  V30 24 2 23 25
M  V30 25 1 25 26
M  V30 26 2 26 27
M  V30 27 2 26 28
M  V30 28 1 26 29
M  V30 29 1 7 8
M  V30 30 1 16 20
M  V30 31 1 24 25
M  V30 END BOND
M  V30 END CTAB
M  END
>  <Compound ID>
129

>  <Name>
TMX-3013

>  <Uniprot>
P49840

>  <Target>
GSK3A

>  <Smiles>
NC(=O)C1=C(F)C=CC=C1NC1=NC(NC2=CC=C(S(N)(=O)=O)C=C2)=NC=C1Br

>  <Kd (nM)>


>  <Assay (Kd)>


>  <Ki (nM)>


>  <Assay (Ki)>


>  <IC50 (nM)>


>  <Assay (IC50)>


>  <EC50 (nM)>


>  <Assay (EC50)>


>  <Article DOI>
10.1016/j.cell.2020.10.038

>  <Molecular Weight>
481.307

>  <Exact Mass>
480.001549628

>  <XLogP3>
2.74

>  <Heavy Atom Count>
29

>  <Ring Count>
3

>  <Hydrogen Bond Acceptor Count>
7

>  <Hydrogen Bond Donor Count>
4

>  <Rotatable Bond Count>
6

>  <Topological Polar Surface Area>
153.09

>  <Molecular Formula>
C17H14BrFN6O3S

>  <InChI>
InChI=1S/C17H14BrFN6O3S/c18-11-8-22-17(23-9-4-6-10(7-5-9)29(21,27)28)25-16(11)24-13-3-1-2-12(19)14(13)15(20)26/h1-8H,(H2,20,26)(H2,21,27,28)(H2,22,23,24,25)

>  <InChI Key>
VCPYDRGRPKSEOJ-UHFFFAOYSA-N

>  <BindingDB>


>  <PubChem>
155184510

>  <ChEMBL>


$$$$
Compound 392
Actelion Java MolfileCreator 2.0

  0  0  0  0  0  0              0 V3000
M  V30 BEGIN CTAB
M  V30 COUNTS 29 31 0 0 0
M  V30 BEGIN ATOM
M  V30 1 Br 0.0 0.0 0.0 0
M  V30 2 C 1.489 0.1299 0.0 0
M  V30 3 C 2.3281 -1.099 0.0 0
M  V30 4 C 2.1272 1.5008 0.0 0
M  V30 5 N 3.8171 -0.969 0.0 0
M  V30 6 N 1.6663 -2.4462 0.0 0
M  V30 7 N 3.6162 1.6308 0.0 0
M  V30 8 C 4.4553 0.4018 0.0 0
M  V30 9 C 0.1536 -2.5526 0.0 0
M  V30 10 N 5.9443 0.5318 0.0 0
M  V30 11 C -0.5081 -3.8998 0.0 0
M  V30 12 C -0.709 -1.2999 0.0 0
M  V30 13 C 6.7834 -0.6972 0.0 0
M  V30 14 C -2.0208 -4.0062 0.0 0
M  V30 15 C 0.3308 -5.1289 0.0 0
M  V30 16 C -2.2217 -1.4063 0.0 0
M  V30 17 C 6.1216 -2.0444 0.0 0
M  V30 18 C 8.2724 -0.5672 0.0 0
M  V30 19 F -2.6826 -5.3534 0.0 0
M  V30 20 C -2.8835 -2.7535 0.0 0
M  V30 21 O 1.8199 -4.9989 0.0 0
M  V30 22 N -0.3308 -6.4761 0.0 0
M  V30 23 C 6.9606 -3.2735 0.0 0
M  V30 24 C 9.1115 -1.7963 0.0 0
M  V30 25 C 8.4497 -3.1435 0.0 0
M  V30 26 S 9.2887 -4.3725 0.0 0
M  V30 27 O 8.0361 -5.2116 0.0 0
M  V30 28 O 10.5178 -3.5098 0.0 0
M  V30 29 N 10.1278 -5.6016 0.0 0
M  V30 END ATOM
M  V30 BEGIN BOND
M  V30 1 1 1 2
M  V30 2 2 2 3
M  V30 3 1 2 4
M  V30 4 1 3 5
M  V30 5 1 3 6
M  V30 6 2 4 7
M  V30 7 2 5 8
M  V30 8 1 6 9
M  V30 9 1 8 10
M  V30 10 2 9 11
M  V30 11 1 9 12
M  V30 12 1 10 13
M  V30 13 1 11 14
M  V30 14 1 11 15
M  V30 15 2 12 16
M  V30 16 2 13 17
M  V30 17 1 13 18
M  V30 18 1 14 19
M  V30 19 2 14 20
M  V30 20 2 15 21
M  V30 21 1 15 22
M  V30 22 1 17 23
M  V30 23 2 18 24
M  V30 24 2 23 25
M  V30 25 1 25 26
M  V30 26 2 26 27
M  V30 27 2 26 28
M  V30 28 1 26 29
M  V30 29 1 7 8
M  V30 30 1 16 20
M  V30 31 1 24 25
M  V30 END BOND
M  V30 END CTAB
M  END
>  <Compound ID>
129

>  <Name>
TMX-3013

>  <Uniprot>
P49841

>  <Target>
GSK-3beta

>  <Smiles>
NC(=O)C1=C(F)C=CC=C1NC1=NC(NC2=CC=C(S(N)(=O)=O)C=C2)=NC=C1Br

>  <Kd (nM)>


>  <Assay (Kd)>


>  <Ki (nM)>


>  <Assay (Ki)>


>  <IC50 (nM)>


>  <Assay (IC50)>


>  <EC50 (nM)>


>  <Assay (EC50)>


>  <Article DOI>
10.1016/j.cell.2020.10.038

>  <Molecular Weight>
481.307

>  <Exact Mass>
480.001549628

>  <XLogP3>
2.74

>  <Heavy Atom Count>
29

>  <Ring Count>
3

>  <Hydrogen Bond Acceptor Count>
7

>  <Hydrogen Bond Donor Count>
4

>  <Rotatable Bond Count>
6

>  <Topological Polar Surface Area>
153.09

>  <Molecular Formula>
C17H14BrFN6O3S

>  <InChI>
InChI=1S/C17H14BrFN6O3S/c18-11-8-22-17(23-9-4-6-10(7-5-9)29(21,27)28)25-16(11)24-13-3-1-2-12(19)14(13)15(20)26/h1-8H,(H2,20,26)(H2,21,27,28)(H2,22,23,24,25)

>  <InChI Key>
VCPYDRGRPKSEOJ-UHFFFAOYSA-N

>  <BindingDB>


>  <PubChem>
155184510

>  <ChEMBL>


$$$$
Compound 393
Actelion Java MolfileCreator 2.0

  0  0  0  0  0  0              0 V3000
M  V30 BEGIN CTAB
M  V30 COUNTS 29 31 0 0 0
M  V30 BEGIN ATOM
M  V30 1 Br 0.0 0.0 0.0 0
M  V30 2 C 1.489 0.1299 0.0 0
M  V30 3 C 2.3281 -1.099 0.0 0
M  V30 4 C 2.1272 1.5008 0.0 0
M  V30 5 N 3.8171 -0.969 0.0 0
M  V30 6 N 1.6663 -2.4462 0.0 0
M  V30 7 N 3.6162 1.6308 0.0 0
M  V30 8 C 4.4553 0.4018 0.0 0
M  V30 9 C 0.1536 -2.5526 0.0 0
M  V30 10 N 5.9443 0.5318 0.0 0
M  V30 11 C -0.5081 -3.8998 0.0 0
M  V30 12 C -0.709 -1.2999 0.0 0
M  V30 13 C 6.7834 -0.6972 0.0 0
M  V30 14 C -2.0208 -4.0062 0.0 0
M  V30 15 C 0.3308 -5.1289 0.0 0
M  V30 16 C -2.2217 -1.4063 0.0 0
M  V30 17 C 6.1216 -2.0444 0.0 0
M  V30 18 C 8.2724 -0.5672 0.0 0
M  V30 19 F -2.6826 -5.3534 0.0 0
M  V30 20 C -2.8835 -2.7535 0.0 0
M  V30 21 O 1.8199 -4.9989 0.0 0
M  V30 22 N -0.3308 -6.4761 0.0 0
M  V30 23 C 6.9606 -3.2735 0.0 0
M  V30 24 C 9.1115 -1.7963 0.0 0
M  V30 25 C 8.4497 -3.1435 0.0 0
M  V30 26 S 9.2887 -4.3725 0.0 0
M  V30 27 O 8.0361 -5.2116 0.0 0
M  V30 28 O 10.5178 -3.5098 0.0 0
M  V30 29 N 10.1278 -5.6016 0.0 0
M  V30 END ATOM
M  V30 BEGIN BOND
M  V30 1 1 1 2
M  V30 2 2 2 3
M  V30 3 1 2 4
M  V30 4 1 3 5
M  V30 5 1 3 6
M  V30 6 2 4 7
M  V30 7 2 5 8
M  V30 8 1 6 9
M  V30 9 1 8 10
M  V30 10 2 9 11
M  V30 11 1 9 12
M  V30 12 1 10 13
M  V30 13 1 11 14
M  V30 14 1 11 15
M  V30 15 2 12 16
M  V30 16 2 13 17
M  V30 17 1 13 18
M  V30 18 1 14 19
M  V30 19 2 14 20
M  V30 20 2 15 21
M  V30 21 1 15 22
M  V30 22 1 17 23
M  V30 23 2 18 24
M  V30 24 2 23 25
M  V30 25 1 25 26
M  V30 26 2 26 27
M  V30 27 2 26 28
M  V30 28 1 26 29
M  V30 29 1 7 8
M  V30 30 1 16 20
M  V30 31 1 24 25
M  V30 END BOND
M  V30 END CTAB
M  END
>  <Compound ID>
129

>  <Name>
TMX-3013

>  <Uniprot>
Q9Y616

>  <Target>
IRAK3

>  <Smiles>
NC(=O)C1=C(F)C=CC=C1NC1=NC(NC2=CC=C(S(N)(=O)=O)C=C2)=NC=C1Br

>  <Kd (nM)>


>  <Assay (Kd)>


>  <Ki (nM)>


>  <Assay (Ki)>


>  <IC50 (nM)>


>  <Assay (IC50)>


>  <EC50 (nM)>


>  <Assay (EC50)>


>  <Article DOI>
10.1016/j.cell.2020.10.038

>  <Molecular Weight>
481.307

>  <Exact Mass>
480.001549628

>  <XLogP3>
2.74

>  <Heavy Atom Count>
29

>  <Ring Count>
3

>  <Hydrogen Bond Acceptor Count>
7

>  <Hydrogen Bond Donor Count>
4

>  <Rotatable Bond Count>
6

>  <Topological Polar Surface Area>
153.09

>  <Molecular Formula>
C17H14BrFN6O3S

>  <InChI>
InChI=1S/C17H14BrFN6O3S/c18-11-8-22-17(23-9-4-6-10(7-5-9)29(21,27)28)25-16(11)24-13-3-1-2-12(19)14(13)15(20)26/h1-8H,(H2,20,26)(H2,21,27,28)(H2,22,23,24,25)

>  <InChI Key>
VCPYDRGRPKSEOJ-UHFFFAOYSA-N

>  <BindingDB>


>  <PubChem>
155184510

>  <ChEMBL>


$$$$
Compound 394
Actelion Java MolfileCreator 2.0

  0  0  0  0  0  0              0 V3000
M  V30 BEGIN CTAB
M  V30 COUNTS 29 31 0 0 0
M  V30 BEGIN ATOM
M  V30 1 Br 0.0 0.0 0.0 0
M  V30 2 C 1.489 0.1299 0.0 0
M  V30 3 C 2.3281 -1.099 0.0 0
M  V30 4 C 2.1272 1.5008 0.0 0
M  V30 5 N 3.8171 -0.969 0.0 0
M  V30 6 N 1.6663 -2.4462 0.0 0
M  V30 7 N 3.6162 1.6308 0.0 0
M  V30 8 C 4.4553 0.4018 0.0 0
M  V30 9 C 0.1536 -2.5526 0.0 0
M  V30 10 N 5.9443 0.5318 0.0 0
M  V30 11 C -0.5081 -3.8998 0.0 0
M  V30 12 C -0.709 -1.2999 0.0 0
M  V30 13 C 6.7834 -0.6972 0.0 0
M  V30 14 C -2.0208 -4.0062 0.0 0
M  V30 15 C 0.3308 -5.1289 0.0 0
M  V30 16 C -2.2217 -1.4063 0.0 0
M  V30 17 C 6.1216 -2.0444 0.0 0
M  V30 18 C 8.2724 -0.5672 0.0 0
M  V30 19 F -2.6826 -5.3534 0.0 0
M  V30 20 C -2.8835 -2.7535 0.0 0
M  V30 21 O 1.8199 -4.9989 0.0 0
M  V30 22 N -0.3308 -6.4761 0.0 0
M  V30 23 C 6.9606 -3.2735 0.0 0
M  V30 24 C 9.1115 -1.7963 0.0 0
M  V30 25 C 8.4497 -3.1435 0.0 0
M  V30 26 S 9.2887 -4.3725 0.0 0
M  V30 27 O 8.0361 -5.2116 0.0 0
M  V30 28 O 10.5178 -3.5098 0.0 0
M  V30 29 N 10.1278 -5.6016 0.0 0
M  V30 END ATOM
M  V30 BEGIN BOND
M  V30 1 1 1 2
M  V30 2 2 2 3
M  V30 3 1 2 4
M  V30 4 1 3 5
M  V30 5 1 3 6
M  V30 6 2 4 7
M  V30 7 2 5 8
M  V30 8 1 6 9
M  V30 9 1 8 10
M  V30 10 2 9 11
M  V30 11 1 9 12
M  V30 12 1 10 13
M  V30 13 1 11 14
M  V30 14 1 11 15
M  V30 15 2 12 16
M  V30 16 2 13 17
M  V30 17 1 13 18
M  V30 18 1 14 19
M  V30 19 2 14 20
M  V30 20 2 15 21
M  V30 21 1 15 22
M  V30 22 1 17 23
M  V30 23 2 18 24
M  V30 24 2 23 25
M  V30 25 1 25 26
M  V30 26 2 26 27
M  V30 27 2 26 28
M  V30 28 1 26 29
M  V30 29 1 7 8
M  V30 30 1 16 20
M  V30 31 1 24 25
M  V30 END BOND
M  V30 END CTAB
M  END
>  <Compound ID>
129

>  <Name>
TMX-3013

>  <Uniprot>
Q16584

>  <Target>
MAP3K11

>  <Smiles>
NC(=O)C1=C(F)C=CC=C1NC1=NC(NC2=CC=C(S(N)(=O)=O)C=C2)=NC=C1Br

>  <Kd (nM)>


>  <Assay (Kd)>


>  <Ki (nM)>


>  <Assay (Ki)>


>  <IC50 (nM)>


>  <Assay (IC50)>


>  <EC50 (nM)>


>  <Assay (EC50)>


>  <Article DOI>
10.1016/j.cell.2020.10.038

>  <Molecular Weight>
481.307

>  <Exact Mass>
480.001549628

>  <XLogP3>
2.74

>  <Heavy Atom Count>
29

>  <Ring Count>
3

>  <Hydrogen Bond Acceptor Count>
7

>  <Hydrogen Bond Donor Count>
4

>  <Rotatable Bond Count>
6

>  <Topological Polar Surface Area>
153.09

>  <Molecular Formula>
C17H14BrFN6O3S

>  <InChI>
InChI=1S/C17H14BrFN6O3S/c18-11-8-22-17(23-9-4-6-10(7-5-9)29(21,27)28)25-16(11)24-13-3-1-2-12(19)14(13)15(20)26/h1-8H,(H2,20,26)(H2,21,27,28)(H2,22,23,24,25)

>  <InChI Key>
VCPYDRGRPKSEOJ-UHFFFAOYSA-N

>  <BindingDB>


>  <PubChem>
155184510

>  <ChEMBL>


$$$$
Compound 395
Actelion Java MolfileCreator 2.0

  0  0  0  0  0  0              0 V3000
M  V30 BEGIN CTAB
M  V30 COUNTS 29 31 0 0 0
M  V30 BEGIN ATOM
M  V30 1 Br 0.0 0.0 0.0 0
M  V30 2 C 1.489 0.1299 0.0 0
M  V30 3 C 2.3281 -1.099 0.0 0
M  V30 4 C 2.1272 1.5008 0.0 0
M  V30 5 N 3.8171 -0.969 0.0 0
M  V30 6 N 1.6663 -2.4462 0.0 0
M  V30 7 N 3.6162 1.6308 0.0 0
M  V30 8 C 4.4553 0.4018 0.0 0
M  V30 9 C 0.1536 -2.5526 0.0 0
M  V30 10 N 5.9443 0.5318 0.0 0
M  V30 11 C -0.5081 -3.8998 0.0 0
M  V30 12 C -0.709 -1.2999 0.0 0
M  V30 13 C 6.7834 -0.6972 0.0 0
M  V30 14 C -2.0208 -4.0062 0.0 0
M  V30 15 C 0.3308 -5.1289 0.0 0
M  V30 16 C -2.2217 -1.4063 0.0 0
M  V30 17 C 6.1216 -2.0444 0.0 0
M  V30 18 C 8.2724 -0.5672 0.0 0
M  V30 19 F -2.6826 -5.3534 0.0 0
M  V30 20 C -2.8835 -2.7535 0.0 0
M  V30 21 O 1.8199 -4.9989 0.0 0
M  V30 22 N -0.3308 -6.4761 0.0 0
M  V30 23 C 6.9606 -3.2735 0.0 0
M  V30 24 C 9.1115 -1.7963 0.0 0
M  V30 25 C 8.4497 -3.1435 0.0 0
M  V30 26 S 9.2887 -4.3725 0.0 0
M  V30 27 O 8.0361 -5.2116 0.0 0
M  V30 28 O 10.5178 -3.5098 0.0 0
M  V30 29 N 10.1278 -5.6016 0.0 0
M  V30 END ATOM
M  V30 BEGIN BOND
M  V30 1 1 1 2
M  V30 2 2 2 3
M  V30 3 1 2 4
M  V30 4 1 3 5
M  V30 5 1 3 6
M  V30 6 2 4 7
M  V30 7 2 5 8
M  V30 8 1 6 9
M  V30 9 1 8 10
M  V30 10 2 9 11
M  V30 11 1 9 12
M  V30 12 1 10 13
M  V30 13 1 11 14
M  V30 14 1 11 15
M  V30 15 2 12 16
M  V30 16 2 13 17
M  V30 17 1 13 18
M  V30 18 1 14 19
M  V30 19 2 14 20
M  V30 20 2 15 21
M  V30 21 1 15 22
M  V30 22 1 17 23
M  V30 23 2 18 24
M  V30 24 2 23 25
M  V30 25 1 25 26
M  V30 26 2 26 27
M  V30 27 2 26 28
M  V30 28 1 26 29
M  V30 29 1 7 8
M  V30 30 1 16 20
M  V30 31 1 24 25
M  V30 END BOND
M  V30 END CTAB
M  END
>  <Compound ID>
129

>  <Name>
TMX-3013

>  <Uniprot>
P45983

>  <Target>
MAPK8

>  <Smiles>
NC(=O)C1=C(F)C=CC=C1NC1=NC(NC2=CC=C(S(N)(=O)=O)C=C2)=NC=C1Br

>  <Kd (nM)>


>  <Assay (Kd)>


>  <Ki (nM)>


>  <Assay (Ki)>


>  <IC50 (nM)>


>  <Assay (IC50)>


>  <EC50 (nM)>


>  <Assay (EC50)>


>  <Article DOI>
10.1016/j.cell.2020.10.038

>  <Molecular Weight>
481.307

>  <Exact Mass>
480.001549628

>  <XLogP3>
2.74

>  <Heavy Atom Count>
29

>  <Ring Count>
3

>  <Hydrogen Bond Acceptor Count>
7

>  <Hydrogen Bond Donor Count>
4

>  <Rotatable Bond Count>
6

>  <Topological Polar Surface Area>
153.09

>  <Molecular Formula>
C17H14BrFN6O3S

>  <InChI>
InChI=1S/C17H14BrFN6O3S/c18-11-8-22-17(23-9-4-6-10(7-5-9)29(21,27)28)25-16(11)24-13-3-1-2-12(19)14(13)15(20)26/h1-8H,(H2,20,26)(H2,21,27,28)(H2,22,23,24,25)

>  <InChI Key>
VCPYDRGRPKSEOJ-UHFFFAOYSA-N

>  <BindingDB>


>  <PubChem>
155184510

>  <ChEMBL>


$$$$
Compound 396
Actelion Java MolfileCreator 2.0

  0  0  0  0  0  0              0 V3000
M  V30 BEGIN CTAB
M  V30 COUNTS 29 31 0 0 0
M  V30 BEGIN ATOM
M  V30 1 Br 0.0 0.0 0.0 0
M  V30 2 C 1.489 0.1299 0.0 0
M  V30 3 C 2.3281 -1.099 0.0 0
M  V30 4 C 2.1272 1.5008 0.0 0
M  V30 5 N 3.8171 -0.969 0.0 0
M  V30 6 N 1.6663 -2.4462 0.0 0
M  V30 7 N 3.6162 1.6308 0.0 0
M  V30 8 C 4.4553 0.4018 0.0 0
M  V30 9 C 0.1536 -2.5526 0.0 0
M  V30 10 N 5.9443 0.5318 0.0 0
M  V30 11 C -0.5081 -3.8998 0.0 0
M  V30 12 C -0.709 -1.2999 0.0 0
M  V30 13 C 6.7834 -0.6972 0.0 0
M  V30 14 C -2.0208 -4.0062 0.0 0
M  V30 15 C 0.3308 -5.1289 0.0 0
M  V30 16 C -2.2217 -1.4063 0.0 0
M  V30 17 C 6.1216 -2.0444 0.0 0
M  V30 18 C 8.2724 -0.5672 0.0 0
M  V30 19 F -2.6826 -5.3534 0.0 0
M  V30 20 C -2.8835 -2.7535 0.0 0
M  V30 21 O 1.8199 -4.9989 0.0 0
M  V30 22 N -0.3308 -6.4761 0.0 0
M  V30 23 C 6.9606 -3.2735 0.0 0
M  V30 24 C 9.1115 -1.7963 0.0 0
M  V30 25 C 8.4497 -3.1435 0.0 0
M  V30 26 S 9.2887 -4.3725 0.0 0
M  V30 27 O 8.0361 -5.2116 0.0 0
M  V30 28 O 10.5178 -3.5098 0.0 0
M  V30 29 N 10.1278 -5.6016 0.0 0
M  V30 END ATOM
M  V30 BEGIN BOND
M  V30 1 1 1 2
M  V30 2 2 2 3
M  V30 3 1 2 4
M  V30 4 1 3 5
M  V30 5 1 3 6
M  V30 6 2 4 7
M  V30 7 2 5 8
M  V30 8 1 6 9
M  V30 9 1 8 10
M  V30 10 2 9 11
M  V30 11 1 9 12
M  V30 12 1 10 13
M  V30 13 1 11 14
M  V30 14 1 11 15
M  V30 15 2 12 16
M  V30 16 2 13 17
M  V30 17 1 13 18
M  V30 18 1 14 19
M  V30 19 2 14 20
M  V30 20 2 15 21
M  V30 21 1 15 22
M  V30 22 1 17 23
M  V30 23 2 18 24
M  V30 24 2 23 25
M  V30 25 1 25 26
M  V30 26 2 26 27
M  V30 27 2 26 28
M  V30 28 1 26 29
M  V30 29 1 7 8
M  V30 30 1 16 20
M  V30 31 1 24 25
M  V30 END BOND
M  V30 END CTAB
M  END
>  <Compound ID>
129

>  <Name>
TMX-3013

>  <Uniprot>
P45984

>  <Target>
MAPK9

>  <Smiles>
NC(=O)C1=C(F)C=CC=C1NC1=NC(NC2=CC=C(S(N)(=O)=O)C=C2)=NC=C1Br

>  <Kd (nM)>


>  <Assay (Kd)>


>  <Ki (nM)>


>  <Assay (Ki)>


>  <IC50 (nM)>


>  <Assay (IC50)>


>  <EC50 (nM)>


>  <Assay (EC50)>


>  <Article DOI>
10.1016/j.cell.2020.10.038

>  <Molecular Weight>
481.307

>  <Exact Mass>
480.001549628

>  <XLogP3>
2.74

>  <Heavy Atom Count>
29

>  <Ring Count>
3

>  <Hydrogen Bond Acceptor Count>
7

>  <Hydrogen Bond Donor Count>
4

>  <Rotatable Bond Count>
6

>  <Topological Polar Surface Area>
153.09

>  <Molecular Formula>
C17H14BrFN6O3S

>  <InChI>
InChI=1S/C17H14BrFN6O3S/c18-11-8-22-17(23-9-4-6-10(7-5-9)29(21,27)28)25-16(11)24-13-3-1-2-12(19)14(13)15(20)26/h1-8H,(H2,20,26)(H2,21,27,28)(H2,22,23,24,25)

>  <InChI Key>
VCPYDRGRPKSEOJ-UHFFFAOYSA-N

>  <BindingDB>


>  <PubChem>
155184510

>  <ChEMBL>


$$$$
Compound 397
Actelion Java MolfileCreator 2.0

  0  0  0  0  0  0              0 V3000
M  V30 BEGIN CTAB
M  V30 COUNTS 29 31 0 0 0
M  V30 BEGIN ATOM
M  V30 1 Br 0.0 0.0 0.0 0
M  V30 2 C 1.489 0.1299 0.0 0
M  V30 3 C 2.3281 -1.099 0.0 0
M  V30 4 C 2.1272 1.5008 0.0 0
M  V30 5 N 3.8171 -0.969 0.0 0
M  V30 6 N 1.6663 -2.4462 0.0 0
M  V30 7 N 3.6162 1.6308 0.0 0
M  V30 8 C 4.4553 0.4018 0.0 0
M  V30 9 C 0.1536 -2.5526 0.0 0
M  V30 10 N 5.9443 0.5318 0.0 0
M  V30 11 C -0.5081 -3.8998 0.0 0
M  V30 12 C -0.709 -1.2999 0.0 0
M  V30 13 C 6.7834 -0.6972 0.0 0
M  V30 14 C -2.0208 -4.0062 0.0 0
M  V30 15 C 0.3308 -5.1289 0.0 0
M  V30 16 C -2.2217 -1.4063 0.0 0
M  V30 17 C 6.1216 -2.0444 0.0 0
M  V30 18 C 8.2724 -0.5672 0.0 0
M  V30 19 F -2.6826 -5.3534 0.0 0
M  V30 20 C -2.8835 -2.7535 0.0 0
M  V30 21 O 1.8199 -4.9989 0.0 0
M  V30 22 N -0.3308 -6.4761 0.0 0
M  V30 23 C 6.9606 -3.2735 0.0 0
M  V30 24 C 9.1115 -1.7963 0.0 0
M  V30 25 C 8.4497 -3.1435 0.0 0
M  V30 26 S 9.2887 -4.3725 0.0 0
M  V30 27 O 8.0361 -5.2116 0.0 0
M  V30 28 O 10.5178 -3.5098 0.0 0
M  V30 29 N 10.1278 -5.6016 0.0 0
M  V30 END ATOM
M  V30 BEGIN BOND
M  V30 1 1 1 2
M  V30 2 2 2 3
M  V30 3 1 2 4
M  V30 4 1 3 5
M  V30 5 1 3 6
M  V30 6 2 4 7
M  V30 7 2 5 8
M  V30 8 1 6 9
M  V30 9 1 8 10
M  V30 10 2 9 11
M  V30 11 1 9 12
M  V30 12 1 10 13
M  V30 13 1 11 14
M  V30 14 1 11 15
M  V30 15 2 12 16
M  V30 16 2 13 17
M  V30 17 1 13 18
M  V30 18 1 14 19
M  V30 19 2 14 20
M  V30 20 2 15 21
M  V30 21 1 15 22
M  V30 22 1 17 23
M  V30 23 2 18 24
M  V30 24 2 23 25
M  V30 25 1 25 26
M  V30 26 2 26 27
M  V30 27 2 26 28
M  V30 28 1 26 29
M  V30 29 1 7 8
M  V30 30 1 16 20
M  V30 31 1 24 25
M  V30 END BOND
M  V30 END CTAB
M  END
>  <Compound ID>
129

>  <Name>
TMX-3013

>  <Uniprot>
O60285

>  <Target>
NUAK1

>  <Smiles>
NC(=O)C1=C(F)C=CC=C1NC1=NC(NC2=CC=C(S(N)(=O)=O)C=C2)=NC=C1Br

>  <Kd (nM)>


>  <Assay (Kd)>


>  <Ki (nM)>


>  <Assay (Ki)>


>  <IC50 (nM)>


>  <Assay (IC50)>


>  <EC50 (nM)>


>  <Assay (EC50)>


>  <Article DOI>
10.1016/j.cell.2020.10.038

>  <Molecular Weight>
481.307

>  <Exact Mass>
480.001549628

>  <XLogP3>
2.74

>  <Heavy Atom Count>
29

>  <Ring Count>
3

>  <Hydrogen Bond Acceptor Count>
7

>  <Hydrogen Bond Donor Count>
4

>  <Rotatable Bond Count>
6

>  <Topological Polar Surface Area>
153.09

>  <Molecular Formula>
C17H14BrFN6O3S

>  <InChI>
InChI=1S/C17H14BrFN6O3S/c18-11-8-22-17(23-9-4-6-10(7-5-9)29(21,27)28)25-16(11)24-13-3-1-2-12(19)14(13)15(20)26/h1-8H,(H2,20,26)(H2,21,27,28)(H2,22,23,24,25)

>  <InChI Key>
VCPYDRGRPKSEOJ-UHFFFAOYSA-N

>  <BindingDB>


>  <PubChem>
155184510

>  <ChEMBL>


$$$$
Compound 398
Actelion Java MolfileCreator 2.0

  0  0  0  0  0  0              0 V3000
M  V30 BEGIN CTAB
M  V30 COUNTS 29 31 0 0 0
M  V30 BEGIN ATOM
M  V30 1 Br 0.0 0.0 0.0 0
M  V30 2 C 1.489 0.1299 0.0 0
M  V30 3 C 2.3281 -1.099 0.0 0
M  V30 4 C 2.1272 1.5008 0.0 0
M  V30 5 N 3.8171 -0.969 0.0 0
M  V30 6 N 1.6663 -2.4462 0.0 0
M  V30 7 N 3.6162 1.6308 0.0 0
M  V30 8 C 4.4553 0.4018 0.0 0
M  V30 9 C 0.1536 -2.5526 0.0 0
M  V30 10 N 5.9443 0.5318 0.0 0
M  V30 11 C -0.5081 -3.8998 0.0 0
M  V30 12 C -0.709 -1.2999 0.0 0
M  V30 13 C 6.7834 -0.6972 0.0 0
M  V30 14 C -2.0208 -4.0062 0.0 0
M  V30 15 C 0.3308 -5.1289 0.0 0
M  V30 16 C -2.2217 -1.4063 0.0 0
M  V30 17 C 6.1216 -2.0444 0.0 0
M  V30 18 C 8.2724 -0.5672 0.0 0
M  V30 19 F -2.6826 -5.3534 0.0 0
M  V30 20 C -2.8835 -2.7535 0.0 0
M  V30 21 O 1.8199 -4.9989 0.0 0
M  V30 22 N -0.3308 -6.4761 0.0 0
M  V30 23 C 6.9606 -3.2735 0.0 0
M  V30 24 C 9.1115 -1.7963 0.0 0
M  V30 25 C 8.4497 -3.1435 0.0 0
M  V30 26 S 9.2887 -4.3725 0.0 0
M  V30 27 O 8.0361 -5.2116 0.0 0
M  V30 28 O 10.5178 -3.5098 0.0 0
M  V30 29 N 10.1278 -5.6016 0.0 0
M  V30 END ATOM
M  V30 BEGIN BOND
M  V30 1 1 1 2
M  V30 2 2 2 3
M  V30 3 1 2 4
M  V30 4 1 3 5
M  V30 5 1 3 6
M  V30 6 2 4 7
M  V30 7 2 5 8
M  V30 8 1 6 9
M  V30 9 1 8 10
M  V30 10 2 9 11
M  V30 11 1 9 12
M  V30 12 1 10 13
M  V30 13 1 11 14
M  V30 14 1 11 15
M  V30 15 2 12 16
M  V30 16 2 13 17
M  V30 17 1 13 18
M  V30 18 1 14 19
M  V30 19 2 14 20
M  V30 20 2 15 21
M  V30 21 1 15 22
M  V30 22 1 17 23
M  V30 23 2 18 24
M  V30 24 2 23 25
M  V30 25 1 25 26
M  V30 26 2 26 27
M  V30 27 2 26 28
M  V30 28 1 26 29
M  V30 29 1 7 8
M  V30 30 1 16 20
M  V30 31 1 24 25
M  V30 END BOND
M  V30 END CTAB
M  END
>  <Compound ID>
129

>  <Name>
TMX-3013

>  <Uniprot>
Q13131

>  <Target>
PRKAA1

>  <Smiles>
NC(=O)C1=C(F)C=CC=C1NC1=NC(NC2=CC=C(S(N)(=O)=O)C=C2)=NC=C1Br

>  <Kd (nM)>


>  <Assay (Kd)>


>  <Ki (nM)>


>  <Assay (Ki)>


>  <IC50 (nM)>


>  <Assay (IC50)>


>  <EC50 (nM)>


>  <Assay (EC50)>


>  <Article DOI>
10.1016/j.cell.2020.10.038

>  <Molecular Weight>
481.307

>  <Exact Mass>
480.001549628

>  <XLogP3>
2.74

>  <Heavy Atom Count>
29

>  <Ring Count>
3

>  <Hydrogen Bond Acceptor Count>
7

>  <Hydrogen Bond Donor Count>
4

>  <Rotatable Bond Count>
6

>  <Topological Polar Surface Area>
153.09

>  <Molecular Formula>
C17H14BrFN6O3S

>  <InChI>
InChI=1S/C17H14BrFN6O3S/c18-11-8-22-17(23-9-4-6-10(7-5-9)29(21,27)28)25-16(11)24-13-3-1-2-12(19)14(13)15(20)26/h1-8H,(H2,20,26)(H2,21,27,28)(H2,22,23,24,25)

>  <InChI Key>
VCPYDRGRPKSEOJ-UHFFFAOYSA-N

>  <BindingDB>


>  <PubChem>
155184510

>  <ChEMBL>


$$$$
Compound 399
Actelion Java MolfileCreator 2.0

  0  0  0  0  0  0              0 V3000
M  V30 BEGIN CTAB
M  V30 COUNTS 29 31 0 0 0
M  V30 BEGIN ATOM
M  V30 1 Br 0.0 0.0 0.0 0
M  V30 2 C 1.489 0.1299 0.0 0
M  V30 3 C 2.3281 -1.099 0.0 0
M  V30 4 C 2.1272 1.5008 0.0 0
M  V30 5 N 3.8171 -0.969 0.0 0
M  V30 6 N 1.6663 -2.4462 0.0 0
M  V30 7 N 3.6162 1.6308 0.0 0
M  V30 8 C 4.4553 0.4018 0.0 0
M  V30 9 C 0.1536 -2.5526 0.0 0
M  V30 10 N 5.9443 0.5318 0.0 0
M  V30 11 C -0.5081 -3.8998 0.0 0
M  V30 12 C -0.709 -1.2999 0.0 0
M  V30 13 C 6.7834 -0.6972 0.0 0
M  V30 14 C -2.0208 -4.0062 0.0 0
M  V30 15 C 0.3308 -5.1289 0.0 0
M  V30 16 C -2.2217 -1.4063 0.0 0
M  V30 17 C 6.1216 -2.0444 0.0 0
M  V30 18 C 8.2724 -0.5672 0.0 0
M  V30 19 F -2.6826 -5.3534 0.0 0
M  V30 20 C -2.8835 -2.7535 0.0 0
M  V30 21 O 1.8199 -4.9989 0.0 0
M  V30 22 N -0.3308 -6.4761 0.0 0
M  V30 23 C 6.9606 -3.2735 0.0 0
M  V30 24 C 9.1115 -1.7963 0.0 0
M  V30 25 C 8.4497 -3.1435 0.0 0
M  V30 26 S 9.2887 -4.3725 0.0 0
M  V30 27 O 8.0361 -5.2116 0.0 0
M  V30 28 O 10.5178 -3.5098 0.0 0
M  V30 29 N 10.1278 -5.6016 0.0 0
M  V30 END ATOM
M  V30 BEGIN BOND
M  V30 1 1 1 2
M  V30 2 2 2 3
M  V30 3 1 2 4
M  V30 4 1 3 5
M  V30 5 1 3 6
M  V30 6 2 4 7
M  V30 7 2 5 8
M  V30 8 1 6 9
M  V30 9 1 8 10
M  V30 10 2 9 11
M  V30 11 1 9 12
M  V30 12 1 10 13
M  V30 13 1 11 14
M  V30 14 1 11 15
M  V30 15 2 12 16
M  V30 16 2 13 17
M  V30 17 1 13 18
M  V30 18 1 14 19
M  V30 19 2 14 20
M  V30 20 2 15 21
M  V30 21 1 15 22
M  V30 22 1 17 23
M  V30 23 2 18 24
M  V30 24 2 23 25
M  V30 25 1 25 26
M  V30 26 2 26 27
M  V30 27 2 26 28
M  V30 28 1 26 29
M  V30 29 1 7 8
M  V30 30 1 16 20
M  V30 31 1 24 25
M  V30 END BOND
M  V30 END CTAB
M  END
>  <Compound ID>
129

>  <Name>
TMX-3013

>  <Uniprot>
P54646

>  <Target>
PRKAA2

>  <Smiles>
NC(=O)C1=C(F)C=CC=C1NC1=NC(NC2=CC=C(S(N)(=O)=O)C=C2)=NC=C1Br

>  <Kd (nM)>


>  <Assay (Kd)>


>  <Ki (nM)>


>  <Assay (Ki)>


>  <IC50 (nM)>


>  <Assay (IC50)>


>  <EC50 (nM)>


>  <Assay (EC50)>


>  <Article DOI>
10.1016/j.cell.2020.10.038

>  <Molecular Weight>
481.307

>  <Exact Mass>
480.001549628

>  <XLogP3>
2.74

>  <Heavy Atom Count>
29

>  <Ring Count>
3

>  <Hydrogen Bond Acceptor Count>
7

>  <Hydrogen Bond Donor Count>
4

>  <Rotatable Bond Count>
6

>  <Topological Polar Surface Area>
153.09

>  <Molecular Formula>
C17H14BrFN6O3S

>  <InChI>
InChI=1S/C17H14BrFN6O3S/c18-11-8-22-17(23-9-4-6-10(7-5-9)29(21,27)28)25-16(11)24-13-3-1-2-12(19)14(13)15(20)26/h1-8H,(H2,20,26)(H2,21,27,28)(H2,22,23,24,25)

>  <InChI Key>
VCPYDRGRPKSEOJ-UHFFFAOYSA-N

>  <BindingDB>


>  <PubChem>
155184510

>  <ChEMBL>


$$$$
Compound 400
Actelion Java MolfileCreator 2.0

  0  0  0  0  0  0              0 V3000
M  V30 BEGIN CTAB
M  V30 COUNTS 29 31 0 0 0
M  V30 BEGIN ATOM
M  V30 1 Br 0.0 0.0 0.0 0
M  V30 2 C 1.489 0.1299 0.0 0
M  V30 3 C 2.3281 -1.099 0.0 0
M  V30 4 C 2.1272 1.5008 0.0 0
M  V30 5 N 3.8171 -0.969 0.0 0
M  V30 6 N 1.6663 -2.4462 0.0 0
M  V30 7 N 3.6162 1.6308 0.0 0
M  V30 8 C 4.4553 0.4018 0.0 0
M  V30 9 C 0.1536 -2.5526 0.0 0
M  V30 10 N 5.9443 0.5318 0.0 0
M  V30 11 C -0.5081 -3.8998 0.0 0
M  V30 12 C -0.709 -1.2999 0.0 0
M  V30 13 C 6.7834 -0.6972 0.0 0
M  V30 14 C -2.0208 -4.0062 0.0 0
M  V30 15 C 0.3308 -5.1289 0.0 0
M  V30 16 C -2.2217 -1.4063 0.0 0
M  V30 17 C 6.1216 -2.0444 0.0 0
M  V30 18 C 8.2724 -0.5672 0.0 0
M  V30 19 F -2.6826 -5.3534 0.0 0
M  V30 20 C -2.8835 -2.7535 0.0 0
M  V30 21 O 1.8199 -4.9989 0.0 0
M  V30 22 N -0.3308 -6.4761 0.0 0
M  V30 23 C 6.9606 -3.2735 0.0 0
M  V30 24 C 9.1115 -1.7963 0.0 0
M  V30 25 C 8.4497 -3.1435 0.0 0
M  V30 26 S 9.2887 -4.3725 0.0 0
M  V30 27 O 8.0361 -5.2116 0.0 0
M  V30 28 O 10.5178 -3.5098 0.0 0
M  V30 29 N 10.1278 -5.6016 0.0 0
M  V30 END ATOM
M  V30 BEGIN BOND
M  V30 1 1 1 2
M  V30 2 2 2 3
M  V30 3 1 2 4
M  V30 4 1 3 5
M  V30 5 1 3 6
M  V30 6 2 4 7
M  V30 7 2 5 8
M  V30 8 1 6 9
M  V30 9 1 8 10
M  V30 10 2 9 11
M  V30 11 1 9 12
M  V30 12 1 10 13
M  V30 13 1 11 14
M  V30 14 1 11 15
M  V30 15 2 12 16
M  V30 16 2 13 17
M  V30 17 1 13 18
M  V30 18 1 14 19
M  V30 19 2 14 20
M  V30 20 2 15 21
M  V30 21 1 15 22
M  V30 22 1 17 23
M  V30 23 2 18 24
M  V30 24 2 23 25
M  V30 25 1 25 26
M  V30 26 2 26 27
M  V30 27 2 26 28
M  V30 28 1 26 29
M  V30 29 1 7 8
M  V30 30 1 16 20
M  V30 31 1 24 25
M  V30 END BOND
M  V30 END CTAB
M  END
>  <Compound ID>
129

>  <Name>
TMX-3013

>  <Uniprot>
Q14289

>  <Target>
PTK2B

>  <Smiles>
NC(=O)C1=C(F)C=CC=C1NC1=NC(NC2=CC=C(S(N)(=O)=O)C=C2)=NC=C1Br

>  <Kd (nM)>


>  <Assay (Kd)>


>  <Ki (nM)>


>  <Assay (Ki)>


>  <IC50 (nM)>


>  <Assay (IC50)>


>  <EC50 (nM)>


>  <Assay (EC50)>


>  <Article DOI>
10.1016/j.cell.2020.10.038

>  <Molecular Weight>
481.307

>  <Exact Mass>
480.001549628

>  <XLogP3>
2.74

>  <Heavy Atom Count>
29

>  <Ring Count>
3

>  <Hydrogen Bond Acceptor Count>
7

>  <Hydrogen Bond Donor Count>
4

>  <Rotatable Bond Count>
6

>  <Topological Polar Surface Area>
153.09

>  <Molecular Formula>
C17H14BrFN6O3S

>  <InChI>
InChI=1S/C17H14BrFN6O3S/c18-11-8-22-17(23-9-4-6-10(7-5-9)29(21,27)28)25-16(11)24-13-3-1-2-12(19)14(13)15(20)26/h1-8H,(H2,20,26)(H2,21,27,28)(H2,22,23,24,25)

>  <InChI Key>
VCPYDRGRPKSEOJ-UHFFFAOYSA-N

>  <BindingDB>


>  <PubChem>
155184510

>  <ChEMBL>


$$$$
Compound 401
Actelion Java MolfileCreator 2.0

  0  0  0  0  0  0              0 V3000
M  V30 BEGIN CTAB
M  V30 COUNTS 29 31 0 0 0
M  V30 BEGIN ATOM
M  V30 1 Br 0.0 0.0 0.0 0
M  V30 2 C 1.489 0.1299 0.0 0
M  V30 3 C 2.3281 -1.099 0.0 0
M  V30 4 C 2.1272 1.5008 0.0 0
M  V30 5 N 3.8171 -0.969 0.0 0
M  V30 6 N 1.6663 -2.4462 0.0 0
M  V30 7 N 3.6162 1.6308 0.0 0
M  V30 8 C 4.4553 0.4018 0.0 0
M  V30 9 C 0.1536 -2.5526 0.0 0
M  V30 10 N 5.9443 0.5318 0.0 0
M  V30 11 C -0.5081 -3.8998 0.0 0
M  V30 12 C -0.709 -1.2999 0.0 0
M  V30 13 C 6.7834 -0.6972 0.0 0
M  V30 14 C -2.0208 -4.0062 0.0 0
M  V30 15 C 0.3308 -5.1289 0.0 0
M  V30 16 C -2.2217 -1.4063 0.0 0
M  V30 17 C 6.1216 -2.0444 0.0 0
M  V30 18 C 8.2724 -0.5672 0.0 0
M  V30 19 F -2.6826 -5.3534 0.0 0
M  V30 20 C -2.8835 -2.7535 0.0 0
M  V30 21 O 1.8199 -4.9989 0.0 0
M  V30 22 N -0.3308 -6.4761 0.0 0
M  V30 23 C 6.9606 -3.2735 0.0 0
M  V30 24 C 9.1115 -1.7963 0.0 0
M  V30 25 C 8.4497 -3.1435 0.0 0
M  V30 26 S 9.2887 -4.3725 0.0 0
M  V30 27 O 8.0361 -5.2116 0.0 0
M  V30 28 O 10.5178 -3.5098 0.0 0
M  V30 29 N 10.1278 -5.6016 0.0 0
M  V30 END ATOM
M  V30 BEGIN BOND
M  V30 1 1 1 2
M  V30 2 2 2 3
M  V30 3 1 2 4
M  V30 4 1 3 5
M  V30 5 1 3 6
M  V30 6 2 4 7
M  V30 7 2 5 8
M  V30 8 1 6 9
M  V30 9 1 8 10
M  V30 10 2 9 11
M  V30 11 1 9 12
M  V30 12 1 10 13
M  V30 13 1 11 14
M  V30 14 1 11 15
M  V30 15 2 12 16
M  V30 16 2 13 17
M  V30 17 1 13 18
M  V30 18 1 14 19
M  V30 19 2 14 20
M  V30 20 2 15 21
M  V30 21 1 15 22
M  V30 22 1 17 23
M  V30 23 2 18 24
M  V30 24 2 23 25
M  V30 25 1 25 26
M  V30 26 2 26 27
M  V30 27 2 26 28
M  V30 28 1 26 29
M  V30 29 1 7 8
M  V30 30 1 16 20
M  V30 31 1 24 25
M  V30 END BOND
M  V30 END CTAB
M  END
>  <Compound ID>
129

>  <Name>
TMX-3013

>  <Uniprot>
Q15418

>  <Target>
RPS6KA1

>  <Smiles>
NC(=O)C1=C(F)C=CC=C1NC1=NC(NC2=CC=C(S(N)(=O)=O)C=C2)=NC=C1Br

>  <Kd (nM)>


>  <Assay (Kd)>


>  <Ki (nM)>


>  <Assay (Ki)>


>  <IC50 (nM)>


>  <Assay (IC50)>


>  <EC50 (nM)>


>  <Assay (EC50)>


>  <Article DOI>
10.1016/j.cell.2020.10.038

>  <Molecular Weight>
481.307

>  <Exact Mass>
480.001549628

>  <XLogP3>
2.74

>  <Heavy Atom Count>
29

>  <Ring Count>
3

>  <Hydrogen Bond Acceptor Count>
7

>  <Hydrogen Bond Donor Count>
4

>  <Rotatable Bond Count>
6

>  <Topological Polar Surface Area>
153.09

>  <Molecular Formula>
C17H14BrFN6O3S

>  <InChI>
InChI=1S/C17H14BrFN6O3S/c18-11-8-22-17(23-9-4-6-10(7-5-9)29(21,27)28)25-16(11)24-13-3-1-2-12(19)14(13)15(20)26/h1-8H,(H2,20,26)(H2,21,27,28)(H2,22,23,24,25)

>  <InChI Key>
VCPYDRGRPKSEOJ-UHFFFAOYSA-N

>  <BindingDB>


>  <PubChem>
155184510

>  <ChEMBL>


$$$$
Compound 402
Actelion Java MolfileCreator 2.0

  0  0  0  0  0  0              0 V3000
M  V30 BEGIN CTAB
M  V30 COUNTS 29 31 0 0 0
M  V30 BEGIN ATOM
M  V30 1 Br 0.0 0.0 0.0 0
M  V30 2 C 1.489 0.1299 0.0 0
M  V30 3 C 2.3281 -1.099 0.0 0
M  V30 4 C 2.1272 1.5008 0.0 0
M  V30 5 N 3.8171 -0.969 0.0 0
M  V30 6 N 1.6663 -2.4462 0.0 0
M  V30 7 N 3.6162 1.6308 0.0 0
M  V30 8 C 4.4553 0.4018 0.0 0
M  V30 9 C 0.1536 -2.5526 0.0 0
M  V30 10 N 5.9443 0.5318 0.0 0
M  V30 11 C -0.5081 -3.8998 0.0 0
M  V30 12 C -0.709 -1.2999 0.0 0
M  V30 13 C 6.7834 -0.6972 0.0 0
M  V30 14 C -2.0208 -4.0062 0.0 0
M  V30 15 C 0.3308 -5.1289 0.0 0
M  V30 16 C -2.2217 -1.4063 0.0 0
M  V30 17 C 6.1216 -2.0444 0.0 0
M  V30 18 C 8.2724 -0.5672 0.0 0
M  V30 19 F -2.6826 -5.3534 0.0 0
M  V30 20 C -2.8835 -2.7535 0.0 0
M  V30 21 O 1.8199 -4.9989 0.0 0
M  V30 22 N -0.3308 -6.4761 0.0 0
M  V30 23 C 6.9606 -3.2735 0.0 0
M  V30 24 C 9.1115 -1.7963 0.0 0
M  V30 25 C 8.4497 -3.1435 0.0 0
M  V30 26 S 9.2887 -4.3725 0.0 0
M  V30 27 O 8.0361 -5.2116 0.0 0
M  V30 28 O 10.5178 -3.5098 0.0 0
M  V30 29 N 10.1278 -5.6016 0.0 0
M  V30 END ATOM
M  V30 BEGIN BOND
M  V30 1 1 1 2
M  V30 2 2 2 3
M  V30 3 1 2 4
M  V30 4 1 3 5
M  V30 5 1 3 6
M  V30 6 2 4 7
M  V30 7 2 5 8
M  V30 8 1 6 9
M  V30 9 1 8 10
M  V30 10 2 9 11
M  V30 11 1 9 12
M  V30 12 1 10 13
M  V30 13 1 11 14
M  V30 14 1 11 15
M  V30 15 2 12 16
M  V30 16 2 13 17
M  V30 17 1 13 18
M  V30 18 1 14 19
M  V30 19 2 14 20
M  V30 20 2 15 21
M  V30 21 1 15 22
M  V30 22 1 17 23
M  V30 23 2 18 24
M  V30 24 2 23 25
M  V30 25 1 25 26
M  V30 26 2 26 27
M  V30 27 2 26 28
M  V30 28 1 26 29
M  V30 29 1 7 8
M  V30 30 1 16 20
M  V30 31 1 24 25
M  V30 END BOND
M  V30 END CTAB
M  END
>  <Compound ID>
129

>  <Name>
TMX-3013

>  <Uniprot>
P51812

>  <Target>
RPS6KA3

>  <Smiles>
NC(=O)C1=C(F)C=CC=C1NC1=NC(NC2=CC=C(S(N)(=O)=O)C=C2)=NC=C1Br

>  <Kd (nM)>


>  <Assay (Kd)>


>  <Ki (nM)>


>  <Assay (Ki)>


>  <IC50 (nM)>


>  <Assay (IC50)>


>  <EC50 (nM)>


>  <Assay (EC50)>


>  <Article DOI>
10.1016/j.cell.2020.10.038

>  <Molecular Weight>
481.307

>  <Exact Mass>
480.001549628

>  <XLogP3>
2.74

>  <Heavy Atom Count>
29

>  <Ring Count>
3

>  <Hydrogen Bond Acceptor Count>
7

>  <Hydrogen Bond Donor Count>
4

>  <Rotatable Bond Count>
6

>  <Topological Polar Surface Area>
153.09

>  <Molecular Formula>
C17H14BrFN6O3S

>  <InChI>
InChI=1S/C17H14BrFN6O3S/c18-11-8-22-17(23-9-4-6-10(7-5-9)29(21,27)28)25-16(11)24-13-3-1-2-12(19)14(13)15(20)26/h1-8H,(H2,20,26)(H2,21,27,28)(H2,22,23,24,25)

>  <InChI Key>
VCPYDRGRPKSEOJ-UHFFFAOYSA-N

>  <BindingDB>


>  <PubChem>
155184510

>  <ChEMBL>


$$$$
Compound 403
Actelion Java MolfileCreator 2.0

  0  0  0  0  0  0              0 V3000
M  V30 BEGIN CTAB
M  V30 COUNTS 29 31 0 0 0
M  V30 BEGIN ATOM
M  V30 1 Br 0.0 0.0 0.0 0
M  V30 2 C 1.489 0.1299 0.0 0
M  V30 3 C 2.3281 -1.099 0.0 0
M  V30 4 C 2.1272 1.5008 0.0 0
M  V30 5 N 3.8171 -0.969 0.0 0
M  V30 6 N 1.6663 -2.4462 0.0 0
M  V30 7 N 3.6162 1.6308 0.0 0
M  V30 8 C 4.4553 0.4018 0.0 0
M  V30 9 C 0.1536 -2.5526 0.0 0
M  V30 10 N 5.9443 0.5318 0.0 0
M  V30 11 C -0.5081 -3.8998 0.0 0
M  V30 12 C -0.709 -1.2999 0.0 0
M  V30 13 C 6.7834 -0.6972 0.0 0
M  V30 14 C -2.0208 -4.0062 0.0 0
M  V30 15 C 0.3308 -5.1289 0.0 0
M  V30 16 C -2.2217 -1.4063 0.0 0
M  V30 17 C 6.1216 -2.0444 0.0 0
M  V30 18 C 8.2724 -0.5672 0.0 0
M  V30 19 F -2.6826 -5.3534 0.0 0
M  V30 20 C -2.8835 -2.7535 0.0 0
M  V30 21 O 1.8199 -4.9989 0.0 0
M  V30 22 N -0.3308 -6.4761 0.0 0
M  V30 23 C 6.9606 -3.2735 0.0 0
M  V30 24 C 9.1115 -1.7963 0.0 0
M  V30 25 C 8.4497 -3.1435 0.0 0
M  V30 26 S 9.2887 -4.3725 0.0 0
M  V30 27 O 8.0361 -5.2116 0.0 0
M  V30 28 O 10.5178 -3.5098 0.0 0
M  V30 29 N 10.1278 -5.6016 0.0 0
M  V30 END ATOM
M  V30 BEGIN BOND
M  V30 1 1 1 2
M  V30 2 2 2 3
M  V30 3 1 2 4
M  V30 4 1 3 5
M  V30 5 1 3 6
M  V30 6 2 4 7
M  V30 7 2 5 8
M  V30 8 1 6 9
M  V30 9 1 8 10
M  V30 10 2 9 11
M  V30 11 1 9 12
M  V30 12 1 10 13
M  V30 13 1 11 14
M  V30 14 1 11 15
M  V30 15 2 12 16
M  V30 16 2 13 17
M  V30 17 1 13 18
M  V30 18 1 14 19
M  V30 19 2 14 20
M  V30 20 2 15 21
M  V30 21 1 15 22
M  V30 22 1 17 23
M  V30 23 2 18 24
M  V30 24 2 23 25
M  V30 25 1 25 26
M  V30 26 2 26 27
M  V30 27 2 26 28
M  V30 28 1 26 29
M  V30 29 1 7 8
M  V30 30 1 16 20
M  V30 31 1 24 25
M  V30 END BOND
M  V30 END CTAB
M  END
>  <Compound ID>
129

>  <Name>
TMX-3013

>  <Uniprot>
Q9BYT3

>  <Target>
STK33

>  <Smiles>
NC(=O)C1=C(F)C=CC=C1NC1=NC(NC2=CC=C(S(N)(=O)=O)C=C2)=NC=C1Br

>  <Kd (nM)>


>  <Assay (Kd)>


>  <Ki (nM)>


>  <Assay (Ki)>


>  <IC50 (nM)>


>  <Assay (IC50)>


>  <EC50 (nM)>


>  <Assay (EC50)>


>  <Article DOI>
10.1016/j.cell.2020.10.038

>  <Molecular Weight>
481.307

>  <Exact Mass>
480.001549628

>  <XLogP3>
2.74

>  <Heavy Atom Count>
29

>  <Ring Count>
3

>  <Hydrogen Bond Acceptor Count>
7

>  <Hydrogen Bond Donor Count>
4

>  <Rotatable Bond Count>
6

>  <Topological Polar Surface Area>
153.09

>  <Molecular Formula>
C17H14BrFN6O3S

>  <InChI>
InChI=1S/C17H14BrFN6O3S/c18-11-8-22-17(23-9-4-6-10(7-5-9)29(21,27)28)25-16(11)24-13-3-1-2-12(19)14(13)15(20)26/h1-8H,(H2,20,26)(H2,21,27,28)(H2,22,23,24,25)

>  <InChI Key>
VCPYDRGRPKSEOJ-UHFFFAOYSA-N

>  <BindingDB>


>  <PubChem>
155184510

>  <ChEMBL>


$$$$
Compound 404
Actelion Java MolfileCreator 2.0

  0  0  0  0  0  0              0 V3000
M  V30 BEGIN CTAB
M  V30 COUNTS 29 31 0 0 0
M  V30 BEGIN ATOM
M  V30 1 Br 0.0 0.0 0.0 0
M  V30 2 C 1.489 0.1299 0.0 0
M  V30 3 C 2.3281 -1.099 0.0 0
M  V30 4 C 2.1272 1.5008 0.0 0
M  V30 5 N 3.8171 -0.969 0.0 0
M  V30 6 N 1.6663 -2.4462 0.0 0
M  V30 7 N 3.6162 1.6308 0.0 0
M  V30 8 C 4.4553 0.4018 0.0 0
M  V30 9 C 0.1536 -2.5526 0.0 0
M  V30 10 N 5.9443 0.5318 0.0 0
M  V30 11 C -0.5081 -3.8998 0.0 0
M  V30 12 C -0.709 -1.2999 0.0 0
M  V30 13 C 6.7834 -0.6972 0.0 0
M  V30 14 C -2.0208 -4.0062 0.0 0
M  V30 15 C 0.3308 -5.1289 0.0 0
M  V30 16 C -2.2217 -1.4063 0.0 0
M  V30 17 C 6.1216 -2.0444 0.0 0
M  V30 18 C 8.2724 -0.5672 0.0 0
M  V30 19 F -2.6826 -5.3534 0.0 0
M  V30 20 C -2.8835 -2.7535 0.0 0
M  V30 21 O 1.8199 -4.9989 0.0 0
M  V30 22 N -0.3308 -6.4761 0.0 0
M  V30 23 C 6.9606 -3.2735 0.0 0
M  V30 24 C 9.1115 -1.7963 0.0 0
M  V30 25 C 8.4497 -3.1435 0.0 0
M  V30 26 S 9.2887 -4.3725 0.0 0
M  V30 27 O 8.0361 -5.2116 0.0 0
M  V30 28 O 10.5178 -3.5098 0.0 0
M  V30 29 N 10.1278 -5.6016 0.0 0
M  V30 END ATOM
M  V30 BEGIN BOND
M  V30 1 1 1 2
M  V30 2 2 2 3
M  V30 3 1 2 4
M  V30 4 1 3 5
M  V30 5 1 3 6
M  V30 6 2 4 7
M  V30 7 2 5 8
M  V30 8 1 6 9
M  V30 9 1 8 10
M  V30 10 2 9 11
M  V30 11 1 9 12
M  V30 12 1 10 13
M  V30 13 1 11 14
M  V30 14 1 11 15
M  V30 15 2 12 16
M  V30 16 2 13 17
M  V30 17 1 13 18
M  V30 18 1 14 19
M  V30 19 2 14 20
M  V30 20 2 15 21
M  V30 21 1 15 22
M  V30 22 1 17 23
M  V30 23 2 18 24
M  V30 24 2 23 25
M  V30 25 1 25 26
M  V30 26 2 26 27
M  V30 27 2 26 28
M  V30 28 1 26 29
M  V30 29 1 7 8
M  V30 30 1 16 20
M  V30 31 1 24 25
M  V30 END BOND
M  V30 END CTAB
M  END
>  <Compound ID>
129

>  <Name>
TMX-3013

>  <Uniprot>
Q15208

>  <Target>
STK38

>  <Smiles>
NC(=O)C1=C(F)C=CC=C1NC1=NC(NC2=CC=C(S(N)(=O)=O)C=C2)=NC=C1Br

>  <Kd (nM)>


>  <Assay (Kd)>


>  <Ki (nM)>


>  <Assay (Ki)>


>  <IC50 (nM)>


>  <Assay (IC50)>


>  <EC50 (nM)>


>  <Assay (EC50)>


>  <Article DOI>
10.1016/j.cell.2020.10.038

>  <Molecular Weight>
481.307

>  <Exact Mass>
480.001549628

>  <XLogP3>
2.74

>  <Heavy Atom Count>
29

>  <Ring Count>
3

>  <Hydrogen Bond Acceptor Count>
7

>  <Hydrogen Bond Donor Count>
4

>  <Rotatable Bond Count>
6

>  <Topological Polar Surface Area>
153.09

>  <Molecular Formula>
C17H14BrFN6O3S

>  <InChI>
InChI=1S/C17H14BrFN6O3S/c18-11-8-22-17(23-9-4-6-10(7-5-9)29(21,27)28)25-16(11)24-13-3-1-2-12(19)14(13)15(20)26/h1-8H,(H2,20,26)(H2,21,27,28)(H2,22,23,24,25)

>  <InChI Key>
VCPYDRGRPKSEOJ-UHFFFAOYSA-N

>  <BindingDB>


>  <PubChem>
155184510

>  <ChEMBL>


$$$$
Compound 405
Actelion Java MolfileCreator 2.0

  0  0  0  0  0  0              0 V3000
M  V30 BEGIN CTAB
M  V30 COUNTS 29 31 0 0 0
M  V30 BEGIN ATOM
M  V30 1 Br 0.0 0.0 0.0 0
M  V30 2 C 1.489 0.1299 0.0 0
M  V30 3 C 2.3281 -1.099 0.0 0
M  V30 4 C 2.1272 1.5008 0.0 0
M  V30 5 N 3.8171 -0.969 0.0 0
M  V30 6 N 1.6663 -2.4462 0.0 0
M  V30 7 N 3.6162 1.6308 0.0 0
M  V30 8 C 4.4553 0.4018 0.0 0
M  V30 9 C 0.1536 -2.5526 0.0 0
M  V30 10 N 5.9443 0.5318 0.0 0
M  V30 11 C -0.5081 -3.8998 0.0 0
M  V30 12 C -0.709 -1.2999 0.0 0
M  V30 13 C 6.7834 -0.6972 0.0 0
M  V30 14 C -2.0208 -4.0062 0.0 0
M  V30 15 C 0.3308 -5.1289 0.0 0
M  V30 16 C -2.2217 -1.4063 0.0 0
M  V30 17 C 6.1216 -2.0444 0.0 0
M  V30 18 C 8.2724 -0.5672 0.0 0
M  V30 19 F -2.6826 -5.3534 0.0 0
M  V30 20 C -2.8835 -2.7535 0.0 0
M  V30 21 O 1.8199 -4.9989 0.0 0
M  V30 22 N -0.3308 -6.4761 0.0 0
M  V30 23 C 6.9606 -3.2735 0.0 0
M  V30 24 C 9.1115 -1.7963 0.0 0
M  V30 25 C 8.4497 -3.1435 0.0 0
M  V30 26 S 9.2887 -4.3725 0.0 0
M  V30 27 O 8.0361 -5.2116 0.0 0
M  V30 28 O 10.5178 -3.5098 0.0 0
M  V30 29 N 10.1278 -5.6016 0.0 0
M  V30 END ATOM
M  V30 BEGIN BOND
M  V30 1 1 1 2
M  V30 2 2 2 3
M  V30 3 1 2 4
M  V30 4 1 3 5
M  V30 5 1 3 6
M  V30 6 2 4 7
M  V30 7 2 5 8
M  V30 8 1 6 9
M  V30 9 1 8 10
M  V30 10 2 9 11
M  V30 11 1 9 12
M  V30 12 1 10 13
M  V30 13 1 11 14
M  V30 14 1 11 15
M  V30 15 2 12 16
M  V30 16 2 13 17
M  V30 17 1 13 18
M  V30 18 1 14 19
M  V30 19 2 14 20
M  V30 20 2 15 21
M  V30 21 1 15 22
M  V30 22 1 17 23
M  V30 23 2 18 24
M  V30 24 2 23 25
M  V30 25 1 25 26
M  V30 26 2 26 27
M  V30 27 2 26 28
M  V30 28 1 26 29
M  V30 29 1 7 8
M  V30 30 1 16 20
M  V30 31 1 24 25
M  V30 END BOND
M  V30 END CTAB
M  END
>  <Compound ID>
129

>  <Name>
TMX-3013

>  <Uniprot>
P33981

>  <Target>
TTK

>  <Smiles>
NC(=O)C1=C(F)C=CC=C1NC1=NC(NC2=CC=C(S(N)(=O)=O)C=C2)=NC=C1Br

>  <Kd (nM)>


>  <Assay (Kd)>


>  <Ki (nM)>


>  <Assay (Ki)>


>  <IC50 (nM)>


>  <Assay (IC50)>


>  <EC50 (nM)>


>  <Assay (EC50)>


>  <Article DOI>
10.1016/j.cell.2020.10.038

>  <Molecular Weight>
481.307

>  <Exact Mass>
480.001549628

>  <XLogP3>
2.74

>  <Heavy Atom Count>
29

>  <Ring Count>
3

>  <Hydrogen Bond Acceptor Count>
7

>  <Hydrogen Bond Donor Count>
4

>  <Rotatable Bond Count>
6

>  <Topological Polar Surface Area>
153.09

>  <Molecular Formula>
C17H14BrFN6O3S

>  <InChI>
InChI=1S/C17H14BrFN6O3S/c18-11-8-22-17(23-9-4-6-10(7-5-9)29(21,27)28)25-16(11)24-13-3-1-2-12(19)14(13)15(20)26/h1-8H,(H2,20,26)(H2,21,27,28)(H2,22,23,24,25)

>  <InChI Key>
VCPYDRGRPKSEOJ-UHFFFAOYSA-N

>  <BindingDB>


>  <PubChem>
155184510

>  <ChEMBL>


$$$$
Compound 406
Actelion Java MolfileCreator 2.0

  0  0  0  0  0  0              0 V3000
M  V30 BEGIN CTAB
M  V30 COUNTS 30 32 0 0 0
M  V30 BEGIN ATOM
M  V30 1 Br 0.0 0.0 0.0 0
M  V30 2 C -1.5032 0.0587 0.0 0
M  V30 3 C -2.2196 1.3858 0.0 0
M  V30 4 C -2.3018 -1.1979 0.0 0
M  V30 5 N -3.7229 1.4445 0.0 0
M  V30 6 N -1.4445 2.6659 0.0 0
M  V30 7 N -3.8051 -1.1391 0.0 0
M  V30 8 C -4.5215 0.1879 0.0 0
M  V30 9 C -2.1609 3.993 0.0 0
M  V30 10 N -6.0248 0.2466 0.0 0
M  V30 11 C -1.3858 5.2731 0.0 0
M  V30 12 C -3.6642 4.0517 0.0 0
M  V30 13 C -6.7412 1.5737 0.0 0
M  V30 14 C -2.1022 6.6002 0.0 0
M  V30 15 C 0.0939 5.2379 0.0 0
M  V30 16 C -4.3806 5.3788 0.0 0
M  V30 17 C -8.2444 1.6324 0.0 0
M  V30 18 C -5.966 2.8538 0.0 0
M  V30 19 F -1.3271 7.8804 0.0 0
M  V30 20 C -3.6054 6.659 0.0 0
M  V30 21 O 0.7868 3.9343 0.0 0
M  V30 22 N 0.869 6.518 0.0 0
M  V30 23 C -8.9608 2.9595 0.0 0
M  V30 24 C -9.043 0.3758 0.0 0
M  V30 25 C -6.6824 4.1809 0.0 0
M  V30 26 C -8.1857 4.2396 0.0 0
M  V30 27 S -8.9021 5.5667 0.0 0
M  V30 28 O -7.5985 6.2831 0.0 0
M  V30 29 O -10.2292 4.8738 0.0 0
M  V30 30 N -9.6185 6.8938 0.0 0
M  V30 END ATOM
M  V30 BEGIN BOND
M  V30 1 1 1 2
M  V30 2 2 2 3
M  V30 3 1 2 4
M  V30 4 1 3 5
M  V30 5 1 3 6
M  V30 6 2 4 7
M  V30 7 2 5 8
M  V30 8 1 6 9
M  V30 9 1 8 10
M  V30 10 2 9 11
M  V30 11 1 9 12
M  V30 12 1 10 13
M  V30 13 1 11 14
M  V30 14 1 11 15
M  V30 15 2 12 16
M  V30 16 2 13 17
M  V30 17 1 13 18
M  V30 18 1 14 19
M  V30 19 2 14 20
M  V30 20 2 15 21
M  V30 21 1 15 22
M  V30 22 1 17 23
M  V30 23 1 17 24
M  V30 24 2 18 25
M  V30 25 2 23 26
M  V30 26 1 26 27
M  V30 27 2 27 28
M  V30 28 2 27 29
M  V30 29 1 27 30
M  V30 30 1 7 8
M  V30 31 1 16 20
M  V30 32 1 25 26
M  V30 END BOND
M  V30 END CTAB
M  END
>  <Compound ID>
130

>  <Name>
TMX-3010

>  <Uniprot>
O14965

>  <Target>
AURKA

>  <Smiles>
CC1=CC(S(N)(=O)=O)=CC=C1NC1=NC=C(Br)C(NC2=CC=CC(F)=C2C(N)=O)=N1

>  <Kd (nM)>


>  <Assay (Kd)>


>  <Ki (nM)>


>  <Assay (Ki)>


>  <IC50 (nM)>


>  <Assay (IC50)>


>  <EC50 (nM)>


>  <Assay (EC50)>


>  <Article DOI>
10.1016/j.cell.2020.10.038

>  <Molecular Weight>
495.334

>  <Exact Mass>
494.017199692

>  <XLogP3>
3.1

>  <Heavy Atom Count>
30

>  <Ring Count>
3

>  <Hydrogen Bond Acceptor Count>
7

>  <Hydrogen Bond Donor Count>
4

>  <Rotatable Bond Count>
6

>  <Topological Polar Surface Area>
153.09

>  <Molecular Formula>
C18H16BrFN6O3S

>  <InChI>
InChI=1S/C18H16BrFN6O3S/c1-9-7-10(30(22,28)29)5-6-13(9)25-18-23-8-11(19)17(26-18)24-14-4-2-3-12(20)15(14)16(21)27/h2-8H,1H3,(H2,21,27)(H2,22,28,29)(H2,23,24,25,26)

>  <InChI Key>
HRRALCQGXWYWOS-UHFFFAOYSA-N

>  <BindingDB>


>  <PubChem>


>  <ChEMBL>


$$$$
Compound 407
Actelion Java MolfileCreator 2.0

  0  0  0  0  0  0              0 V3000
M  V30 BEGIN CTAB
M  V30 COUNTS 30 32 0 0 0
M  V30 BEGIN ATOM
M  V30 1 Br 0.0 0.0 0.0 0
M  V30 2 C -1.5032 0.0587 0.0 0
M  V30 3 C -2.2196 1.3858 0.0 0
M  V30 4 C -2.3018 -1.1979 0.0 0
M  V30 5 N -3.7229 1.4445 0.0 0
M  V30 6 N -1.4445 2.6659 0.0 0
M  V30 7 N -3.8051 -1.1391 0.0 0
M  V30 8 C -4.5215 0.1879 0.0 0
M  V30 9 C -2.1609 3.993 0.0 0
M  V30 10 N -6.0248 0.2466 0.0 0
M  V30 11 C -1.3858 5.2731 0.0 0
M  V30 12 C -3.6642 4.0517 0.0 0
M  V30 13 C -6.7412 1.5737 0.0 0
M  V30 14 C -2.1022 6.6002 0.0 0
M  V30 15 C 0.0939 5.2379 0.0 0
M  V30 16 C -4.3806 5.3788 0.0 0
M  V30 17 C -8.2444 1.6324 0.0 0
M  V30 18 C -5.966 2.8538 0.0 0
M  V30 19 F -1.3271 7.8804 0.0 0
M  V30 20 C -3.6054 6.659 0.0 0
M  V30 21 O 0.7868 3.9343 0.0 0
M  V30 22 N 0.869 6.518 0.0 0
M  V30 23 C -8.9608 2.9595 0.0 0
M  V30 24 C -9.043 0.3758 0.0 0
M  V30 25 C -6.6824 4.1809 0.0 0
M  V30 26 C -8.1857 4.2396 0.0 0
M  V30 27 S -8.9021 5.5667 0.0 0
M  V30 28 O -7.5985 6.2831 0.0 0
M  V30 29 O -10.2292 4.8738 0.0 0
M  V30 30 N -9.6185 6.8938 0.0 0
M  V30 END ATOM
M  V30 BEGIN BOND
M  V30 1 1 1 2
M  V30 2 2 2 3
M  V30 3 1 2 4
M  V30 4 1 3 5
M  V30 5 1 3 6
M  V30 6 2 4 7
M  V30 7 2 5 8
M  V30 8 1 6 9
M  V30 9 1 8 10
M  V30 10 2 9 11
M  V30 11 1 9 12
M  V30 12 1 10 13
M  V30 13 1 11 14
M  V30 14 1 11 15
M  V30 15 2 12 16
M  V30 16 2 13 17
M  V30 17 1 13 18
M  V30 18 1 14 19
M  V30 19 2 14 20
M  V30 20 2 15 21
M  V30 21 1 15 22
M  V30 22 1 17 23
M  V30 23 1 17 24
M  V30 24 2 18 25
M  V30 25 2 23 26
M  V30 26 1 26 27
M  V30 27 2 27 28
M  V30 28 2 27 29
M  V30 29 1 27 30
M  V30 30 1 7 8
M  V30 31 1 16 20
M  V30 32 1 25 26
M  V30 END BOND
M  V30 END CTAB
M  END
>  <Compound ID>
130

>  <Name>
TMX-3010

>  <Uniprot>
Q96GD4

>  <Target>
AURKB

>  <Smiles>
CC1=CC(S(N)(=O)=O)=CC=C1NC1=NC=C(Br)C(NC2=CC=CC(F)=C2C(N)=O)=N1

>  <Kd (nM)>


>  <Assay (Kd)>


>  <Ki (nM)>


>  <Assay (Ki)>


>  <IC50 (nM)>


>  <Assay (IC50)>


>  <EC50 (nM)>


>  <Assay (EC50)>


>  <Article DOI>
10.1016/j.cell.2020.10.038

>  <Molecular Weight>
495.334

>  <Exact Mass>
494.017199692

>  <XLogP3>
3.1

>  <Heavy Atom Count>
30

>  <Ring Count>
3

>  <Hydrogen Bond Acceptor Count>
7

>  <Hydrogen Bond Donor Count>
4

>  <Rotatable Bond Count>
6

>  <Topological Polar Surface Area>
153.09

>  <Molecular Formula>
C18H16BrFN6O3S

>  <InChI>
InChI=1S/C18H16BrFN6O3S/c1-9-7-10(30(22,28)29)5-6-13(9)25-18-23-8-11(19)17(26-18)24-14-4-2-3-12(20)15(14)16(21)27/h2-8H,1H3,(H2,21,27)(H2,22,28,29)(H2,23,24,25,26)

>  <InChI Key>
HRRALCQGXWYWOS-UHFFFAOYSA-N

>  <BindingDB>


>  <PubChem>


>  <ChEMBL>


$$$$
Compound 408
Actelion Java MolfileCreator 2.0

  0  0  0  0  0  0              0 V3000
M  V30 BEGIN CTAB
M  V30 COUNTS 30 32 0 0 0
M  V30 BEGIN ATOM
M  V30 1 Br 0.0 0.0 0.0 0
M  V30 2 C -1.5032 0.0587 0.0 0
M  V30 3 C -2.2196 1.3858 0.0 0
M  V30 4 C -2.3018 -1.1979 0.0 0
M  V30 5 N -3.7229 1.4445 0.0 0
M  V30 6 N -1.4445 2.6659 0.0 0
M  V30 7 N -3.8051 -1.1391 0.0 0
M  V30 8 C -4.5215 0.1879 0.0 0
M  V30 9 C -2.1609 3.993 0.0 0
M  V30 10 N -6.0248 0.2466 0.0 0
M  V30 11 C -1.3858 5.2731 0.0 0
M  V30 12 C -3.6642 4.0517 0.0 0
M  V30 13 C -6.7412 1.5737 0.0 0
M  V30 14 C -2.1022 6.6002 0.0 0
M  V30 15 C 0.0939 5.2379 0.0 0
M  V30 16 C -4.3806 5.3788 0.0 0
M  V30 17 C -8.2444 1.6324 0.0 0
M  V30 18 C -5.966 2.8538 0.0 0
M  V30 19 F -1.3271 7.8804 0.0 0
M  V30 20 C -3.6054 6.659 0.0 0
M  V30 21 O 0.7868 3.9343 0.0 0
M  V30 22 N 0.869 6.518 0.0 0
M  V30 23 C -8.9608 2.9595 0.0 0
M  V30 24 C -9.043 0.3758 0.0 0
M  V30 25 C -6.6824 4.1809 0.0 0
M  V30 26 C -8.1857 4.2396 0.0 0
M  V30 27 S -8.9021 5.5667 0.0 0
M  V30 28 O -7.5985 6.2831 0.0 0
M  V30 29 O -10.2292 4.8738 0.0 0
M  V30 30 N -9.6185 6.8938 0.0 0
M  V30 END ATOM
M  V30 BEGIN BOND
M  V30 1 1 1 2
M  V30 2 2 2 3
M  V30 3 1 2 4
M  V30 4 1 3 5
M  V30 5 1 3 6
M  V30 6 2 4 7
M  V30 7 2 5 8
M  V30 8 1 6 9
M  V30 9 1 8 10
M  V30 10 2 9 11
M  V30 11 1 9 12
M  V30 12 1 10 13
M  V30 13 1 11 14
M  V30 14 1 11 15
M  V30 15 2 12 16
M  V30 16 2 13 17
M  V30 17 1 13 18
M  V30 18 1 14 19
M  V30 19 2 14 20
M  V30 20 2 15 21
M  V30 21 1 15 22
M  V30 22 1 17 23
M  V30 23 1 17 24
M  V30 24 2 18 25
M  V30 25 2 23 26
M  V30 26 1 26 27
M  V30 27 2 27 28
M  V30 28 2 27 29
M  V30 29 1 27 30
M  V30 30 1 7 8
M  V30 31 1 16 20
M  V30 32 1 25 26
M  V30 END BOND
M  V30 END CTAB
M  END
>  <Compound ID>
130

>  <Name>
TMX-3010

>  <Uniprot>
P06493

>  <Target>
CDK1

>  <Smiles>
CC1=CC(S(N)(=O)=O)=CC=C1NC1=NC=C(Br)C(NC2=CC=CC(F)=C2C(N)=O)=N1

>  <Kd (nM)>


>  <Assay (Kd)>


>  <Ki (nM)>


>  <Assay (Ki)>


>  <IC50 (nM)>


>  <Assay (IC50)>


>  <EC50 (nM)>


>  <Assay (EC50)>


>  <Article DOI>
10.1016/j.cell.2020.10.038

>  <Molecular Weight>
495.334

>  <Exact Mass>
494.017199692

>  <XLogP3>
3.1

>  <Heavy Atom Count>
30

>  <Ring Count>
3

>  <Hydrogen Bond Acceptor Count>
7

>  <Hydrogen Bond Donor Count>
4

>  <Rotatable Bond Count>
6

>  <Topological Polar Surface Area>
153.09

>  <Molecular Formula>
C18H16BrFN6O3S

>  <InChI>
InChI=1S/C18H16BrFN6O3S/c1-9-7-10(30(22,28)29)5-6-13(9)25-18-23-8-11(19)17(26-18)24-14-4-2-3-12(20)15(14)16(21)27/h2-8H,1H3,(H2,21,27)(H2,22,28,29)(H2,23,24,25,26)

>  <InChI Key>
HRRALCQGXWYWOS-UHFFFAOYSA-N

>  <BindingDB>


>  <PubChem>


>  <ChEMBL>


$$$$
Compound 409
Actelion Java MolfileCreator 2.0

  0  0  0  0  0  0              0 V3000
M  V30 BEGIN CTAB
M  V30 COUNTS 30 32 0 0 0
M  V30 BEGIN ATOM
M  V30 1 Br 0.0 0.0 0.0 0
M  V30 2 C -1.5032 0.0587 0.0 0
M  V30 3 C -2.2196 1.3858 0.0 0
M  V30 4 C -2.3018 -1.1979 0.0 0
M  V30 5 N -3.7229 1.4445 0.0 0
M  V30 6 N -1.4445 2.6659 0.0 0
M  V30 7 N -3.8051 -1.1391 0.0 0
M  V30 8 C -4.5215 0.1879 0.0 0
M  V30 9 C -2.1609 3.993 0.0 0
M  V30 10 N -6.0248 0.2466 0.0 0
M  V30 11 C -1.3858 5.2731 0.0 0
M  V30 12 C -3.6642 4.0517 0.0 0
M  V30 13 C -6.7412 1.5737 0.0 0
M  V30 14 C -2.1022 6.6002 0.0 0
M  V30 15 C 0.0939 5.2379 0.0 0
M  V30 16 C -4.3806 5.3788 0.0 0
M  V30 17 C -8.2444 1.6324 0.0 0
M  V30 18 C -5.966 2.8538 0.0 0
M  V30 19 F -1.3271 7.8804 0.0 0
M  V30 20 C -3.6054 6.659 0.0 0
M  V30 21 O 0.7868 3.9343 0.0 0
M  V30 22 N 0.869 6.518 0.0 0
M  V30 23 C -8.9608 2.9595 0.0 0
M  V30 24 C -9.043 0.3758 0.0 0
M  V30 25 C -6.6824 4.1809 0.0 0
M  V30 26 C -8.1857 4.2396 0.0 0
M  V30 27 S -8.9021 5.5667 0.0 0
M  V30 28 O -7.5985 6.2831 0.0 0
M  V30 29 O -10.2292 4.8738 0.0 0
M  V30 30 N -9.6185 6.8938 0.0 0
M  V30 END ATOM
M  V30 BEGIN BOND
M  V30 1 1 1 2
M  V30 2 2 2 3
M  V30 3 1 2 4
M  V30 4 1 3 5
M  V30 5 1 3 6
M  V30 6 2 4 7
M  V30 7 2 5 8
M  V30 8 1 6 9
M  V30 9 1 8 10
M  V30 10 2 9 11
M  V30 11 1 9 12
M  V30 12 1 10 13
M  V30 13 1 11 14
M  V30 14 1 11 15
M  V30 15 2 12 16
M  V30 16 2 13 17
M  V30 17 1 13 18
M  V30 18 1 14 19
M  V30 19 2 14 20
M  V30 20 2 15 21
M  V30 21 1 15 22
M  V30 22 1 17 23
M  V30 23 1 17 24
M  V30 24 2 18 25
M  V30 25 2 23 26
M  V30 26 1 26 27
M  V30 27 2 27 28
M  V30 28 2 27 29
M  V30 29 1 27 30
M  V30 30 1 7 8
M  V30 31 1 16 20
M  V30 32 1 25 26
M  V30 END BOND
M  V30 END CTAB
M  END
>  <Compound ID>
130

>  <Name>
TMX-3010

>  <Uniprot>
P24941

>  <Target>
CDK2

>  <Smiles>
CC1=CC(S(N)(=O)=O)=CC=C1NC1=NC=C(Br)C(NC2=CC=CC(F)=C2C(N)=O)=N1

>  <Kd (nM)>


>  <Assay (Kd)>


>  <Ki (nM)>


>  <Assay (Ki)>


>  <IC50 (nM)>
0.7

>  <Assay (IC50)>
IC50 of CDK2/cyclin A was tested by the Z'-LYTE assays

>  <EC50 (nM)>


>  <Assay (EC50)>


>  <Article DOI>
10.1002/anie.202004087

>  <Molecular Weight>
495.334

>  <Exact Mass>
494.017199692

>  <XLogP3>
3.1

>  <Heavy Atom Count>
30

>  <Ring Count>
3

>  <Hydrogen Bond Acceptor Count>
7

>  <Hydrogen Bond Donor Count>
4

>  <Rotatable Bond Count>
6

>  <Topological Polar Surface Area>
153.09

>  <Molecular Formula>
C18H16BrFN6O3S

>  <InChI>
InChI=1S/C18H16BrFN6O3S/c1-9-7-10(30(22,28)29)5-6-13(9)25-18-23-8-11(19)17(26-18)24-14-4-2-3-12(20)15(14)16(21)27/h2-8H,1H3,(H2,21,27)(H2,22,28,29)(H2,23,24,25,26)

>  <InChI Key>
HRRALCQGXWYWOS-UHFFFAOYSA-N

>  <BindingDB>


>  <PubChem>


>  <ChEMBL>


$$$$
Compound 410
Actelion Java MolfileCreator 2.0

  0  0  0  0  0  0              0 V3000
M  V30 BEGIN CTAB
M  V30 COUNTS 30 32 0 0 0
M  V30 BEGIN ATOM
M  V30 1 Br 0.0 0.0 0.0 0
M  V30 2 C -1.5032 0.0587 0.0 0
M  V30 3 C -2.2196 1.3858 0.0 0
M  V30 4 C -2.3018 -1.1979 0.0 0
M  V30 5 N -3.7229 1.4445 0.0 0
M  V30 6 N -1.4445 2.6659 0.0 0
M  V30 7 N -3.8051 -1.1391 0.0 0
M  V30 8 C -4.5215 0.1879 0.0 0
M  V30 9 C -2.1609 3.993 0.0 0
M  V30 10 N -6.0248 0.2466 0.0 0
M  V30 11 C -1.3858 5.2731 0.0 0
M  V30 12 C -3.6642 4.0517 0.0 0
M  V30 13 C -6.7412 1.5737 0.0 0
M  V30 14 C -2.1022 6.6002 0.0 0
M  V30 15 C 0.0939 5.2379 0.0 0
M  V30 16 C -4.3806 5.3788 0.0 0
M  V30 17 C -8.2444 1.6324 0.0 0
M  V30 18 C -5.966 2.8538 0.0 0
M  V30 19 F -1.3271 7.8804 0.0 0
M  V30 20 C -3.6054 6.659 0.0 0
M  V30 21 O 0.7868 3.9343 0.0 0
M  V30 22 N 0.869 6.518 0.0 0
M  V30 23 C -8.9608 2.9595 0.0 0
M  V30 24 C -9.043 0.3758 0.0 0
M  V30 25 C -6.6824 4.1809 0.0 0
M  V30 26 C -8.1857 4.2396 0.0 0
M  V30 27 S -8.9021 5.5667 0.0 0
M  V30 28 O -7.5985 6.2831 0.0 0
M  V30 29 O -10.2292 4.8738 0.0 0
M  V30 30 N -9.6185 6.8938 0.0 0
M  V30 END ATOM
M  V30 BEGIN BOND
M  V30 1 1 1 2
M  V30 2 2 2 3
M  V30 3 1 2 4
M  V30 4 1 3 5
M  V30 5 1 3 6
M  V30 6 2 4 7
M  V30 7 2 5 8
M  V30 8 1 6 9
M  V30 9 1 8 10
M  V30 10 2 9 11
M  V30 11 1 9 12
M  V30 12 1 10 13
M  V30 13 1 11 14
M  V30 14 1 11 15
M  V30 15 2 12 16
M  V30 16 2 13 17
M  V30 17 1 13 18
M  V30 18 1 14 19
M  V30 19 2 14 20
M  V30 20 2 15 21
M  V30 21 1 15 22
M  V30 22 1 17 23
M  V30 23 1 17 24
M  V30 24 2 18 25
M  V30 25 2 23 26
M  V30 26 1 26 27
M  V30 27 2 27 28
M  V30 28 2 27 29
M  V30 29 1 27 30
M  V30 30 1 7 8
M  V30 31 1 16 20
M  V30 32 1 25 26
M  V30 END BOND
M  V30 END CTAB
M  END
>  <Compound ID>
130

>  <Name>
TMX-3010

>  <Uniprot>
P11802

>  <Target>
CDK4

>  <Smiles>
CC1=CC(S(N)(=O)=O)=CC=C1NC1=NC=C(Br)C(NC2=CC=CC(F)=C2C(N)=O)=N1

>  <Kd (nM)>


>  <Assay (Kd)>


>  <Ki (nM)>


>  <Assay (Ki)>


>  <IC50 (nM)>
135

>  <Assay (IC50)>
IC50 of CDK4/cyclin D1 was tested by the Adapta assays

>  <EC50 (nM)>


>  <Assay (EC50)>


>  <Article DOI>
10.1002/anie.202004087

>  <Molecular Weight>
495.334

>  <Exact Mass>
494.017199692

>  <XLogP3>
3.1

>  <Heavy Atom Count>
30

>  <Ring Count>
3

>  <Hydrogen Bond Acceptor Count>
7

>  <Hydrogen Bond Donor Count>
4

>  <Rotatable Bond Count>
6

>  <Topological Polar Surface Area>
153.09

>  <Molecular Formula>
C18H16BrFN6O3S

>  <InChI>
InChI=1S/C18H16BrFN6O3S/c1-9-7-10(30(22,28)29)5-6-13(9)25-18-23-8-11(19)17(26-18)24-14-4-2-3-12(20)15(14)16(21)27/h2-8H,1H3,(H2,21,27)(H2,22,28,29)(H2,23,24,25,26)

>  <InChI Key>
HRRALCQGXWYWOS-UHFFFAOYSA-N

>  <BindingDB>


>  <PubChem>


>  <ChEMBL>


$$$$
Compound 411
Actelion Java MolfileCreator 2.0

  0  0  0  0  0  0              0 V3000
M  V30 BEGIN CTAB
M  V30 COUNTS 30 32 0 0 0
M  V30 BEGIN ATOM
M  V30 1 Br 0.0 0.0 0.0 0
M  V30 2 C -1.5032 0.0587 0.0 0
M  V30 3 C -2.2196 1.3858 0.0 0
M  V30 4 C -2.3018 -1.1979 0.0 0
M  V30 5 N -3.7229 1.4445 0.0 0
M  V30 6 N -1.4445 2.6659 0.0 0
M  V30 7 N -3.8051 -1.1391 0.0 0
M  V30 8 C -4.5215 0.1879 0.0 0
M  V30 9 C -2.1609 3.993 0.0 0
M  V30 10 N -6.0248 0.2466 0.0 0
M  V30 11 C -1.3858 5.2731 0.0 0
M  V30 12 C -3.6642 4.0517 0.0 0
M  V30 13 C -6.7412 1.5737 0.0 0
M  V30 14 C -2.1022 6.6002 0.0 0
M  V30 15 C 0.0939 5.2379 0.0 0
M  V30 16 C -4.3806 5.3788 0.0 0
M  V30 17 C -8.2444 1.6324 0.0 0
M  V30 18 C -5.966 2.8538 0.0 0
M  V30 19 F -1.3271 7.8804 0.0 0
M  V30 20 C -3.6054 6.659 0.0 0
M  V30 21 O 0.7868 3.9343 0.0 0
M  V30 22 N 0.869 6.518 0.0 0
M  V30 23 C -8.9608 2.9595 0.0 0
M  V30 24 C -9.043 0.3758 0.0 0
M  V30 25 C -6.6824 4.1809 0.0 0
M  V30 26 C -8.1857 4.2396 0.0 0
M  V30 27 S -8.9021 5.5667 0.0 0
M  V30 28 O -7.5985 6.2831 0.0 0
M  V30 29 O -10.2292 4.8738 0.0 0
M  V30 30 N -9.6185 6.8938 0.0 0
M  V30 END ATOM
M  V30 BEGIN BOND
M  V30 1 1 1 2
M  V30 2 2 2 3
M  V30 3 1 2 4
M  V30 4 1 3 5
M  V30 5 1 3 6
M  V30 6 2 4 7
M  V30 7 2 5 8
M  V30 8 1 6 9
M  V30 9 1 8 10
M  V30 10 2 9 11
M  V30 11 1 9 12
M  V30 12 1 10 13
M  V30 13 1 11 14
M  V30 14 1 11 15
M  V30 15 2 12 16
M  V30 16 2 13 17
M  V30 17 1 13 18
M  V30 18 1 14 19
M  V30 19 2 14 20
M  V30 20 2 15 21
M  V30 21 1 15 22
M  V30 22 1 17 23
M  V30 23 1 17 24
M  V30 24 2 18 25
M  V30 25 2 23 26
M  V30 26 1 26 27
M  V30 27 2 27 28
M  V30 28 2 27 29
M  V30 29 1 27 30
M  V30 30 1 7 8
M  V30 31 1 16 20
M  V30 32 1 25 26
M  V30 END BOND
M  V30 END CTAB
M  END
>  <Compound ID>
130

>  <Name>
TMX-3010

>  <Uniprot>
Q00535

>  <Target>
CDK5

>  <Smiles>
CC1=CC(S(N)(=O)=O)=CC=C1NC1=NC=C(Br)C(NC2=CC=CC(F)=C2C(N)=O)=N1

>  <Kd (nM)>


>  <Assay (Kd)>


>  <Ki (nM)>


>  <Assay (Ki)>


>  <IC50 (nM)>
0.9

>  <Assay (IC50)>
IC50 of CDK5/p25 was tested by the Z'-LYTE assays

>  <EC50 (nM)>


>  <Assay (EC50)>


>  <Article DOI>
10.1002/anie.202004087

>  <Molecular Weight>
495.334

>  <Exact Mass>
494.017199692

>  <XLogP3>
3.1

>  <Heavy Atom Count>
30

>  <Ring Count>
3

>  <Hydrogen Bond Acceptor Count>
7

>  <Hydrogen Bond Donor Count>
4

>  <Rotatable Bond Count>
6

>  <Topological Polar Surface Area>
153.09

>  <Molecular Formula>
C18H16BrFN6O3S

>  <InChI>
InChI=1S/C18H16BrFN6O3S/c1-9-7-10(30(22,28)29)5-6-13(9)25-18-23-8-11(19)17(26-18)24-14-4-2-3-12(20)15(14)16(21)27/h2-8H,1H3,(H2,21,27)(H2,22,28,29)(H2,23,24,25,26)

>  <InChI Key>
HRRALCQGXWYWOS-UHFFFAOYSA-N

>  <BindingDB>


>  <PubChem>


>  <ChEMBL>


$$$$
Compound 412
Actelion Java MolfileCreator 2.0

  0  0  0  0  0  0              0 V3000
M  V30 BEGIN CTAB
M  V30 COUNTS 30 32 0 0 0
M  V30 BEGIN ATOM
M  V30 1 Br 0.0 0.0 0.0 0
M  V30 2 C -1.5032 0.0587 0.0 0
M  V30 3 C -2.2196 1.3858 0.0 0
M  V30 4 C -2.3018 -1.1979 0.0 0
M  V30 5 N -3.7229 1.4445 0.0 0
M  V30 6 N -1.4445 2.6659 0.0 0
M  V30 7 N -3.8051 -1.1391 0.0 0
M  V30 8 C -4.5215 0.1879 0.0 0
M  V30 9 C -2.1609 3.993 0.0 0
M  V30 10 N -6.0248 0.2466 0.0 0
M  V30 11 C -1.3858 5.2731 0.0 0
M  V30 12 C -3.6642 4.0517 0.0 0
M  V30 13 C -6.7412 1.5737 0.0 0
M  V30 14 C -2.1022 6.6002 0.0 0
M  V30 15 C 0.0939 5.2379 0.0 0
M  V30 16 C -4.3806 5.3788 0.0 0
M  V30 17 C -8.2444 1.6324 0.0 0
M  V30 18 C -5.966 2.8538 0.0 0
M  V30 19 F -1.3271 7.8804 0.0 0
M  V30 20 C -3.6054 6.659 0.0 0
M  V30 21 O 0.7868 3.9343 0.0 0
M  V30 22 N 0.869 6.518 0.0 0
M  V30 23 C -8.9608 2.9595 0.0 0
M  V30 24 C -9.043 0.3758 0.0 0
M  V30 25 C -6.6824 4.1809 0.0 0
M  V30 26 C -8.1857 4.2396 0.0 0
M  V30 27 S -8.9021 5.5667 0.0 0
M  V30 28 O -7.5985 6.2831 0.0 0
M  V30 29 O -10.2292 4.8738 0.0 0
M  V30 30 N -9.6185 6.8938 0.0 0
M  V30 END ATOM
M  V30 BEGIN BOND
M  V30 1 1 1 2
M  V30 2 2 2 3
M  V30 3 1 2 4
M  V30 4 1 3 5
M  V30 5 1 3 6
M  V30 6 2 4 7
M  V30 7 2 5 8
M  V30 8 1 6 9
M  V30 9 1 8 10
M  V30 10 2 9 11
M  V30 11 1 9 12
M  V30 12 1 10 13
M  V30 13 1 11 14
M  V30 14 1 11 15
M  V30 15 2 12 16
M  V30 16 2 13 17
M  V30 17 1 13 18
M  V30 18 1 14 19
M  V30 19 2 14 20
M  V30 20 2 15 21
M  V30 21 1 15 22
M  V30 22 1 17 23
M  V30 23 1 17 24
M  V30 24 2 18 25
M  V30 25 2 23 26
M  V30 26 1 26 27
M  V30 27 2 27 28
M  V30 28 2 27 29
M  V30 29 1 27 30
M  V30 30 1 7 8
M  V30 31 1 16 20
M  V30 32 1 25 26
M  V30 END BOND
M  V30 END CTAB
M  END
>  <Compound ID>
130

>  <Name>
TMX-3010

>  <Uniprot>
Q00534

>  <Target>
CDK6

>  <Smiles>
CC1=CC(S(N)(=O)=O)=CC=C1NC1=NC=C(Br)C(NC2=CC=CC(F)=C2C(N)=O)=N1

>  <Kd (nM)>


>  <Assay (Kd)>


>  <Ki (nM)>


>  <Assay (Ki)>


>  <IC50 (nM)>
84.1

>  <Assay (IC50)>
IC50 of CDK6/cyclin D1 was tested by the Adapta assays

>  <EC50 (nM)>


>  <Assay (EC50)>


>  <Article DOI>
10.1002/anie.202004087

>  <Molecular Weight>
495.334

>  <Exact Mass>
494.017199692

>  <XLogP3>
3.1

>  <Heavy Atom Count>
30

>  <Ring Count>
3

>  <Hydrogen Bond Acceptor Count>
7

>  <Hydrogen Bond Donor Count>
4

>  <Rotatable Bond Count>
6

>  <Topological Polar Surface Area>
153.09

>  <Molecular Formula>
C18H16BrFN6O3S

>  <InChI>
InChI=1S/C18H16BrFN6O3S/c1-9-7-10(30(22,28)29)5-6-13(9)25-18-23-8-11(19)17(26-18)24-14-4-2-3-12(20)15(14)16(21)27/h2-8H,1H3,(H2,21,27)(H2,22,28,29)(H2,23,24,25,26)

>  <InChI Key>
HRRALCQGXWYWOS-UHFFFAOYSA-N

>  <BindingDB>


>  <PubChem>


>  <ChEMBL>


$$$$
Compound 413
Actelion Java MolfileCreator 2.0

  0  0  0  0  0  0              0 V3000
M  V30 BEGIN CTAB
M  V30 COUNTS 30 32 0 0 0
M  V30 BEGIN ATOM
M  V30 1 Br 0.0 0.0 0.0 0
M  V30 2 C -1.5032 0.0587 0.0 0
M  V30 3 C -2.2196 1.3858 0.0 0
M  V30 4 C -2.3018 -1.1979 0.0 0
M  V30 5 N -3.7229 1.4445 0.0 0
M  V30 6 N -1.4445 2.6659 0.0 0
M  V30 7 N -3.8051 -1.1391 0.0 0
M  V30 8 C -4.5215 0.1879 0.0 0
M  V30 9 C -2.1609 3.993 0.0 0
M  V30 10 N -6.0248 0.2466 0.0 0
M  V30 11 C -1.3858 5.2731 0.0 0
M  V30 12 C -3.6642 4.0517 0.0 0
M  V30 13 C -6.7412 1.5737 0.0 0
M  V30 14 C -2.1022 6.6002 0.0 0
M  V30 15 C 0.0939 5.2379 0.0 0
M  V30 16 C -4.3806 5.3788 0.0 0
M  V30 17 C -8.2444 1.6324 0.0 0
M  V30 18 C -5.966 2.8538 0.0 0
M  V30 19 F -1.3271 7.8804 0.0 0
M  V30 20 C -3.6054 6.659 0.0 0
M  V30 21 O 0.7868 3.9343 0.0 0
M  V30 22 N 0.869 6.518 0.0 0
M  V30 23 C -8.9608 2.9595 0.0 0
M  V30 24 C -9.043 0.3758 0.0 0
M  V30 25 C -6.6824 4.1809 0.0 0
M  V30 26 C -8.1857 4.2396 0.0 0
M  V30 27 S -8.9021 5.5667 0.0 0
M  V30 28 O -7.5985 6.2831 0.0 0
M  V30 29 O -10.2292 4.8738 0.0 0
M  V30 30 N -9.6185 6.8938 0.0 0
M  V30 END ATOM
M  V30 BEGIN BOND
M  V30 1 1 1 2
M  V30 2 2 2 3
M  V30 3 1 2 4
M  V30 4 1 3 5
M  V30 5 1 3 6
M  V30 6 2 4 7
M  V30 7 2 5 8
M  V30 8 1 6 9
M  V30 9 1 8 10
M  V30 10 2 9 11
M  V30 11 1 9 12
M  V30 12 1 10 13
M  V30 13 1 11 14
M  V30 14 1 11 15
M  V30 15 2 12 16
M  V30 16 2 13 17
M  V30 17 1 13 18
M  V30 18 1 14 19
M  V30 19 2 14 20
M  V30 20 2 15 21
M  V30 21 1 15 22
M  V30 22 1 17 23
M  V30 23 1 17 24
M  V30 24 2 18 25
M  V30 25 2 23 26
M  V30 26 1 26 27
M  V30 27 2 27 28
M  V30 28 2 27 29
M  V30 29 1 27 30
M  V30 30 1 7 8
M  V30 31 1 16 20
M  V30 32 1 25 26
M  V30 END BOND
M  V30 END CTAB
M  END
>  <Compound ID>
130

>  <Name>
TMX-3010

>  <Uniprot>
P50613

>  <Target>
CDK7

>  <Smiles>
CC1=CC(S(N)(=O)=O)=CC=C1NC1=NC=C(Br)C(NC2=CC=CC(F)=C2C(N)=O)=N1

>  <Kd (nM)>


>  <Assay (Kd)>


>  <Ki (nM)>


>  <Assay (Ki)>


>  <IC50 (nM)>
94.5

>  <Assay (IC50)>
IC50 of CDK7/cyclin H was tested by the Adapta assays

>  <EC50 (nM)>


>  <Assay (EC50)>


>  <Article DOI>
10.1002/anie.202004087

>  <Molecular Weight>
495.334

>  <Exact Mass>
494.017199692

>  <XLogP3>
3.1

>  <Heavy Atom Count>
30

>  <Ring Count>
3

>  <Hydrogen Bond Acceptor Count>
7

>  <Hydrogen Bond Donor Count>
4

>  <Rotatable Bond Count>
6

>  <Topological Polar Surface Area>
153.09

>  <Molecular Formula>
C18H16BrFN6O3S

>  <InChI>
InChI=1S/C18H16BrFN6O3S/c1-9-7-10(30(22,28)29)5-6-13(9)25-18-23-8-11(19)17(26-18)24-14-4-2-3-12(20)15(14)16(21)27/h2-8H,1H3,(H2,21,27)(H2,22,28,29)(H2,23,24,25,26)

>  <InChI Key>
HRRALCQGXWYWOS-UHFFFAOYSA-N

>  <BindingDB>


>  <PubChem>


>  <ChEMBL>


$$$$
Compound 414
Actelion Java MolfileCreator 2.0

  0  0  0  0  0  0              0 V3000
M  V30 BEGIN CTAB
M  V30 COUNTS 30 32 0 0 0
M  V30 BEGIN ATOM
M  V30 1 Br 0.0 0.0 0.0 0
M  V30 2 C -1.5032 0.0587 0.0 0
M  V30 3 C -2.2196 1.3858 0.0 0
M  V30 4 C -2.3018 -1.1979 0.0 0
M  V30 5 N -3.7229 1.4445 0.0 0
M  V30 6 N -1.4445 2.6659 0.0 0
M  V30 7 N -3.8051 -1.1391 0.0 0
M  V30 8 C -4.5215 0.1879 0.0 0
M  V30 9 C -2.1609 3.993 0.0 0
M  V30 10 N -6.0248 0.2466 0.0 0
M  V30 11 C -1.3858 5.2731 0.0 0
M  V30 12 C -3.6642 4.0517 0.0 0
M  V30 13 C -6.7412 1.5737 0.0 0
M  V30 14 C -2.1022 6.6002 0.0 0
M  V30 15 C 0.0939 5.2379 0.0 0
M  V30 16 C -4.3806 5.3788 0.0 0
M  V30 17 C -8.2444 1.6324 0.0 0
M  V30 18 C -5.966 2.8538 0.0 0
M  V30 19 F -1.3271 7.8804 0.0 0
M  V30 20 C -3.6054 6.659 0.0 0
M  V30 21 O 0.7868 3.9343 0.0 0
M  V30 22 N 0.869 6.518 0.0 0
M  V30 23 C -8.9608 2.9595 0.0 0
M  V30 24 C -9.043 0.3758 0.0 0
M  V30 25 C -6.6824 4.1809 0.0 0
M  V30 26 C -8.1857 4.2396 0.0 0
M  V30 27 S -8.9021 5.5667 0.0 0
M  V30 28 O -7.5985 6.2831 0.0 0
M  V30 29 O -10.2292 4.8738 0.0 0
M  V30 30 N -9.6185 6.8938 0.0 0
M  V30 END ATOM
M  V30 BEGIN BOND
M  V30 1 1 1 2
M  V30 2 2 2 3
M  V30 3 1 2 4
M  V30 4 1 3 5
M  V30 5 1 3 6
M  V30 6 2 4 7
M  V30 7 2 5 8
M  V30 8 1 6 9
M  V30 9 1 8 10
M  V30 10 2 9 11
M  V30 11 1 9 12
M  V30 12 1 10 13
M  V30 13 1 11 14
M  V30 14 1 11 15
M  V30 15 2 12 16
M  V30 16 2 13 17
M  V30 17 1 13 18
M  V30 18 1 14 19
M  V30 19 2 14 20
M  V30 20 2 15 21
M  V30 21 1 15 22
M  V30 22 1 17 23
M  V30 23 1 17 24
M  V30 24 2 18 25
M  V30 25 2 23 26
M  V30 26 1 26 27
M  V30 27 2 27 28
M  V30 28 2 27 29
M  V30 29 1 27 30
M  V30 30 1 7 8
M  V30 31 1 16 20
M  V30 32 1 25 26
M  V30 END BOND
M  V30 END CTAB
M  END
>  <Compound ID>
130

>  <Name>
TMX-3010

>  <Uniprot>
P50750

>  <Target>
CDK9

>  <Smiles>
CC1=CC(S(N)(=O)=O)=CC=C1NC1=NC=C(Br)C(NC2=CC=CC(F)=C2C(N)=O)=N1

>  <Kd (nM)>


>  <Assay (Kd)>


>  <Ki (nM)>


>  <Assay (Ki)>


>  <IC50 (nM)>
106

>  <Assay (IC50)>
IC50 of CDK9/cyclin T1 was tested by the Adapta assays

>  <EC50 (nM)>


>  <Assay (EC50)>


>  <Article DOI>
10.1002/anie.202004087

>  <Molecular Weight>
495.334

>  <Exact Mass>
494.017199692

>  <XLogP3>
3.1

>  <Heavy Atom Count>
30

>  <Ring Count>
3

>  <Hydrogen Bond Acceptor Count>
7

>  <Hydrogen Bond Donor Count>
4

>  <Rotatable Bond Count>
6

>  <Topological Polar Surface Area>
153.09

>  <Molecular Formula>
C18H16BrFN6O3S

>  <InChI>
InChI=1S/C18H16BrFN6O3S/c1-9-7-10(30(22,28)29)5-6-13(9)25-18-23-8-11(19)17(26-18)24-14-4-2-3-12(20)15(14)16(21)27/h2-8H,1H3,(H2,21,27)(H2,22,28,29)(H2,23,24,25,26)

>  <InChI Key>
HRRALCQGXWYWOS-UHFFFAOYSA-N

>  <BindingDB>


>  <PubChem>


>  <ChEMBL>


$$$$
Compound 415
Actelion Java MolfileCreator 2.0

  0  0  0  0  0  0              0 V3000
M  V30 BEGIN CTAB
M  V30 COUNTS 30 32 0 0 0
M  V30 BEGIN ATOM
M  V30 1 Br 0.0 0.0 0.0 0
M  V30 2 C -1.5032 0.0587 0.0 0
M  V30 3 C -2.2196 1.3858 0.0 0
M  V30 4 C -2.3018 -1.1979 0.0 0
M  V30 5 N -3.7229 1.4445 0.0 0
M  V30 6 N -1.4445 2.6659 0.0 0
M  V30 7 N -3.8051 -1.1391 0.0 0
M  V30 8 C -4.5215 0.1879 0.0 0
M  V30 9 C -2.1609 3.993 0.0 0
M  V30 10 N -6.0248 0.2466 0.0 0
M  V30 11 C -1.3858 5.2731 0.0 0
M  V30 12 C -3.6642 4.0517 0.0 0
M  V30 13 C -6.7412 1.5737 0.0 0
M  V30 14 C -2.1022 6.6002 0.0 0
M  V30 15 C 0.0939 5.2379 0.0 0
M  V30 16 C -4.3806 5.3788 0.0 0
M  V30 17 C -8.2444 1.6324 0.0 0
M  V30 18 C -5.966 2.8538 0.0 0
M  V30 19 F -1.3271 7.8804 0.0 0
M  V30 20 C -3.6054 6.659 0.0 0
M  V30 21 O 0.7868 3.9343 0.0 0
M  V30 22 N 0.869 6.518 0.0 0
M  V30 23 C -8.9608 2.9595 0.0 0
M  V30 24 C -9.043 0.3758 0.0 0
M  V30 25 C -6.6824 4.1809 0.0 0
M  V30 26 C -8.1857 4.2396 0.0 0
M  V30 27 S -8.9021 5.5667 0.0 0
M  V30 28 O -7.5985 6.2831 0.0 0
M  V30 29 O -10.2292 4.8738 0.0 0
M  V30 30 N -9.6185 6.8938 0.0 0
M  V30 END ATOM
M  V30 BEGIN BOND
M  V30 1 1 1 2
M  V30 2 2 2 3
M  V30 3 1 2 4
M  V30 4 1 3 5
M  V30 5 1 3 6
M  V30 6 2 4 7
M  V30 7 2 5 8
M  V30 8 1 6 9
M  V30 9 1 8 10
M  V30 10 2 9 11
M  V30 11 1 9 12
M  V30 12 1 10 13
M  V30 13 1 11 14
M  V30 14 1 11 15
M  V30 15 2 12 16
M  V30 16 2 13 17
M  V30 17 1 13 18
M  V30 18 1 14 19
M  V30 19 2 14 20
M  V30 20 2 15 21
M  V30 21 1 15 22
M  V30 22 1 17 23
M  V30 23 1 17 24
M  V30 24 2 18 25
M  V30 25 2 23 26
M  V30 26 1 26 27
M  V30 27 2 27 28
M  V30 28 2 27 29
M  V30 29 1 27 30
M  V30 30 1 7 8
M  V30 31 1 16 20
M  V30 32 1 25 26
M  V30 END BOND
M  V30 END CTAB
M  END
>  <Compound ID>
130

>  <Name>
TMX-3010

>  <Uniprot>
Q05397

>  <Target>
FAK

>  <Smiles>
CC1=CC(S(N)(=O)=O)=CC=C1NC1=NC=C(Br)C(NC2=CC=CC(F)=C2C(N)=O)=N1

>  <Kd (nM)>


>  <Assay (Kd)>


>  <Ki (nM)>


>  <Assay (Ki)>


>  <IC50 (nM)>


>  <Assay (IC50)>


>  <EC50 (nM)>


>  <Assay (EC50)>


>  <Article DOI>
10.1016/j.cell.2020.10.038

>  <Molecular Weight>
495.334

>  <Exact Mass>
494.017199692

>  <XLogP3>
3.1

>  <Heavy Atom Count>
30

>  <Ring Count>
3

>  <Hydrogen Bond Acceptor Count>
7

>  <Hydrogen Bond Donor Count>
4

>  <Rotatable Bond Count>
6

>  <Topological Polar Surface Area>
153.09

>  <Molecular Formula>
C18H16BrFN6O3S

>  <InChI>
InChI=1S/C18H16BrFN6O3S/c1-9-7-10(30(22,28)29)5-6-13(9)25-18-23-8-11(19)17(26-18)24-14-4-2-3-12(20)15(14)16(21)27/h2-8H,1H3,(H2,21,27)(H2,22,28,29)(H2,23,24,25,26)

>  <InChI Key>
HRRALCQGXWYWOS-UHFFFAOYSA-N

>  <BindingDB>


>  <PubChem>


>  <ChEMBL>


$$$$
Compound 416
Actelion Java MolfileCreator 2.0

  0  0  0  0  0  0              0 V3000
M  V30 BEGIN CTAB
M  V30 COUNTS 30 32 0 0 0
M  V30 BEGIN ATOM
M  V30 1 Br 0.0 0.0 0.0 0
M  V30 2 C -1.5032 0.0587 0.0 0
M  V30 3 C -2.2196 1.3858 0.0 0
M  V30 4 C -2.3018 -1.1979 0.0 0
M  V30 5 N -3.7229 1.4445 0.0 0
M  V30 6 N -1.4445 2.6659 0.0 0
M  V30 7 N -3.8051 -1.1391 0.0 0
M  V30 8 C -4.5215 0.1879 0.0 0
M  V30 9 C -2.1609 3.993 0.0 0
M  V30 10 N -6.0248 0.2466 0.0 0
M  V30 11 C -1.3858 5.2731 0.0 0
M  V30 12 C -3.6642 4.0517 0.0 0
M  V30 13 C -6.7412 1.5737 0.0 0
M  V30 14 C -2.1022 6.6002 0.0 0
M  V30 15 C 0.0939 5.2379 0.0 0
M  V30 16 C -4.3806 5.3788 0.0 0
M  V30 17 C -8.2444 1.6324 0.0 0
M  V30 18 C -5.966 2.8538 0.0 0
M  V30 19 F -1.3271 7.8804 0.0 0
M  V30 20 C -3.6054 6.659 0.0 0
M  V30 21 O 0.7868 3.9343 0.0 0
M  V30 22 N 0.869 6.518 0.0 0
M  V30 23 C -8.9608 2.9595 0.0 0
M  V30 24 C -9.043 0.3758 0.0 0
M  V30 25 C -6.6824 4.1809 0.0 0
M  V30 26 C -8.1857 4.2396 0.0 0
M  V30 27 S -8.9021 5.5667 0.0 0
M  V30 28 O -7.5985 6.2831 0.0 0
M  V30 29 O -10.2292 4.8738 0.0 0
M  V30 30 N -9.6185 6.8938 0.0 0
M  V30 END ATOM
M  V30 BEGIN BOND
M  V30 1 1 1 2
M  V30 2 2 2 3
M  V30 3 1 2 4
M  V30 4 1 3 5
M  V30 5 1 3 6
M  V30 6 2 4 7
M  V30 7 2 5 8
M  V30 8 1 6 9
M  V30 9 1 8 10
M  V30 10 2 9 11
M  V30 11 1 9 12
M  V30 12 1 10 13
M  V30 13 1 11 14
M  V30 14 1 11 15
M  V30 15 2 12 16
M  V30 16 2 13 17
M  V30 17 1 13 18
M  V30 18 1 14 19
M  V30 19 2 14 20
M  V30 20 2 15 21
M  V30 21 1 15 22
M  V30 22 1 17 23
M  V30 23 1 17 24
M  V30 24 2 18 25
M  V30 25 2 23 26
M  V30 26 1 26 27
M  V30 27 2 27 28
M  V30 28 2 27 29
M  V30 29 1 27 30
M  V30 30 1 7 8
M  V30 31 1 16 20
M  V30 32 1 25 26
M  V30 END BOND
M  V30 END CTAB
M  END
>  <Compound ID>
130

>  <Name>
TMX-3010

>  <Uniprot>
P45983

>  <Target>
MAPK8

>  <Smiles>
CC1=CC(S(N)(=O)=O)=CC=C1NC1=NC=C(Br)C(NC2=CC=CC(F)=C2C(N)=O)=N1

>  <Kd (nM)>


>  <Assay (Kd)>


>  <Ki (nM)>


>  <Assay (Ki)>


>  <IC50 (nM)>


>  <Assay (IC50)>


>  <EC50 (nM)>


>  <Assay (EC50)>


>  <Article DOI>
10.1016/j.cell.2020.10.038

>  <Molecular Weight>
495.334

>  <Exact Mass>
494.017199692

>  <XLogP3>
3.1

>  <Heavy Atom Count>
30

>  <Ring Count>
3

>  <Hydrogen Bond Acceptor Count>
7

>  <Hydrogen Bond Donor Count>
4

>  <Rotatable Bond Count>
6

>  <Topological Polar Surface Area>
153.09

>  <Molecular Formula>
C18H16BrFN6O3S

>  <InChI>
InChI=1S/C18H16BrFN6O3S/c1-9-7-10(30(22,28)29)5-6-13(9)25-18-23-8-11(19)17(26-18)24-14-4-2-3-12(20)15(14)16(21)27/h2-8H,1H3,(H2,21,27)(H2,22,28,29)(H2,23,24,25,26)

>  <InChI Key>
HRRALCQGXWYWOS-UHFFFAOYSA-N

>  <BindingDB>


>  <PubChem>


>  <ChEMBL>


$$$$
Compound 417
Actelion Java MolfileCreator 2.0

  0  0  0  0  0  0              0 V3000
M  V30 BEGIN CTAB
M  V30 COUNTS 30 32 0 0 0
M  V30 BEGIN ATOM
M  V30 1 Br 0.0 0.0 0.0 0
M  V30 2 C -1.5032 0.0587 0.0 0
M  V30 3 C -2.2196 1.3858 0.0 0
M  V30 4 C -2.3018 -1.1979 0.0 0
M  V30 5 N -3.7229 1.4445 0.0 0
M  V30 6 N -1.4445 2.6659 0.0 0
M  V30 7 N -3.8051 -1.1391 0.0 0
M  V30 8 C -4.5215 0.1879 0.0 0
M  V30 9 C -2.1609 3.993 0.0 0
M  V30 10 N -6.0248 0.2466 0.0 0
M  V30 11 C -1.3858 5.2731 0.0 0
M  V30 12 C -3.6642 4.0517 0.0 0
M  V30 13 C -6.7412 1.5737 0.0 0
M  V30 14 C -2.1022 6.6002 0.0 0
M  V30 15 C 0.0939 5.2379 0.0 0
M  V30 16 C -4.3806 5.3788 0.0 0
M  V30 17 C -8.2444 1.6324 0.0 0
M  V30 18 C -5.966 2.8538 0.0 0
M  V30 19 F -1.3271 7.8804 0.0 0
M  V30 20 C -3.6054 6.659 0.0 0
M  V30 21 O 0.7868 3.9343 0.0 0
M  V30 22 N 0.869 6.518 0.0 0
M  V30 23 C -8.9608 2.9595 0.0 0
M  V30 24 C -9.043 0.3758 0.0 0
M  V30 25 C -6.6824 4.1809 0.0 0
M  V30 26 C -8.1857 4.2396 0.0 0
M  V30 27 S -8.9021 5.5667 0.0 0
M  V30 28 O -7.5985 6.2831 0.0 0
M  V30 29 O -10.2292 4.8738 0.0 0
M  V30 30 N -9.6185 6.8938 0.0 0
M  V30 END ATOM
M  V30 BEGIN BOND
M  V30 1 1 1 2
M  V30 2 2 2 3
M  V30 3 1 2 4
M  V30 4 1 3 5
M  V30 5 1 3 6
M  V30 6 2 4 7
M  V30 7 2 5 8
M  V30 8 1 6 9
M  V30 9 1 8 10
M  V30 10 2 9 11
M  V30 11 1 9 12
M  V30 12 1 10 13
M  V30 13 1 11 14
M  V30 14 1 11 15
M  V30 15 2 12 16
M  V30 16 2 13 17
M  V30 17 1 13 18
M  V30 18 1 14 19
M  V30 19 2 14 20
M  V30 20 2 15 21
M  V30 21 1 15 22
M  V30 22 1 17 23
M  V30 23 1 17 24
M  V30 24 2 18 25
M  V30 25 2 23 26
M  V30 26 1 26 27
M  V30 27 2 27 28
M  V30 28 2 27 29
M  V30 29 1 27 30
M  V30 30 1 7 8
M  V30 31 1 16 20
M  V30 32 1 25 26
M  V30 END BOND
M  V30 END CTAB
M  END
>  <Compound ID>
130

>  <Name>
TMX-3010

>  <Uniprot>
P45984

>  <Target>
MAPK9

>  <Smiles>
CC1=CC(S(N)(=O)=O)=CC=C1NC1=NC=C(Br)C(NC2=CC=CC(F)=C2C(N)=O)=N1

>  <Kd (nM)>


>  <Assay (Kd)>


>  <Ki (nM)>


>  <Assay (Ki)>


>  <IC50 (nM)>


>  <Assay (IC50)>


>  <EC50 (nM)>


>  <Assay (EC50)>


>  <Article DOI>
10.1016/j.cell.2020.10.038

>  <Molecular Weight>
495.334

>  <Exact Mass>
494.017199692

>  <XLogP3>
3.1

>  <Heavy Atom Count>
30

>  <Ring Count>
3

>  <Hydrogen Bond Acceptor Count>
7

>  <Hydrogen Bond Donor Count>
4

>  <Rotatable Bond Count>
6

>  <Topological Polar Surface Area>
153.09

>  <Molecular Formula>
C18H16BrFN6O3S

>  <InChI>
InChI=1S/C18H16BrFN6O3S/c1-9-7-10(30(22,28)29)5-6-13(9)25-18-23-8-11(19)17(26-18)24-14-4-2-3-12(20)15(14)16(21)27/h2-8H,1H3,(H2,21,27)(H2,22,28,29)(H2,23,24,25,26)

>  <InChI Key>
HRRALCQGXWYWOS-UHFFFAOYSA-N

>  <BindingDB>


>  <PubChem>


>  <ChEMBL>


$$$$
Compound 418
Actelion Java MolfileCreator 2.0

  0  0  0  0  0  0              0 V3000
M  V30 BEGIN CTAB
M  V30 COUNTS 30 32 0 0 0
M  V30 BEGIN ATOM
M  V30 1 Br 0.0 0.0 0.0 0
M  V30 2 C -1.5032 0.0587 0.0 0
M  V30 3 C -2.2196 1.3858 0.0 0
M  V30 4 C -2.3018 -1.1979 0.0 0
M  V30 5 N -3.7229 1.4445 0.0 0
M  V30 6 N -1.4445 2.6659 0.0 0
M  V30 7 N -3.8051 -1.1391 0.0 0
M  V30 8 C -4.5215 0.1879 0.0 0
M  V30 9 C -2.1609 3.993 0.0 0
M  V30 10 N -6.0248 0.2466 0.0 0
M  V30 11 C -1.3858 5.2731 0.0 0
M  V30 12 C -3.6642 4.0517 0.0 0
M  V30 13 C -6.7412 1.5737 0.0 0
M  V30 14 C -2.1022 6.6002 0.0 0
M  V30 15 C 0.0939 5.2379 0.0 0
M  V30 16 C -4.3806 5.3788 0.0 0
M  V30 17 C -8.2444 1.6324 0.0 0
M  V30 18 C -5.966 2.8538 0.0 0
M  V30 19 F -1.3271 7.8804 0.0 0
M  V30 20 C -3.6054 6.659 0.0 0
M  V30 21 O 0.7868 3.9343 0.0 0
M  V30 22 N 0.869 6.518 0.0 0
M  V30 23 C -8.9608 2.9595 0.0 0
M  V30 24 C -9.043 0.3758 0.0 0
M  V30 25 C -6.6824 4.1809 0.0 0
M  V30 26 C -8.1857 4.2396 0.0 0
M  V30 27 S -8.9021 5.5667 0.0 0
M  V30 28 O -7.5985 6.2831 0.0 0
M  V30 29 O -10.2292 4.8738 0.0 0
M  V30 30 N -9.6185 6.8938 0.0 0
M  V30 END ATOM
M  V30 BEGIN BOND
M  V30 1 1 1 2
M  V30 2 2 2 3
M  V30 3 1 2 4
M  V30 4 1 3 5
M  V30 5 1 3 6
M  V30 6 2 4 7
M  V30 7 2 5 8
M  V30 8 1 6 9
M  V30 9 1 8 10
M  V30 10 2 9 11
M  V30 11 1 9 12
M  V30 12 1 10 13
M  V30 13 1 11 14
M  V30 14 1 11 15
M  V30 15 2 12 16
M  V30 16 2 13 17
M  V30 17 1 13 18
M  V30 18 1 14 19
M  V30 19 2 14 20
M  V30 20 2 15 21
M  V30 21 1 15 22
M  V30 22 1 17 23
M  V30 23 1 17 24
M  V30 24 2 18 25
M  V30 25 2 23 26
M  V30 26 1 26 27
M  V30 27 2 27 28
M  V30 28 2 27 29
M  V30 29 1 27 30
M  V30 30 1 7 8
M  V30 31 1 16 20
M  V30 32 1 25 26
M  V30 END BOND
M  V30 END CTAB
M  END
>  <Compound ID>
130

>  <Name>
TMX-3010

>  <Uniprot>
Q15418

>  <Target>
RPS6KA1

>  <Smiles>
CC1=CC(S(N)(=O)=O)=CC=C1NC1=NC=C(Br)C(NC2=CC=CC(F)=C2C(N)=O)=N1

>  <Kd (nM)>


>  <Assay (Kd)>


>  <Ki (nM)>


>  <Assay (Ki)>


>  <IC50 (nM)>


>  <Assay (IC50)>


>  <EC50 (nM)>


>  <Assay (EC50)>


>  <Article DOI>
10.1016/j.cell.2020.10.038

>  <Molecular Weight>
495.334

>  <Exact Mass>
494.017199692

>  <XLogP3>
3.1

>  <Heavy Atom Count>
30

>  <Ring Count>
3

>  <Hydrogen Bond Acceptor Count>
7

>  <Hydrogen Bond Donor Count>
4

>  <Rotatable Bond Count>
6

>  <Topological Polar Surface Area>
153.09

>  <Molecular Formula>
C18H16BrFN6O3S

>  <InChI>
InChI=1S/C18H16BrFN6O3S/c1-9-7-10(30(22,28)29)5-6-13(9)25-18-23-8-11(19)17(26-18)24-14-4-2-3-12(20)15(14)16(21)27/h2-8H,1H3,(H2,21,27)(H2,22,28,29)(H2,23,24,25,26)

>  <InChI Key>
HRRALCQGXWYWOS-UHFFFAOYSA-N

>  <BindingDB>


>  <PubChem>


>  <ChEMBL>


$$$$
Compound 419
Actelion Java MolfileCreator 2.0

  0  0  0  0  0  0              0 V3000
M  V30 BEGIN CTAB
M  V30 COUNTS 30 32 0 0 0
M  V30 BEGIN ATOM
M  V30 1 Br 0.0 0.0 0.0 0
M  V30 2 C -1.5032 0.0587 0.0 0
M  V30 3 C -2.2196 1.3858 0.0 0
M  V30 4 C -2.3018 -1.1979 0.0 0
M  V30 5 N -3.7229 1.4445 0.0 0
M  V30 6 N -1.4445 2.6659 0.0 0
M  V30 7 N -3.8051 -1.1391 0.0 0
M  V30 8 C -4.5215 0.1879 0.0 0
M  V30 9 C -2.1609 3.993 0.0 0
M  V30 10 N -6.0248 0.2466 0.0 0
M  V30 11 C -1.3858 5.2731 0.0 0
M  V30 12 C -3.6642 4.0517 0.0 0
M  V30 13 C -6.7412 1.5737 0.0 0
M  V30 14 C -2.1022 6.6002 0.0 0
M  V30 15 C 0.0939 5.2379 0.0 0
M  V30 16 C -4.3806 5.3788 0.0 0
M  V30 17 C -8.2444 1.6324 0.0 0
M  V30 18 C -5.966 2.8538 0.0 0
M  V30 19 F -1.3271 7.8804 0.0 0
M  V30 20 C -3.6054 6.659 0.0 0
M  V30 21 O 0.7868 3.9343 0.0 0
M  V30 22 N 0.869 6.518 0.0 0
M  V30 23 C -8.9608 2.9595 0.0 0
M  V30 24 C -9.043 0.3758 0.0 0
M  V30 25 C -6.6824 4.1809 0.0 0
M  V30 26 C -8.1857 4.2396 0.0 0
M  V30 27 S -8.9021 5.5667 0.0 0
M  V30 28 O -7.5985 6.2831 0.0 0
M  V30 29 O -10.2292 4.8738 0.0 0
M  V30 30 N -9.6185 6.8938 0.0 0
M  V30 END ATOM
M  V30 BEGIN BOND
M  V30 1 1 1 2
M  V30 2 2 2 3
M  V30 3 1 2 4
M  V30 4 1 3 5
M  V30 5 1 3 6
M  V30 6 2 4 7
M  V30 7 2 5 8
M  V30 8 1 6 9
M  V30 9 1 8 10
M  V30 10 2 9 11
M  V30 11 1 9 12
M  V30 12 1 10 13
M  V30 13 1 11 14
M  V30 14 1 11 15
M  V30 15 2 12 16
M  V30 16 2 13 17
M  V30 17 1 13 18
M  V30 18 1 14 19
M  V30 19 2 14 20
M  V30 20 2 15 21
M  V30 21 1 15 22
M  V30 22 1 17 23
M  V30 23 1 17 24
M  V30 24 2 18 25
M  V30 25 2 23 26
M  V30 26 1 26 27
M  V30 27 2 27 28
M  V30 28 2 27 29
M  V30 29 1 27 30
M  V30 30 1 7 8
M  V30 31 1 16 20
M  V30 32 1 25 26
M  V30 END BOND
M  V30 END CTAB
M  END
>  <Compound ID>
130

>  <Name>
TMX-3010

>  <Uniprot>
P51812

>  <Target>
RPS6KA3

>  <Smiles>
CC1=CC(S(N)(=O)=O)=CC=C1NC1=NC=C(Br)C(NC2=CC=CC(F)=C2C(N)=O)=N1

>  <Kd (nM)>


>  <Assay (Kd)>


>  <Ki (nM)>


>  <Assay (Ki)>


>  <IC50 (nM)>


>  <Assay (IC50)>


>  <EC50 (nM)>


>  <Assay (EC50)>


>  <Article DOI>
10.1016/j.cell.2020.10.038

>  <Molecular Weight>
495.334

>  <Exact Mass>
494.017199692

>  <XLogP3>
3.1

>  <Heavy Atom Count>
30

>  <Ring Count>
3

>  <Hydrogen Bond Acceptor Count>
7

>  <Hydrogen Bond Donor Count>
4

>  <Rotatable Bond Count>
6

>  <Topological Polar Surface Area>
153.09

>  <Molecular Formula>
C18H16BrFN6O3S

>  <InChI>
InChI=1S/C18H16BrFN6O3S/c1-9-7-10(30(22,28)29)5-6-13(9)25-18-23-8-11(19)17(26-18)24-14-4-2-3-12(20)15(14)16(21)27/h2-8H,1H3,(H2,21,27)(H2,22,28,29)(H2,23,24,25,26)

>  <InChI Key>
HRRALCQGXWYWOS-UHFFFAOYSA-N

>  <BindingDB>


>  <PubChem>


>  <ChEMBL>


$$$$
Compound 420
Actelion Java MolfileCreator 2.0

  0  0  0  0  0  0              0 V3000
M  V30 BEGIN CTAB
M  V30 COUNTS 30 32 0 0 0
M  V30 BEGIN ATOM
M  V30 1 Br 0.0 0.0 0.0 0
M  V30 2 C -1.5032 0.0587 0.0 0
M  V30 3 C -2.2196 1.3858 0.0 0
M  V30 4 C -2.3018 -1.1979 0.0 0
M  V30 5 N -3.7229 1.4445 0.0 0
M  V30 6 N -1.4445 2.6659 0.0 0
M  V30 7 N -3.8051 -1.1391 0.0 0
M  V30 8 C -4.5215 0.1879 0.0 0
M  V30 9 C -2.1609 3.993 0.0 0
M  V30 10 N -6.0248 0.2466 0.0 0
M  V30 11 C -1.3858 5.2731 0.0 0
M  V30 12 C -3.6642 4.0517 0.0 0
M  V30 13 C -6.7412 1.5737 0.0 0
M  V30 14 C -2.1022 6.6002 0.0 0
M  V30 15 C 0.0939 5.2379 0.0 0
M  V30 16 C -4.3806 5.3788 0.0 0
M  V30 17 C -8.2444 1.6324 0.0 0
M  V30 18 C -5.966 2.8538 0.0 0
M  V30 19 F -1.3271 7.8804 0.0 0
M  V30 20 C -3.6054 6.659 0.0 0
M  V30 21 O 0.7868 3.9343 0.0 0
M  V30 22 N 0.869 6.518 0.0 0
M  V30 23 C -8.9608 2.9595 0.0 0
M  V30 24 C -9.043 0.3758 0.0 0
M  V30 25 C -6.6824 4.1809 0.0 0
M  V30 26 C -8.1857 4.2396 0.0 0
M  V30 27 S -8.9021 5.5667 0.0 0
M  V30 28 O -7.5985 6.2831 0.0 0
M  V30 29 O -10.2292 4.8738 0.0 0
M  V30 30 N -9.6185 6.8938 0.0 0
M  V30 END ATOM
M  V30 BEGIN BOND
M  V30 1 1 1 2
M  V30 2 2 2 3
M  V30 3 1 2 4
M  V30 4 1 3 5
M  V30 5 1 3 6
M  V30 6 2 4 7
M  V30 7 2 5 8
M  V30 8 1 6 9
M  V30 9 1 8 10
M  V30 10 2 9 11
M  V30 11 1 9 12
M  V30 12 1 10 13
M  V30 13 1 11 14
M  V30 14 1 11 15
M  V30 15 2 12 16
M  V30 16 2 13 17
M  V30 17 1 13 18
M  V30 18 1 14 19
M  V30 19 2 14 20
M  V30 20 2 15 21
M  V30 21 1 15 22
M  V30 22 1 17 23
M  V30 23 1 17 24
M  V30 24 2 18 25
M  V30 25 2 23 26
M  V30 26 1 26 27
M  V30 27 2 27 28
M  V30 28 2 27 29
M  V30 29 1 27 30
M  V30 30 1 7 8
M  V30 31 1 16 20
M  V30 32 1 25 26
M  V30 END BOND
M  V30 END CTAB
M  END
>  <Compound ID>
130

>  <Name>
TMX-3010

>  <Uniprot>
Q9BYT3

>  <Target>
STK33

>  <Smiles>
CC1=CC(S(N)(=O)=O)=CC=C1NC1=NC=C(Br)C(NC2=CC=CC(F)=C2C(N)=O)=N1

>  <Kd (nM)>


>  <Assay (Kd)>


>  <Ki (nM)>


>  <Assay (Ki)>


>  <IC50 (nM)>


>  <Assay (IC50)>


>  <EC50 (nM)>


>  <Assay (EC50)>


>  <Article DOI>
10.1016/j.cell.2020.10.038

>  <Molecular Weight>
495.334

>  <Exact Mass>
494.017199692

>  <XLogP3>
3.1

>  <Heavy Atom Count>
30

>  <Ring Count>
3

>  <Hydrogen Bond Acceptor Count>
7

>  <Hydrogen Bond Donor Count>
4

>  <Rotatable Bond Count>
6

>  <Topological Polar Surface Area>
153.09

>  <Molecular Formula>
C18H16BrFN6O3S

>  <InChI>
InChI=1S/C18H16BrFN6O3S/c1-9-7-10(30(22,28)29)5-6-13(9)25-18-23-8-11(19)17(26-18)24-14-4-2-3-12(20)15(14)16(21)27/h2-8H,1H3,(H2,21,27)(H2,22,28,29)(H2,23,24,25,26)

>  <InChI Key>
HRRALCQGXWYWOS-UHFFFAOYSA-N

>  <BindingDB>


>  <PubChem>


>  <ChEMBL>


$$$$
Compound 421
Actelion Java MolfileCreator 2.0

  0  0  0  0  0  0              0 V3000
M  V30 BEGIN CTAB
M  V30 COUNTS 30 32 0 0 0
M  V30 BEGIN ATOM
M  V30 1 Br 0.0 0.0 0.0 0
M  V30 2 C -1.5032 0.0587 0.0 0
M  V30 3 C -2.2196 1.3858 0.0 0
M  V30 4 C -2.3018 -1.1979 0.0 0
M  V30 5 N -3.7229 1.4445 0.0 0
M  V30 6 N -1.4445 2.6659 0.0 0
M  V30 7 N -3.8051 -1.1391 0.0 0
M  V30 8 C -4.5215 0.1879 0.0 0
M  V30 9 C -2.1609 3.993 0.0 0
M  V30 10 N -6.0248 0.2466 0.0 0
M  V30 11 C -1.3858 5.2731 0.0 0
M  V30 12 C -3.6642 4.0517 0.0 0
M  V30 13 C -6.7412 1.5737 0.0 0
M  V30 14 C -2.1022 6.6002 0.0 0
M  V30 15 C 0.0939 5.2379 0.0 0
M  V30 16 C -4.3806 5.3788 0.0 0
M  V30 17 C -8.2444 1.6324 0.0 0
M  V30 18 C -5.966 2.8538 0.0 0
M  V30 19 F -1.3271 7.8804 0.0 0
M  V30 20 C -3.6054 6.659 0.0 0
M  V30 21 O 0.7868 3.9343 0.0 0
M  V30 22 N 0.869 6.518 0.0 0
M  V30 23 C -8.9608 2.9595 0.0 0
M  V30 24 C -9.043 0.3758 0.0 0
M  V30 25 C -6.6824 4.1809 0.0 0
M  V30 26 C -8.1857 4.2396 0.0 0
M  V30 27 S -8.9021 5.5667 0.0 0
M  V30 28 O -7.5985 6.2831 0.0 0
M  V30 29 O -10.2292 4.8738 0.0 0
M  V30 30 N -9.6185 6.8938 0.0 0
M  V30 END ATOM
M  V30 BEGIN BOND
M  V30 1 1 1 2
M  V30 2 2 2 3
M  V30 3 1 2 4
M  V30 4 1 3 5
M  V30 5 1 3 6
M  V30 6 2 4 7
M  V30 7 2 5 8
M  V30 8 1 6 9
M  V30 9 1 8 10
M  V30 10 2 9 11
M  V30 11 1 9 12
M  V30 12 1 10 13
M  V30 13 1 11 14
M  V30 14 1 11 15
M  V30 15 2 12 16
M  V30 16 2 13 17
M  V30 17 1 13 18
M  V30 18 1 14 19
M  V30 19 2 14 20
M  V30 20 2 15 21
M  V30 21 1 15 22
M  V30 22 1 17 23
M  V30 23 1 17 24
M  V30 24 2 18 25
M  V30 25 2 23 26
M  V30 26 1 26 27
M  V30 27 2 27 28
M  V30 28 2 27 29
M  V30 29 1 27 30
M  V30 30 1 7 8
M  V30 31 1 16 20
M  V30 32 1 25 26
M  V30 END BOND
M  V30 END CTAB
M  END
>  <Compound ID>
130

>  <Name>
TMX-3010

>  <Uniprot>
P33981

>  <Target>
TTK

>  <Smiles>
CC1=CC(S(N)(=O)=O)=CC=C1NC1=NC=C(Br)C(NC2=CC=CC(F)=C2C(N)=O)=N1

>  <Kd (nM)>


>  <Assay (Kd)>


>  <Ki (nM)>


>  <Assay (Ki)>


>  <IC50 (nM)>


>  <Assay (IC50)>


>  <EC50 (nM)>


>  <Assay (EC50)>


>  <Article DOI>
10.1016/j.cell.2020.10.038

>  <Molecular Weight>
495.334

>  <Exact Mass>
494.017199692

>  <XLogP3>
3.1

>  <Heavy Atom Count>
30

>  <Ring Count>
3

>  <Hydrogen Bond Acceptor Count>
7

>  <Hydrogen Bond Donor Count>
4

>  <Rotatable Bond Count>
6

>  <Topological Polar Surface Area>
153.09

>  <Molecular Formula>
C18H16BrFN6O3S

>  <InChI>
InChI=1S/C18H16BrFN6O3S/c1-9-7-10(30(22,28)29)5-6-13(9)25-18-23-8-11(19)17(26-18)24-14-4-2-3-12(20)15(14)16(21)27/h2-8H,1H3,(H2,21,27)(H2,22,28,29)(H2,23,24,25,26)

>  <InChI Key>
HRRALCQGXWYWOS-UHFFFAOYSA-N

>  <BindingDB>


>  <PubChem>


>  <ChEMBL>


$$$$
Compound 422
Actelion Java MolfileCreator 2.0

  0  0  0  0  0  0              0 V3000
M  V30 BEGIN CTAB
M  V30 COUNTS 30 32 0 0 0
M  V30 BEGIN ATOM
M  V30 1 Br 0.0 0.0 0.0 0
M  V30 2 C 0.9258 -1.1719 0.0 0
M  V30 3 C 0.3632 -2.5547 0.0 0
M  V30 4 C 2.4024 -0.9375 0.0 0
M  V30 5 N 1.2891 -3.7266 0.0 0
M  V30 6 N -1.1367 -2.7657 0.0 0
M  V30 7 N 3.3282 -2.1094 0.0 0
M  V30 8 C 2.7657 -3.4922 0.0 0
M  V30 9 C -1.6992 -4.1485 0.0 0
M  V30 10 N 3.6915 -4.6642 0.0 0
M  V30 11 C -3.1993 -4.3595 0.0 0
M  V30 12 C -0.7734 -5.3204 0.0 0
M  V30 13 C 5.1681 -4.4298 0.0 0
M  V30 14 C -3.7618 -5.7423 0.0 0
M  V30 15 C -4.1485 -3.1641 0.0 0
M  V30 16 C -1.3359 -6.7033 0.0 0
M  V30 17 C 6.0939 -5.6017 0.0 0
M  V30 18 C 5.7072 -3.0235 0.0 0
M  V30 19 F -5.2618 -5.9533 0.0 0
M  V30 20 C -2.836 -6.9142 0.0 0
M  V30 21 O -3.6094 -1.7578 0.0 0
M  V30 22 N -5.6486 -3.3751 0.0 0
M  V30 23 C 7.5705 -5.3673 0.0 0
M  V30 24 C 7.1838 -2.7891 0.0 0
M  V30 25 C 8.1096 -3.961 0.0 0
M  V30 26 C 8.4963 -6.5392 0.0 0
M  V30 27 S 9.5862 -3.7266 0.0 0
M  V30 28 O 9.3518 -2.2266 0.0 0
M  V30 29 O 9.7971 -5.2032 0.0 0
M  V30 30 N 11.0628 -3.4922 0.0 0
M  V30 END ATOM
M  V30 BEGIN BOND
M  V30 1 1 1 2
M  V30 2 2 2 3
M  V30 3 1 2 4
M  V30 4 1 3 5
M  V30 5 1 3 6
M  V30 6 2 4 7
M  V30 7 2 5 8
M  V30 8 1 6 9
M  V30 9 1 8 10
M  V30 10 2 9 11
M  V30 11 1 9 12
M  V30 12 1 10 13
M  V30 13 1 11 14
M  V30 14 1 11 15
M  V30 15 2 12 16
M  V30 16 2 13 17
M  V30 17 1 13 18
M  V30 18 1 14 19
M  V30 19 2 14 20
M  V30 20 2 15 21
M  V30 21 1 15 22
M  V30 22 1 17 23
M  V30 23 2 18 24
M  V30 24 2 23 25
M  V30 25 1 23 26
M  V30 26 1 25 27
M  V30 27 2 27 28
M  V30 28 2 27 29
M  V30 29 1 27 30
M  V30 30 1 7 8
M  V30 31 1 16 20
M  V30 32 1 24 25
M  V30 END BOND
M  V30 END CTAB
M  END
>  <Compound ID>
131

>  <Name>
TMX-3012

>  <Uniprot>
Q2M2I8

>  <Target>
AAK1

>  <Smiles>
CC1=CC(NC2=NC=C(Br)C(NC3=CC=CC(F)=C3C(N)=O)=N2)=CC=C1S(N)(=O)=O

>  <Kd (nM)>


>  <Assay (Kd)>


>  <Ki (nM)>


>  <Assay (Ki)>


>  <IC50 (nM)>


>  <Assay (IC50)>


>  <EC50 (nM)>


>  <Assay (EC50)>


>  <Article DOI>
10.1016/j.cell.2020.10.038

>  <Molecular Weight>
495.334

>  <Exact Mass>
494.017199692

>  <XLogP3>
3.1

>  <Heavy Atom Count>
30

>  <Ring Count>
3

>  <Hydrogen Bond Acceptor Count>
7

>  <Hydrogen Bond Donor Count>
4

>  <Rotatable Bond Count>
6

>  <Topological Polar Surface Area>
153.09

>  <Molecular Formula>
C18H16BrFN6O3S

>  <InChI>
InChI=1S/C18H16BrFN6O3S/c1-9-7-10(5-6-14(9)30(22,28)29)24-18-23-8-11(19)17(26-18)25-13-4-2-3-12(20)15(13)16(21)27/h2-8H,1H3,(H2,21,27)(H2,22,28,29)(H2,23,24,25,26)

>  <InChI Key>
IDMHFFLVANCQJA-UHFFFAOYSA-N

>  <BindingDB>


>  <PubChem>


>  <ChEMBL>


$$$$
Compound 423
Actelion Java MolfileCreator 2.0

  0  0  0  0  0  0              0 V3000
M  V30 BEGIN CTAB
M  V30 COUNTS 30 32 0 0 0
M  V30 BEGIN ATOM
M  V30 1 Br 0.0 0.0 0.0 0
M  V30 2 C 0.9258 -1.1719 0.0 0
M  V30 3 C 0.3632 -2.5547 0.0 0
M  V30 4 C 2.4024 -0.9375 0.0 0
M  V30 5 N 1.2891 -3.7266 0.0 0
M  V30 6 N -1.1367 -2.7657 0.0 0
M  V30 7 N 3.3282 -2.1094 0.0 0
M  V30 8 C 2.7657 -3.4922 0.0 0
M  V30 9 C -1.6992 -4.1485 0.0 0
M  V30 10 N 3.6915 -4.6642 0.0 0
M  V30 11 C -3.1993 -4.3595 0.0 0
M  V30 12 C -0.7734 -5.3204 0.0 0
M  V30 13 C 5.1681 -4.4298 0.0 0
M  V30 14 C -3.7618 -5.7423 0.0 0
M  V30 15 C -4.1485 -3.1641 0.0 0
M  V30 16 C -1.3359 -6.7033 0.0 0
M  V30 17 C 6.0939 -5.6017 0.0 0
M  V30 18 C 5.7072 -3.0235 0.0 0
M  V30 19 F -5.2618 -5.9533 0.0 0
M  V30 20 C -2.836 -6.9142 0.0 0
M  V30 21 O -3.6094 -1.7578 0.0 0
M  V30 22 N -5.6486 -3.3751 0.0 0
M  V30 23 C 7.5705 -5.3673 0.0 0
M  V30 24 C 7.1838 -2.7891 0.0 0
M  V30 25 C 8.1096 -3.961 0.0 0
M  V30 26 C 8.4963 -6.5392 0.0 0
M  V30 27 S 9.5862 -3.7266 0.0 0
M  V30 28 O 9.3518 -2.2266 0.0 0
M  V30 29 O 9.7971 -5.2032 0.0 0
M  V30 30 N 11.0628 -3.4922 0.0 0
M  V30 END ATOM
M  V30 BEGIN BOND
M  V30 1 1 1 2
M  V30 2 2 2 3
M  V30 3 1 2 4
M  V30 4 1 3 5
M  V30 5 1 3 6
M  V30 6 2 4 7
M  V30 7 2 5 8
M  V30 8 1 6 9
M  V30 9 1 8 10
M  V30 10 2 9 11
M  V30 11 1 9 12
M  V30 12 1 10 13
M  V30 13 1 11 14
M  V30 14 1 11 15
M  V30 15 2 12 16
M  V30 16 2 13 17
M  V30 17 1 13 18
M  V30 18 1 14 19
M  V30 19 2 14 20
M  V30 20 2 15 21
M  V30 21 1 15 22
M  V30 22 1 17 23
M  V30 23 2 18 24
M  V30 24 2 23 25
M  V30 25 1 23 26
M  V30 26 1 25 27
M  V30 27 2 27 28
M  V30 28 2 27 29
M  V30 29 1 27 30
M  V30 30 1 7 8
M  V30 31 1 16 20
M  V30 32 1 24 25
M  V30 END BOND
M  V30 END CTAB
M  END
>  <Compound ID>
131

>  <Name>
TMX-3012

>  <Uniprot>
O14965

>  <Target>
AURKA

>  <Smiles>
CC1=CC(NC2=NC=C(Br)C(NC3=CC=CC(F)=C3C(N)=O)=N2)=CC=C1S(N)(=O)=O

>  <Kd (nM)>


>  <Assay (Kd)>


>  <Ki (nM)>


>  <Assay (Ki)>


>  <IC50 (nM)>


>  <Assay (IC50)>


>  <EC50 (nM)>


>  <Assay (EC50)>


>  <Article DOI>
10.1016/j.cell.2020.10.038

>  <Molecular Weight>
495.334

>  <Exact Mass>
494.017199692

>  <XLogP3>
3.1

>  <Heavy Atom Count>
30

>  <Ring Count>
3

>  <Hydrogen Bond Acceptor Count>
7

>  <Hydrogen Bond Donor Count>
4

>  <Rotatable Bond Count>
6

>  <Topological Polar Surface Area>
153.09

>  <Molecular Formula>
C18H16BrFN6O3S

>  <InChI>
InChI=1S/C18H16BrFN6O3S/c1-9-7-10(5-6-14(9)30(22,28)29)24-18-23-8-11(19)17(26-18)25-13-4-2-3-12(20)15(13)16(21)27/h2-8H,1H3,(H2,21,27)(H2,22,28,29)(H2,23,24,25,26)

>  <InChI Key>
IDMHFFLVANCQJA-UHFFFAOYSA-N

>  <BindingDB>


>  <PubChem>


>  <ChEMBL>


$$$$
Compound 424
Actelion Java MolfileCreator 2.0

  0  0  0  0  0  0              0 V3000
M  V30 BEGIN CTAB
M  V30 COUNTS 30 32 0 0 0
M  V30 BEGIN ATOM
M  V30 1 Br 0.0 0.0 0.0 0
M  V30 2 C 0.9258 -1.1719 0.0 0
M  V30 3 C 0.3632 -2.5547 0.0 0
M  V30 4 C 2.4024 -0.9375 0.0 0
M  V30 5 N 1.2891 -3.7266 0.0 0
M  V30 6 N -1.1367 -2.7657 0.0 0
M  V30 7 N 3.3282 -2.1094 0.0 0
M  V30 8 C 2.7657 -3.4922 0.0 0
M  V30 9 C -1.6992 -4.1485 0.0 0
M  V30 10 N 3.6915 -4.6642 0.0 0
M  V30 11 C -3.1993 -4.3595 0.0 0
M  V30 12 C -0.7734 -5.3204 0.0 0
M  V30 13 C 5.1681 -4.4298 0.0 0
M  V30 14 C -3.7618 -5.7423 0.0 0
M  V30 15 C -4.1485 -3.1641 0.0 0
M  V30 16 C -1.3359 -6.7033 0.0 0
M  V30 17 C 6.0939 -5.6017 0.0 0
M  V30 18 C 5.7072 -3.0235 0.0 0
M  V30 19 F -5.2618 -5.9533 0.0 0
M  V30 20 C -2.836 -6.9142 0.0 0
M  V30 21 O -3.6094 -1.7578 0.0 0
M  V30 22 N -5.6486 -3.3751 0.0 0
M  V30 23 C 7.5705 -5.3673 0.0 0
M  V30 24 C 7.1838 -2.7891 0.0 0
M  V30 25 C 8.1096 -3.961 0.0 0
M  V30 26 C 8.4963 -6.5392 0.0 0
M  V30 27 S 9.5862 -3.7266 0.0 0
M  V30 28 O 9.3518 -2.2266 0.0 0
M  V30 29 O 9.7971 -5.2032 0.0 0
M  V30 30 N 11.0628 -3.4922 0.0 0
M  V30 END ATOM
M  V30 BEGIN BOND
M  V30 1 1 1 2
M  V30 2 2 2 3
M  V30 3 1 2 4
M  V30 4 1 3 5
M  V30 5 1 3 6
M  V30 6 2 4 7
M  V30 7 2 5 8
M  V30 8 1 6 9
M  V30 9 1 8 10
M  V30 10 2 9 11
M  V30 11 1 9 12
M  V30 12 1 10 13
M  V30 13 1 11 14
M  V30 14 1 11 15
M  V30 15 2 12 16
M  V30 16 2 13 17
M  V30 17 1 13 18
M  V30 18 1 14 19
M  V30 19 2 14 20
M  V30 20 2 15 21
M  V30 21 1 15 22
M  V30 22 1 17 23
M  V30 23 2 18 24
M  V30 24 2 23 25
M  V30 25 1 23 26
M  V30 26 1 25 27
M  V30 27 2 27 28
M  V30 28 2 27 29
M  V30 29 1 27 30
M  V30 30 1 7 8
M  V30 31 1 16 20
M  V30 32 1 24 25
M  V30 END BOND
M  V30 END CTAB
M  END
>  <Compound ID>
131

>  <Name>
TMX-3012

>  <Uniprot>
Q96GD4

>  <Target>
AURKB

>  <Smiles>
CC1=CC(NC2=NC=C(Br)C(NC3=CC=CC(F)=C3C(N)=O)=N2)=CC=C1S(N)(=O)=O

>  <Kd (nM)>


>  <Assay (Kd)>


>  <Ki (nM)>


>  <Assay (Ki)>


>  <IC50 (nM)>


>  <Assay (IC50)>


>  <EC50 (nM)>


>  <Assay (EC50)>


>  <Article DOI>
10.1016/j.cell.2020.10.038

>  <Molecular Weight>
495.334

>  <Exact Mass>
494.017199692

>  <XLogP3>
3.1

>  <Heavy Atom Count>
30

>  <Ring Count>
3

>  <Hydrogen Bond Acceptor Count>
7

>  <Hydrogen Bond Donor Count>
4

>  <Rotatable Bond Count>
6

>  <Topological Polar Surface Area>
153.09

>  <Molecular Formula>
C18H16BrFN6O3S

>  <InChI>
InChI=1S/C18H16BrFN6O3S/c1-9-7-10(5-6-14(9)30(22,28)29)24-18-23-8-11(19)17(26-18)25-13-4-2-3-12(20)15(13)16(21)27/h2-8H,1H3,(H2,21,27)(H2,22,28,29)(H2,23,24,25,26)

>  <InChI Key>
IDMHFFLVANCQJA-UHFFFAOYSA-N

>  <BindingDB>


>  <PubChem>


>  <ChEMBL>


$$$$
Compound 425
Actelion Java MolfileCreator 2.0

  0  0  0  0  0  0              0 V3000
M  V30 BEGIN CTAB
M  V30 COUNTS 30 32 0 0 0
M  V30 BEGIN ATOM
M  V30 1 Br 0.0 0.0 0.0 0
M  V30 2 C 0.9258 -1.1719 0.0 0
M  V30 3 C 0.3632 -2.5547 0.0 0
M  V30 4 C 2.4024 -0.9375 0.0 0
M  V30 5 N 1.2891 -3.7266 0.0 0
M  V30 6 N -1.1367 -2.7657 0.0 0
M  V30 7 N 3.3282 -2.1094 0.0 0
M  V30 8 C 2.7657 -3.4922 0.0 0
M  V30 9 C -1.6992 -4.1485 0.0 0
M  V30 10 N 3.6915 -4.6642 0.0 0
M  V30 11 C -3.1993 -4.3595 0.0 0
M  V30 12 C -0.7734 -5.3204 0.0 0
M  V30 13 C 5.1681 -4.4298 0.0 0
M  V30 14 C -3.7618 -5.7423 0.0 0
M  V30 15 C -4.1485 -3.1641 0.0 0
M  V30 16 C -1.3359 -6.7033 0.0 0
M  V30 17 C 6.0939 -5.6017 0.0 0
M  V30 18 C 5.7072 -3.0235 0.0 0
M  V30 19 F -5.2618 -5.9533 0.0 0
M  V30 20 C -2.836 -6.9142 0.0 0
M  V30 21 O -3.6094 -1.7578 0.0 0
M  V30 22 N -5.6486 -3.3751 0.0 0
M  V30 23 C 7.5705 -5.3673 0.0 0
M  V30 24 C 7.1838 -2.7891 0.0 0
M  V30 25 C 8.1096 -3.961 0.0 0
M  V30 26 C 8.4963 -6.5392 0.0 0
M  V30 27 S 9.5862 -3.7266 0.0 0
M  V30 28 O 9.3518 -2.2266 0.0 0
M  V30 29 O 9.7971 -5.2032 0.0 0
M  V30 30 N 11.0628 -3.4922 0.0 0
M  V30 END ATOM
M  V30 BEGIN BOND
M  V30 1 1 1 2
M  V30 2 2 2 3
M  V30 3 1 2 4
M  V30 4 1 3 5
M  V30 5 1 3 6
M  V30 6 2 4 7
M  V30 7 2 5 8
M  V30 8 1 6 9
M  V30 9 1 8 10
M  V30 10 2 9 11
M  V30 11 1 9 12
M  V30 12 1 10 13
M  V30 13 1 11 14
M  V30 14 1 11 15
M  V30 15 2 12 16
M  V30 16 2 13 17
M  V30 17 1 13 18
M  V30 18 1 14 19
M  V30 19 2 14 20
M  V30 20 2 15 21
M  V30 21 1 15 22
M  V30 22 1 17 23
M  V30 23 2 18 24
M  V30 24 2 23 25
M  V30 25 1 23 26
M  V30 26 1 25 27
M  V30 27 2 27 28
M  V30 28 2 27 29
M  V30 29 1 27 30
M  V30 30 1 7 8
M  V30 31 1 16 20
M  V30 32 1 24 25
M  V30 END BOND
M  V30 END CTAB
M  END
>  <Compound ID>
131

>  <Name>
TMX-3012

>  <Uniprot>
Q9NYV4

>  <Target>
CDK12

>  <Smiles>
CC1=CC(NC2=NC=C(Br)C(NC3=CC=CC(F)=C3C(N)=O)=N2)=CC=C1S(N)(=O)=O

>  <Kd (nM)>


>  <Assay (Kd)>


>  <Ki (nM)>


>  <Assay (Ki)>


>  <IC50 (nM)>


>  <Assay (IC50)>


>  <EC50 (nM)>


>  <Assay (EC50)>


>  <Article DOI>
10.1016/j.cell.2020.10.038

>  <Molecular Weight>
495.334

>  <Exact Mass>
494.017199692

>  <XLogP3>
3.1

>  <Heavy Atom Count>
30

>  <Ring Count>
3

>  <Hydrogen Bond Acceptor Count>
7

>  <Hydrogen Bond Donor Count>
4

>  <Rotatable Bond Count>
6

>  <Topological Polar Surface Area>
153.09

>  <Molecular Formula>
C18H16BrFN6O3S

>  <InChI>
InChI=1S/C18H16BrFN6O3S/c1-9-7-10(5-6-14(9)30(22,28)29)24-18-23-8-11(19)17(26-18)25-13-4-2-3-12(20)15(13)16(21)27/h2-8H,1H3,(H2,21,27)(H2,22,28,29)(H2,23,24,25,26)

>  <InChI Key>
IDMHFFLVANCQJA-UHFFFAOYSA-N

>  <BindingDB>


>  <PubChem>


>  <ChEMBL>


$$$$
Compound 426
Actelion Java MolfileCreator 2.0

  0  0  0  0  0  0              0 V3000
M  V30 BEGIN CTAB
M  V30 COUNTS 30 32 0 0 0
M  V30 BEGIN ATOM
M  V30 1 Br 0.0 0.0 0.0 0
M  V30 2 C 0.9258 -1.1719 0.0 0
M  V30 3 C 0.3632 -2.5547 0.0 0
M  V30 4 C 2.4024 -0.9375 0.0 0
M  V30 5 N 1.2891 -3.7266 0.0 0
M  V30 6 N -1.1367 -2.7657 0.0 0
M  V30 7 N 3.3282 -2.1094 0.0 0
M  V30 8 C 2.7657 -3.4922 0.0 0
M  V30 9 C -1.6992 -4.1485 0.0 0
M  V30 10 N 3.6915 -4.6642 0.0 0
M  V30 11 C -3.1993 -4.3595 0.0 0
M  V30 12 C -0.7734 -5.3204 0.0 0
M  V30 13 C 5.1681 -4.4298 0.0 0
M  V30 14 C -3.7618 -5.7423 0.0 0
M  V30 15 C -4.1485 -3.1641 0.0 0
M  V30 16 C -1.3359 -6.7033 0.0 0
M  V30 17 C 6.0939 -5.6017 0.0 0
M  V30 18 C 5.7072 -3.0235 0.0 0
M  V30 19 F -5.2618 -5.9533 0.0 0
M  V30 20 C -2.836 -6.9142 0.0 0
M  V30 21 O -3.6094 -1.7578 0.0 0
M  V30 22 N -5.6486 -3.3751 0.0 0
M  V30 23 C 7.5705 -5.3673 0.0 0
M  V30 24 C 7.1838 -2.7891 0.0 0
M  V30 25 C 8.1096 -3.961 0.0 0
M  V30 26 C 8.4963 -6.5392 0.0 0
M  V30 27 S 9.5862 -3.7266 0.0 0
M  V30 28 O 9.3518 -2.2266 0.0 0
M  V30 29 O 9.7971 -5.2032 0.0 0
M  V30 30 N 11.0628 -3.4922 0.0 0
M  V30 END ATOM
M  V30 BEGIN BOND
M  V30 1 1 1 2
M  V30 2 2 2 3
M  V30 3 1 2 4
M  V30 4 1 3 5
M  V30 5 1 3 6
M  V30 6 2 4 7
M  V30 7 2 5 8
M  V30 8 1 6 9
M  V30 9 1 8 10
M  V30 10 2 9 11
M  V30 11 1 9 12
M  V30 12 1 10 13
M  V30 13 1 11 14
M  V30 14 1 11 15
M  V30 15 2 12 16
M  V30 16 2 13 17
M  V30 17 1 13 18
M  V30 18 1 14 19
M  V30 19 2 14 20
M  V30 20 2 15 21
M  V30 21 1 15 22
M  V30 22 1 17 23
M  V30 23 2 18 24
M  V30 24 2 23 25
M  V30 25 1 23 26
M  V30 26 1 25 27
M  V30 27 2 27 28
M  V30 28 2 27 29
M  V30 29 1 27 30
M  V30 30 1 7 8
M  V30 31 1 16 20
M  V30 32 1 24 25
M  V30 END BOND
M  V30 END CTAB
M  END
>  <Compound ID>
131

>  <Name>
TMX-3012

>  <Uniprot>
Q00536

>  <Target>
CDK16

>  <Smiles>
CC1=CC(NC2=NC=C(Br)C(NC3=CC=CC(F)=C3C(N)=O)=N2)=CC=C1S(N)(=O)=O

>  <Kd (nM)>


>  <Assay (Kd)>


>  <Ki (nM)>


>  <Assay (Ki)>


>  <IC50 (nM)>


>  <Assay (IC50)>


>  <EC50 (nM)>


>  <Assay (EC50)>


>  <Article DOI>
10.1016/j.cell.2020.10.038

>  <Molecular Weight>
495.334

>  <Exact Mass>
494.017199692

>  <XLogP3>
3.1

>  <Heavy Atom Count>
30

>  <Ring Count>
3

>  <Hydrogen Bond Acceptor Count>
7

>  <Hydrogen Bond Donor Count>
4

>  <Rotatable Bond Count>
6

>  <Topological Polar Surface Area>
153.09

>  <Molecular Formula>
C18H16BrFN6O3S

>  <InChI>
InChI=1S/C18H16BrFN6O3S/c1-9-7-10(5-6-14(9)30(22,28)29)24-18-23-8-11(19)17(26-18)25-13-4-2-3-12(20)15(13)16(21)27/h2-8H,1H3,(H2,21,27)(H2,22,28,29)(H2,23,24,25,26)

>  <InChI Key>
IDMHFFLVANCQJA-UHFFFAOYSA-N

>  <BindingDB>


>  <PubChem>


>  <ChEMBL>


$$$$
Compound 427
Actelion Java MolfileCreator 2.0

  0  0  0  0  0  0              0 V3000
M  V30 BEGIN CTAB
M  V30 COUNTS 30 32 0 0 0
M  V30 BEGIN ATOM
M  V30 1 Br 0.0 0.0 0.0 0
M  V30 2 C 0.9258 -1.1719 0.0 0
M  V30 3 C 0.3632 -2.5547 0.0 0
M  V30 4 C 2.4024 -0.9375 0.0 0
M  V30 5 N 1.2891 -3.7266 0.0 0
M  V30 6 N -1.1367 -2.7657 0.0 0
M  V30 7 N 3.3282 -2.1094 0.0 0
M  V30 8 C 2.7657 -3.4922 0.0 0
M  V30 9 C -1.6992 -4.1485 0.0 0
M  V30 10 N 3.6915 -4.6642 0.0 0
M  V30 11 C -3.1993 -4.3595 0.0 0
M  V30 12 C -0.7734 -5.3204 0.0 0
M  V30 13 C 5.1681 -4.4298 0.0 0
M  V30 14 C -3.7618 -5.7423 0.0 0
M  V30 15 C -4.1485 -3.1641 0.0 0
M  V30 16 C -1.3359 -6.7033 0.0 0
M  V30 17 C 6.0939 -5.6017 0.0 0
M  V30 18 C 5.7072 -3.0235 0.0 0
M  V30 19 F -5.2618 -5.9533 0.0 0
M  V30 20 C -2.836 -6.9142 0.0 0
M  V30 21 O -3.6094 -1.7578 0.0 0
M  V30 22 N -5.6486 -3.3751 0.0 0
M  V30 23 C 7.5705 -5.3673 0.0 0
M  V30 24 C 7.1838 -2.7891 0.0 0
M  V30 25 C 8.1096 -3.961 0.0 0
M  V30 26 C 8.4963 -6.5392 0.0 0
M  V30 27 S 9.5862 -3.7266 0.0 0
M  V30 28 O 9.3518 -2.2266 0.0 0
M  V30 29 O 9.7971 -5.2032 0.0 0
M  V30 30 N 11.0628 -3.4922 0.0 0
M  V30 END ATOM
M  V30 BEGIN BOND
M  V30 1 1 1 2
M  V30 2 2 2 3
M  V30 3 1 2 4
M  V30 4 1 3 5
M  V30 5 1 3 6
M  V30 6 2 4 7
M  V30 7 2 5 8
M  V30 8 1 6 9
M  V30 9 1 8 10
M  V30 10 2 9 11
M  V30 11 1 9 12
M  V30 12 1 10 13
M  V30 13 1 11 14
M  V30 14 1 11 15
M  V30 15 2 12 16
M  V30 16 2 13 17
M  V30 17 1 13 18
M  V30 18 1 14 19
M  V30 19 2 14 20
M  V30 20 2 15 21
M  V30 21 1 15 22
M  V30 22 1 17 23
M  V30 23 2 18 24
M  V30 24 2 23 25
M  V30 25 1 23 26
M  V30 26 1 25 27
M  V30 27 2 27 28
M  V30 28 2 27 29
M  V30 29 1 27 30
M  V30 30 1 7 8
M  V30 31 1 16 20
M  V30 32 1 24 25
M  V30 END BOND
M  V30 END CTAB
M  END
>  <Compound ID>
131

>  <Name>
TMX-3012

>  <Uniprot>
Q00537

>  <Target>
CDK17

>  <Smiles>
CC1=CC(NC2=NC=C(Br)C(NC3=CC=CC(F)=C3C(N)=O)=N2)=CC=C1S(N)(=O)=O

>  <Kd (nM)>


>  <Assay (Kd)>


>  <Ki (nM)>


>  <Assay (Ki)>


>  <IC50 (nM)>


>  <Assay (IC50)>


>  <EC50 (nM)>


>  <Assay (EC50)>


>  <Article DOI>
10.1016/j.cell.2020.10.038

>  <Molecular Weight>
495.334

>  <Exact Mass>
494.017199692

>  <XLogP3>
3.1

>  <Heavy Atom Count>
30

>  <Ring Count>
3

>  <Hydrogen Bond Acceptor Count>
7

>  <Hydrogen Bond Donor Count>
4

>  <Rotatable Bond Count>
6

>  <Topological Polar Surface Area>
153.09

>  <Molecular Formula>
C18H16BrFN6O3S

>  <InChI>
InChI=1S/C18H16BrFN6O3S/c1-9-7-10(5-6-14(9)30(22,28)29)24-18-23-8-11(19)17(26-18)25-13-4-2-3-12(20)15(13)16(21)27/h2-8H,1H3,(H2,21,27)(H2,22,28,29)(H2,23,24,25,26)

>  <InChI Key>
IDMHFFLVANCQJA-UHFFFAOYSA-N

>  <BindingDB>


>  <PubChem>


>  <ChEMBL>


$$$$
Compound 428
Actelion Java MolfileCreator 2.0

  0  0  0  0  0  0              0 V3000
M  V30 BEGIN CTAB
M  V30 COUNTS 30 32 0 0 0
M  V30 BEGIN ATOM
M  V30 1 Br 0.0 0.0 0.0 0
M  V30 2 C 0.9258 -1.1719 0.0 0
M  V30 3 C 0.3632 -2.5547 0.0 0
M  V30 4 C 2.4024 -0.9375 0.0 0
M  V30 5 N 1.2891 -3.7266 0.0 0
M  V30 6 N -1.1367 -2.7657 0.0 0
M  V30 7 N 3.3282 -2.1094 0.0 0
M  V30 8 C 2.7657 -3.4922 0.0 0
M  V30 9 C -1.6992 -4.1485 0.0 0
M  V30 10 N 3.6915 -4.6642 0.0 0
M  V30 11 C -3.1993 -4.3595 0.0 0
M  V30 12 C -0.7734 -5.3204 0.0 0
M  V30 13 C 5.1681 -4.4298 0.0 0
M  V30 14 C -3.7618 -5.7423 0.0 0
M  V30 15 C -4.1485 -3.1641 0.0 0
M  V30 16 C -1.3359 -6.7033 0.0 0
M  V30 17 C 6.0939 -5.6017 0.0 0
M  V30 18 C 5.7072 -3.0235 0.0 0
M  V30 19 F -5.2618 -5.9533 0.0 0
M  V30 20 C -2.836 -6.9142 0.0 0
M  V30 21 O -3.6094 -1.7578 0.0 0
M  V30 22 N -5.6486 -3.3751 0.0 0
M  V30 23 C 7.5705 -5.3673 0.0 0
M  V30 24 C 7.1838 -2.7891 0.0 0
M  V30 25 C 8.1096 -3.961 0.0 0
M  V30 26 C 8.4963 -6.5392 0.0 0
M  V30 27 S 9.5862 -3.7266 0.0 0
M  V30 28 O 9.3518 -2.2266 0.0 0
M  V30 29 O 9.7971 -5.2032 0.0 0
M  V30 30 N 11.0628 -3.4922 0.0 0
M  V30 END ATOM
M  V30 BEGIN BOND
M  V30 1 1 1 2
M  V30 2 2 2 3
M  V30 3 1 2 4
M  V30 4 1 3 5
M  V30 5 1 3 6
M  V30 6 2 4 7
M  V30 7 2 5 8
M  V30 8 1 6 9
M  V30 9 1 8 10
M  V30 10 2 9 11
M  V30 11 1 9 12
M  V30 12 1 10 13
M  V30 13 1 11 14
M  V30 14 1 11 15
M  V30 15 2 12 16
M  V30 16 2 13 17
M  V30 17 1 13 18
M  V30 18 1 14 19
M  V30 19 2 14 20
M  V30 20 2 15 21
M  V30 21 1 15 22
M  V30 22 1 17 23
M  V30 23 2 18 24
M  V30 24 2 23 25
M  V30 25 1 23 26
M  V30 26 1 25 27
M  V30 27 2 27 28
M  V30 28 2 27 29
M  V30 29 1 27 30
M  V30 30 1 7 8
M  V30 31 1 16 20
M  V30 32 1 24 25
M  V30 END BOND
M  V30 END CTAB
M  END
>  <Compound ID>
131

>  <Name>
TMX-3012

>  <Uniprot>
P06493

>  <Target>
CDK1

>  <Smiles>
CC1=CC(NC2=NC=C(Br)C(NC3=CC=CC(F)=C3C(N)=O)=N2)=CC=C1S(N)(=O)=O

>  <Kd (nM)>


>  <Assay (Kd)>


>  <Ki (nM)>


>  <Assay (Ki)>


>  <IC50 (nM)>


>  <Assay (IC50)>


>  <EC50 (nM)>


>  <Assay (EC50)>


>  <Article DOI>
10.1016/j.cell.2020.10.038

>  <Molecular Weight>
495.334

>  <Exact Mass>
494.017199692

>  <XLogP3>
3.1

>  <Heavy Atom Count>
30

>  <Ring Count>
3

>  <Hydrogen Bond Acceptor Count>
7

>  <Hydrogen Bond Donor Count>
4

>  <Rotatable Bond Count>
6

>  <Topological Polar Surface Area>
153.09

>  <Molecular Formula>
C18H16BrFN6O3S

>  <InChI>
InChI=1S/C18H16BrFN6O3S/c1-9-7-10(5-6-14(9)30(22,28)29)24-18-23-8-11(19)17(26-18)25-13-4-2-3-12(20)15(13)16(21)27/h2-8H,1H3,(H2,21,27)(H2,22,28,29)(H2,23,24,25,26)

>  <InChI Key>
IDMHFFLVANCQJA-UHFFFAOYSA-N

>  <BindingDB>


>  <PubChem>


>  <ChEMBL>


$$$$
Compound 429
Actelion Java MolfileCreator 2.0

  0  0  0  0  0  0              0 V3000
M  V30 BEGIN CTAB
M  V30 COUNTS 30 32 0 0 0
M  V30 BEGIN ATOM
M  V30 1 Br 0.0 0.0 0.0 0
M  V30 2 C 0.9258 -1.1719 0.0 0
M  V30 3 C 0.3632 -2.5547 0.0 0
M  V30 4 C 2.4024 -0.9375 0.0 0
M  V30 5 N 1.2891 -3.7266 0.0 0
M  V30 6 N -1.1367 -2.7657 0.0 0
M  V30 7 N 3.3282 -2.1094 0.0 0
M  V30 8 C 2.7657 -3.4922 0.0 0
M  V30 9 C -1.6992 -4.1485 0.0 0
M  V30 10 N 3.6915 -4.6642 0.0 0
M  V30 11 C -3.1993 -4.3595 0.0 0
M  V30 12 C -0.7734 -5.3204 0.0 0
M  V30 13 C 5.1681 -4.4298 0.0 0
M  V30 14 C -3.7618 -5.7423 0.0 0
M  V30 15 C -4.1485 -3.1641 0.0 0
M  V30 16 C -1.3359 -6.7033 0.0 0
M  V30 17 C 6.0939 -5.6017 0.0 0
M  V30 18 C 5.7072 -3.0235 0.0 0
M  V30 19 F -5.2618 -5.9533 0.0 0
M  V30 20 C -2.836 -6.9142 0.0 0
M  V30 21 O -3.6094 -1.7578 0.0 0
M  V30 22 N -5.6486 -3.3751 0.0 0
M  V30 23 C 7.5705 -5.3673 0.0 0
M  V30 24 C 7.1838 -2.7891 0.0 0
M  V30 25 C 8.1096 -3.961 0.0 0
M  V30 26 C 8.4963 -6.5392 0.0 0
M  V30 27 S 9.5862 -3.7266 0.0 0
M  V30 28 O 9.3518 -2.2266 0.0 0
M  V30 29 O 9.7971 -5.2032 0.0 0
M  V30 30 N 11.0628 -3.4922 0.0 0
M  V30 END ATOM
M  V30 BEGIN BOND
M  V30 1 1 1 2
M  V30 2 2 2 3
M  V30 3 1 2 4
M  V30 4 1 3 5
M  V30 5 1 3 6
M  V30 6 2 4 7
M  V30 7 2 5 8
M  V30 8 1 6 9
M  V30 9 1 8 10
M  V30 10 2 9 11
M  V30 11 1 9 12
M  V30 12 1 10 13
M  V30 13 1 11 14
M  V30 14 1 11 15
M  V30 15 2 12 16
M  V30 16 2 13 17
M  V30 17 1 13 18
M  V30 18 1 14 19
M  V30 19 2 14 20
M  V30 20 2 15 21
M  V30 21 1 15 22
M  V30 22 1 17 23
M  V30 23 2 18 24
M  V30 24 2 23 25
M  V30 25 1 23 26
M  V30 26 1 25 27
M  V30 27 2 27 28
M  V30 28 2 27 29
M  V30 29 1 27 30
M  V30 30 1 7 8
M  V30 31 1 16 20
M  V30 32 1 24 25
M  V30 END BOND
M  V30 END CTAB
M  END
>  <Compound ID>
131

>  <Name>
TMX-3012

>  <Uniprot>
P24941

>  <Target>
CDK2

>  <Smiles>
CC1=CC(NC2=NC=C(Br)C(NC3=CC=CC(F)=C3C(N)=O)=N2)=CC=C1S(N)(=O)=O

>  <Kd (nM)>


>  <Assay (Kd)>


>  <Ki (nM)>


>  <Assay (Ki)>


>  <IC50 (nM)>
0.7

>  <Assay (IC50)>
IC50 of CDK2/cyclin A was tested by the Z'-LYTE assays

>  <EC50 (nM)>


>  <Assay (EC50)>


>  <Article DOI>
10.1002/anie.202004087

>  <Molecular Weight>
495.334

>  <Exact Mass>
494.017199692

>  <XLogP3>
3.1

>  <Heavy Atom Count>
30

>  <Ring Count>
3

>  <Hydrogen Bond Acceptor Count>
7

>  <Hydrogen Bond Donor Count>
4

>  <Rotatable Bond Count>
6

>  <Topological Polar Surface Area>
153.09

>  <Molecular Formula>
C18H16BrFN6O3S

>  <InChI>
InChI=1S/C18H16BrFN6O3S/c1-9-7-10(5-6-14(9)30(22,28)29)24-18-23-8-11(19)17(26-18)25-13-4-2-3-12(20)15(13)16(21)27/h2-8H,1H3,(H2,21,27)(H2,22,28,29)(H2,23,24,25,26)

>  <InChI Key>
IDMHFFLVANCQJA-UHFFFAOYSA-N

>  <BindingDB>


>  <PubChem>


>  <ChEMBL>


$$$$
Compound 430
Actelion Java MolfileCreator 2.0

  0  0  0  0  0  0              0 V3000
M  V30 BEGIN CTAB
M  V30 COUNTS 30 32 0 0 0
M  V30 BEGIN ATOM
M  V30 1 Br 0.0 0.0 0.0 0
M  V30 2 C 0.9258 -1.1719 0.0 0
M  V30 3 C 0.3632 -2.5547 0.0 0
M  V30 4 C 2.4024 -0.9375 0.0 0
M  V30 5 N 1.2891 -3.7266 0.0 0
M  V30 6 N -1.1367 -2.7657 0.0 0
M  V30 7 N 3.3282 -2.1094 0.0 0
M  V30 8 C 2.7657 -3.4922 0.0 0
M  V30 9 C -1.6992 -4.1485 0.0 0
M  V30 10 N 3.6915 -4.6642 0.0 0
M  V30 11 C -3.1993 -4.3595 0.0 0
M  V30 12 C -0.7734 -5.3204 0.0 0
M  V30 13 C 5.1681 -4.4298 0.0 0
M  V30 14 C -3.7618 -5.7423 0.0 0
M  V30 15 C -4.1485 -3.1641 0.0 0
M  V30 16 C -1.3359 -6.7033 0.0 0
M  V30 17 C 6.0939 -5.6017 0.0 0
M  V30 18 C 5.7072 -3.0235 0.0 0
M  V30 19 F -5.2618 -5.9533 0.0 0
M  V30 20 C -2.836 -6.9142 0.0 0
M  V30 21 O -3.6094 -1.7578 0.0 0
M  V30 22 N -5.6486 -3.3751 0.0 0
M  V30 23 C 7.5705 -5.3673 0.0 0
M  V30 24 C 7.1838 -2.7891 0.0 0
M  V30 25 C 8.1096 -3.961 0.0 0
M  V30 26 C 8.4963 -6.5392 0.0 0
M  V30 27 S 9.5862 -3.7266 0.0 0
M  V30 28 O 9.3518 -2.2266 0.0 0
M  V30 29 O 9.7971 -5.2032 0.0 0
M  V30 30 N 11.0628 -3.4922 0.0 0
M  V30 END ATOM
M  V30 BEGIN BOND
M  V30 1 1 1 2
M  V30 2 2 2 3
M  V30 3 1 2 4
M  V30 4 1 3 5
M  V30 5 1 3 6
M  V30 6 2 4 7
M  V30 7 2 5 8
M  V30 8 1 6 9
M  V30 9 1 8 10
M  V30 10 2 9 11
M  V30 11 1 9 12
M  V30 12 1 10 13
M  V30 13 1 11 14
M  V30 14 1 11 15
M  V30 15 2 12 16
M  V30 16 2 13 17
M  V30 17 1 13 18
M  V30 18 1 14 19
M  V30 19 2 14 20
M  V30 20 2 15 21
M  V30 21 1 15 22
M  V30 22 1 17 23
M  V30 23 2 18 24
M  V30 24 2 23 25
M  V30 25 1 23 26
M  V30 26 1 25 27
M  V30 27 2 27 28
M  V30 28 2 27 29
M  V30 29 1 27 30
M  V30 30 1 7 8
M  V30 31 1 16 20
M  V30 32 1 24 25
M  V30 END BOND
M  V30 END CTAB
M  END
>  <Compound ID>
131

>  <Name>
TMX-3012

>  <Uniprot>
P11802

>  <Target>
CDK4

>  <Smiles>
CC1=CC(NC2=NC=C(Br)C(NC3=CC=CC(F)=C3C(N)=O)=N2)=CC=C1S(N)(=O)=O

>  <Kd (nM)>


>  <Assay (Kd)>


>  <Ki (nM)>


>  <Assay (Ki)>


>  <IC50 (nM)>
79.6

>  <Assay (IC50)>
IC50 of CDK4/cyclin D1 was tested by the Adapta assays

>  <EC50 (nM)>


>  <Assay (EC50)>


>  <Article DOI>
10.1002/anie.202004087

>  <Molecular Weight>
495.334

>  <Exact Mass>
494.017199692

>  <XLogP3>
3.1

>  <Heavy Atom Count>
30

>  <Ring Count>
3

>  <Hydrogen Bond Acceptor Count>
7

>  <Hydrogen Bond Donor Count>
4

>  <Rotatable Bond Count>
6

>  <Topological Polar Surface Area>
153.09

>  <Molecular Formula>
C18H16BrFN6O3S

>  <InChI>
InChI=1S/C18H16BrFN6O3S/c1-9-7-10(5-6-14(9)30(22,28)29)24-18-23-8-11(19)17(26-18)25-13-4-2-3-12(20)15(13)16(21)27/h2-8H,1H3,(H2,21,27)(H2,22,28,29)(H2,23,24,25,26)

>  <InChI Key>
IDMHFFLVANCQJA-UHFFFAOYSA-N

>  <BindingDB>


>  <PubChem>


>  <ChEMBL>


$$$$
Compound 431
Actelion Java MolfileCreator 2.0

  0  0  0  0  0  0              0 V3000
M  V30 BEGIN CTAB
M  V30 COUNTS 30 32 0 0 0
M  V30 BEGIN ATOM
M  V30 1 Br 0.0 0.0 0.0 0
M  V30 2 C 0.9258 -1.1719 0.0 0
M  V30 3 C 0.3632 -2.5547 0.0 0
M  V30 4 C 2.4024 -0.9375 0.0 0
M  V30 5 N 1.2891 -3.7266 0.0 0
M  V30 6 N -1.1367 -2.7657 0.0 0
M  V30 7 N 3.3282 -2.1094 0.0 0
M  V30 8 C 2.7657 -3.4922 0.0 0
M  V30 9 C -1.6992 -4.1485 0.0 0
M  V30 10 N 3.6915 -4.6642 0.0 0
M  V30 11 C -3.1993 -4.3595 0.0 0
M  V30 12 C -0.7734 -5.3204 0.0 0
M  V30 13 C 5.1681 -4.4298 0.0 0
M  V30 14 C -3.7618 -5.7423 0.0 0
M  V30 15 C -4.1485 -3.1641 0.0 0
M  V30 16 C -1.3359 -6.7033 0.0 0
M  V30 17 C 6.0939 -5.6017 0.0 0
M  V30 18 C 5.7072 -3.0235 0.0 0
M  V30 19 F -5.2618 -5.9533 0.0 0
M  V30 20 C -2.836 -6.9142 0.0 0
M  V30 21 O -3.6094 -1.7578 0.0 0
M  V30 22 N -5.6486 -3.3751 0.0 0
M  V30 23 C 7.5705 -5.3673 0.0 0
M  V30 24 C 7.1838 -2.7891 0.0 0
M  V30 25 C 8.1096 -3.961 0.0 0
M  V30 26 C 8.4963 -6.5392 0.0 0
M  V30 27 S 9.5862 -3.7266 0.0 0
M  V30 28 O 9.3518 -2.2266 0.0 0
M  V30 29 O 9.7971 -5.2032 0.0 0
M  V30 30 N 11.0628 -3.4922 0.0 0
M  V30 END ATOM
M  V30 BEGIN BOND
M  V30 1 1 1 2
M  V30 2 2 2 3
M  V30 3 1 2 4
M  V30 4 1 3 5
M  V30 5 1 3 6
M  V30 6 2 4 7
M  V30 7 2 5 8
M  V30 8 1 6 9
M  V30 9 1 8 10
M  V30 10 2 9 11
M  V30 11 1 9 12
M  V30 12 1 10 13
M  V30 13 1 11 14
M  V30 14 1 11 15
M  V30 15 2 12 16
M  V30 16 2 13 17
M  V30 17 1 13 18
M  V30 18 1 14 19
M  V30 19 2 14 20
M  V30 20 2 15 21
M  V30 21 1 15 22
M  V30 22 1 17 23
M  V30 23 2 18 24
M  V30 24 2 23 25
M  V30 25 1 23 26
M  V30 26 1 25 27
M  V30 27 2 27 28
M  V30 28 2 27 29
M  V30 29 1 27 30
M  V30 30 1 7 8
M  V30 31 1 16 20
M  V30 32 1 24 25
M  V30 END BOND
M  V30 END CTAB
M  END
>  <Compound ID>
131

>  <Name>
TMX-3012

>  <Uniprot>
Q00535

>  <Target>
CDK5

>  <Smiles>
CC1=CC(NC2=NC=C(Br)C(NC3=CC=CC(F)=C3C(N)=O)=N2)=CC=C1S(N)(=O)=O

>  <Kd (nM)>


>  <Assay (Kd)>


>  <Ki (nM)>


>  <Assay (Ki)>


>  <IC50 (nM)>
0.6

>  <Assay (IC50)>
IC50 of CDK5/p25 was tested by the Z'-LYTE assays

>  <EC50 (nM)>


>  <Assay (EC50)>


>  <Article DOI>
10.1002/anie.202004087

>  <Molecular Weight>
495.334

>  <Exact Mass>
494.017199692

>  <XLogP3>
3.1

>  <Heavy Atom Count>
30

>  <Ring Count>
3

>  <Hydrogen Bond Acceptor Count>
7

>  <Hydrogen Bond Donor Count>
4

>  <Rotatable Bond Count>
6

>  <Topological Polar Surface Area>
153.09

>  <Molecular Formula>
C18H16BrFN6O3S

>  <InChI>
InChI=1S/C18H16BrFN6O3S/c1-9-7-10(5-6-14(9)30(22,28)29)24-18-23-8-11(19)17(26-18)25-13-4-2-3-12(20)15(13)16(21)27/h2-8H,1H3,(H2,21,27)(H2,22,28,29)(H2,23,24,25,26)

>  <InChI Key>
IDMHFFLVANCQJA-UHFFFAOYSA-N

>  <BindingDB>


>  <PubChem>


>  <ChEMBL>


$$$$
Compound 432
Actelion Java MolfileCreator 2.0

  0  0  0  0  0  0              0 V3000
M  V30 BEGIN CTAB
M  V30 COUNTS 30 32 0 0 0
M  V30 BEGIN ATOM
M  V30 1 Br 0.0 0.0 0.0 0
M  V30 2 C 0.9258 -1.1719 0.0 0
M  V30 3 C 0.3632 -2.5547 0.0 0
M  V30 4 C 2.4024 -0.9375 0.0 0
M  V30 5 N 1.2891 -3.7266 0.0 0
M  V30 6 N -1.1367 -2.7657 0.0 0
M  V30 7 N 3.3282 -2.1094 0.0 0
M  V30 8 C 2.7657 -3.4922 0.0 0
M  V30 9 C -1.6992 -4.1485 0.0 0
M  V30 10 N 3.6915 -4.6642 0.0 0
M  V30 11 C -3.1993 -4.3595 0.0 0
M  V30 12 C -0.7734 -5.3204 0.0 0
M  V30 13 C 5.1681 -4.4298 0.0 0
M  V30 14 C -3.7618 -5.7423 0.0 0
M  V30 15 C -4.1485 -3.1641 0.0 0
M  V30 16 C -1.3359 -6.7033 0.0 0
M  V30 17 C 6.0939 -5.6017 0.0 0
M  V30 18 C 5.7072 -3.0235 0.0 0
M  V30 19 F -5.2618 -5.9533 0.0 0
M  V30 20 C -2.836 -6.9142 0.0 0
M  V30 21 O -3.6094 -1.7578 0.0 0
M  V30 22 N -5.6486 -3.3751 0.0 0
M  V30 23 C 7.5705 -5.3673 0.0 0
M  V30 24 C 7.1838 -2.7891 0.0 0
M  V30 25 C 8.1096 -3.961 0.0 0
M  V30 26 C 8.4963 -6.5392 0.0 0
M  V30 27 S 9.5862 -3.7266 0.0 0
M  V30 28 O 9.3518 -2.2266 0.0 0
M  V30 29 O 9.7971 -5.2032 0.0 0
M  V30 30 N 11.0628 -3.4922 0.0 0
M  V30 END ATOM
M  V30 BEGIN BOND
M  V30 1 1 1 2
M  V30 2 2 2 3
M  V30 3 1 2 4
M  V30 4 1 3 5
M  V30 5 1 3 6
M  V30 6 2 4 7
M  V30 7 2 5 8
M  V30 8 1 6 9
M  V30 9 1 8 10
M  V30 10 2 9 11
M  V30 11 1 9 12
M  V30 12 1 10 13
M  V30 13 1 11 14
M  V30 14 1 11 15
M  V30 15 2 12 16
M  V30 16 2 13 17
M  V30 17 1 13 18
M  V30 18 1 14 19
M  V30 19 2 14 20
M  V30 20 2 15 21
M  V30 21 1 15 22
M  V30 22 1 17 23
M  V30 23 2 18 24
M  V30 24 2 23 25
M  V30 25 1 23 26
M  V30 26 1 25 27
M  V30 27 2 27 28
M  V30 28 2 27 29
M  V30 29 1 27 30
M  V30 30 1 7 8
M  V30 31 1 16 20
M  V30 32 1 24 25
M  V30 END BOND
M  V30 END CTAB
M  END
>  <Compound ID>
131

>  <Name>
TMX-3012

>  <Uniprot>
Q00534

>  <Target>
CDK6

>  <Smiles>
CC1=CC(NC2=NC=C(Br)C(NC3=CC=CC(F)=C3C(N)=O)=N2)=CC=C1S(N)(=O)=O

>  <Kd (nM)>


>  <Assay (Kd)>


>  <Ki (nM)>


>  <Assay (Ki)>


>  <IC50 (nM)>
24

>  <Assay (IC50)>
IC50 of CDK6/cyclin D1 was tested by the Adapta assays

>  <EC50 (nM)>


>  <Assay (EC50)>


>  <Article DOI>
10.1002/anie.202004087

>  <Molecular Weight>
495.334

>  <Exact Mass>
494.017199692

>  <XLogP3>
3.1

>  <Heavy Atom Count>
30

>  <Ring Count>
3

>  <Hydrogen Bond Acceptor Count>
7

>  <Hydrogen Bond Donor Count>
4

>  <Rotatable Bond Count>
6

>  <Topological Polar Surface Area>
153.09

>  <Molecular Formula>
C18H16BrFN6O3S

>  <InChI>
InChI=1S/C18H16BrFN6O3S/c1-9-7-10(5-6-14(9)30(22,28)29)24-18-23-8-11(19)17(26-18)25-13-4-2-3-12(20)15(13)16(21)27/h2-8H,1H3,(H2,21,27)(H2,22,28,29)(H2,23,24,25,26)

>  <InChI Key>
IDMHFFLVANCQJA-UHFFFAOYSA-N

>  <BindingDB>


>  <PubChem>


>  <ChEMBL>


$$$$
Compound 433
Actelion Java MolfileCreator 2.0

  0  0  0  0  0  0              0 V3000
M  V30 BEGIN CTAB
M  V30 COUNTS 30 32 0 0 0
M  V30 BEGIN ATOM
M  V30 1 Br 0.0 0.0 0.0 0
M  V30 2 C 0.9258 -1.1719 0.0 0
M  V30 3 C 0.3632 -2.5547 0.0 0
M  V30 4 C 2.4024 -0.9375 0.0 0
M  V30 5 N 1.2891 -3.7266 0.0 0
M  V30 6 N -1.1367 -2.7657 0.0 0
M  V30 7 N 3.3282 -2.1094 0.0 0
M  V30 8 C 2.7657 -3.4922 0.0 0
M  V30 9 C -1.6992 -4.1485 0.0 0
M  V30 10 N 3.6915 -4.6642 0.0 0
M  V30 11 C -3.1993 -4.3595 0.0 0
M  V30 12 C -0.7734 -5.3204 0.0 0
M  V30 13 C 5.1681 -4.4298 0.0 0
M  V30 14 C -3.7618 -5.7423 0.0 0
M  V30 15 C -4.1485 -3.1641 0.0 0
M  V30 16 C -1.3359 -6.7033 0.0 0
M  V30 17 C 6.0939 -5.6017 0.0 0
M  V30 18 C 5.7072 -3.0235 0.0 0
M  V30 19 F -5.2618 -5.9533 0.0 0
M  V30 20 C -2.836 -6.9142 0.0 0
M  V30 21 O -3.6094 -1.7578 0.0 0
M  V30 22 N -5.6486 -3.3751 0.0 0
M  V30 23 C 7.5705 -5.3673 0.0 0
M  V30 24 C 7.1838 -2.7891 0.0 0
M  V30 25 C 8.1096 -3.961 0.0 0
M  V30 26 C 8.4963 -6.5392 0.0 0
M  V30 27 S 9.5862 -3.7266 0.0 0
M  V30 28 O 9.3518 -2.2266 0.0 0
M  V30 29 O 9.7971 -5.2032 0.0 0
M  V30 30 N 11.0628 -3.4922 0.0 0
M  V30 END ATOM
M  V30 BEGIN BOND
M  V30 1 1 1 2
M  V30 2 2 2 3
M  V30 3 1 2 4
M  V30 4 1 3 5
M  V30 5 1 3 6
M  V30 6 2 4 7
M  V30 7 2 5 8
M  V30 8 1 6 9
M  V30 9 1 8 10
M  V30 10 2 9 11
M  V30 11 1 9 12
M  V30 12 1 10 13
M  V30 13 1 11 14
M  V30 14 1 11 15
M  V30 15 2 12 16
M  V30 16 2 13 17
M  V30 17 1 13 18
M  V30 18 1 14 19
M  V30 19 2 14 20
M  V30 20 2 15 21
M  V30 21 1 15 22
M  V30 22 1 17 23
M  V30 23 2 18 24
M  V30 24 2 23 25
M  V30 25 1 23 26
M  V30 26 1 25 27
M  V30 27 2 27 28
M  V30 28 2 27 29
M  V30 29 1 27 30
M  V30 30 1 7 8
M  V30 31 1 16 20
M  V30 32 1 24 25
M  V30 END BOND
M  V30 END CTAB
M  END
>  <Compound ID>
131

>  <Name>
TMX-3012

>  <Uniprot>
P50613

>  <Target>
CDK7

>  <Smiles>
CC1=CC(NC2=NC=C(Br)C(NC3=CC=CC(F)=C3C(N)=O)=N2)=CC=C1S(N)(=O)=O

>  <Kd (nM)>


>  <Assay (Kd)>


>  <Ki (nM)>


>  <Assay (Ki)>


>  <IC50 (nM)>


>  <Assay (IC50)>


>  <EC50 (nM)>


>  <Assay (EC50)>


>  <Article DOI>
10.1016/j.cell.2020.10.038

>  <Molecular Weight>
495.334

>  <Exact Mass>
494.017199692

>  <XLogP3>
3.1

>  <Heavy Atom Count>
30

>  <Ring Count>
3

>  <Hydrogen Bond Acceptor Count>
7

>  <Hydrogen Bond Donor Count>
4

>  <Rotatable Bond Count>
6

>  <Topological Polar Surface Area>
153.09

>  <Molecular Formula>
C18H16BrFN6O3S

>  <InChI>
InChI=1S/C18H16BrFN6O3S/c1-9-7-10(5-6-14(9)30(22,28)29)24-18-23-8-11(19)17(26-18)25-13-4-2-3-12(20)15(13)16(21)27/h2-8H,1H3,(H2,21,27)(H2,22,28,29)(H2,23,24,25,26)

>  <InChI Key>
IDMHFFLVANCQJA-UHFFFAOYSA-N

>  <BindingDB>


>  <PubChem>


>  <ChEMBL>


$$$$
Compound 434
Actelion Java MolfileCreator 2.0

  0  0  0  0  0  0              0 V3000
M  V30 BEGIN CTAB
M  V30 COUNTS 30 32 0 0 0
M  V30 BEGIN ATOM
M  V30 1 Br 0.0 0.0 0.0 0
M  V30 2 C 0.9258 -1.1719 0.0 0
M  V30 3 C 0.3632 -2.5547 0.0 0
M  V30 4 C 2.4024 -0.9375 0.0 0
M  V30 5 N 1.2891 -3.7266 0.0 0
M  V30 6 N -1.1367 -2.7657 0.0 0
M  V30 7 N 3.3282 -2.1094 0.0 0
M  V30 8 C 2.7657 -3.4922 0.0 0
M  V30 9 C -1.6992 -4.1485 0.0 0
M  V30 10 N 3.6915 -4.6642 0.0 0
M  V30 11 C -3.1993 -4.3595 0.0 0
M  V30 12 C -0.7734 -5.3204 0.0 0
M  V30 13 C 5.1681 -4.4298 0.0 0
M  V30 14 C -3.7618 -5.7423 0.0 0
M  V30 15 C -4.1485 -3.1641 0.0 0
M  V30 16 C -1.3359 -6.7033 0.0 0
M  V30 17 C 6.0939 -5.6017 0.0 0
M  V30 18 C 5.7072 -3.0235 0.0 0
M  V30 19 F -5.2618 -5.9533 0.0 0
M  V30 20 C -2.836 -6.9142 0.0 0
M  V30 21 O -3.6094 -1.7578 0.0 0
M  V30 22 N -5.6486 -3.3751 0.0 0
M  V30 23 C 7.5705 -5.3673 0.0 0
M  V30 24 C 7.1838 -2.7891 0.0 0
M  V30 25 C 8.1096 -3.961 0.0 0
M  V30 26 C 8.4963 -6.5392 0.0 0
M  V30 27 S 9.5862 -3.7266 0.0 0
M  V30 28 O 9.3518 -2.2266 0.0 0
M  V30 29 O 9.7971 -5.2032 0.0 0
M  V30 30 N 11.0628 -3.4922 0.0 0
M  V30 END ATOM
M  V30 BEGIN BOND
M  V30 1 1 1 2
M  V30 2 2 2 3
M  V30 3 1 2 4
M  V30 4 1 3 5
M  V30 5 1 3 6
M  V30 6 2 4 7
M  V30 7 2 5 8
M  V30 8 1 6 9
M  V30 9 1 8 10
M  V30 10 2 9 11
M  V30 11 1 9 12
M  V30 12 1 10 13
M  V30 13 1 11 14
M  V30 14 1 11 15
M  V30 15 2 12 16
M  V30 16 2 13 17
M  V30 17 1 13 18
M  V30 18 1 14 19
M  V30 19 2 14 20
M  V30 20 2 15 21
M  V30 21 1 15 22
M  V30 22 1 17 23
M  V30 23 2 18 24
M  V30 24 2 23 25
M  V30 25 1 23 26
M  V30 26 1 25 27
M  V30 27 2 27 28
M  V30 28 2 27 29
M  V30 29 1 27 30
M  V30 30 1 7 8
M  V30 31 1 16 20
M  V30 32 1 24 25
M  V30 END BOND
M  V30 END CTAB
M  END
>  <Compound ID>
131

>  <Name>
TMX-3012

>  <Uniprot>
P50750

>  <Target>
CDK9

>  <Smiles>
CC1=CC(NC2=NC=C(Br)C(NC3=CC=CC(F)=C3C(N)=O)=N2)=CC=C1S(N)(=O)=O

>  <Kd (nM)>


>  <Assay (Kd)>


>  <Ki (nM)>


>  <Assay (Ki)>


>  <IC50 (nM)>


>  <Assay (IC50)>


>  <EC50 (nM)>


>  <Assay (EC50)>


>  <Article DOI>
10.1016/j.cell.2020.10.038

>  <Molecular Weight>
495.334

>  <Exact Mass>
494.017199692

>  <XLogP3>
3.1

>  <Heavy Atom Count>
30

>  <Ring Count>
3

>  <Hydrogen Bond Acceptor Count>
7

>  <Hydrogen Bond Donor Count>
4

>  <Rotatable Bond Count>
6

>  <Topological Polar Surface Area>
153.09

>  <Molecular Formula>
C18H16BrFN6O3S

>  <InChI>
InChI=1S/C18H16BrFN6O3S/c1-9-7-10(5-6-14(9)30(22,28)29)24-18-23-8-11(19)17(26-18)25-13-4-2-3-12(20)15(13)16(21)27/h2-8H,1H3,(H2,21,27)(H2,22,28,29)(H2,23,24,25,26)

>  <InChI Key>
IDMHFFLVANCQJA-UHFFFAOYSA-N

>  <BindingDB>


>  <PubChem>


>  <ChEMBL>


$$$$
Compound 435
Actelion Java MolfileCreator 2.0

  0  0  0  0  0  0              0 V3000
M  V30 BEGIN CTAB
M  V30 COUNTS 30 32 0 0 0
M  V30 BEGIN ATOM
M  V30 1 Br 0.0 0.0 0.0 0
M  V30 2 C 0.9258 -1.1719 0.0 0
M  V30 3 C 0.3632 -2.5547 0.0 0
M  V30 4 C 2.4024 -0.9375 0.0 0
M  V30 5 N 1.2891 -3.7266 0.0 0
M  V30 6 N -1.1367 -2.7657 0.0 0
M  V30 7 N 3.3282 -2.1094 0.0 0
M  V30 8 C 2.7657 -3.4922 0.0 0
M  V30 9 C -1.6992 -4.1485 0.0 0
M  V30 10 N 3.6915 -4.6642 0.0 0
M  V30 11 C -3.1993 -4.3595 0.0 0
M  V30 12 C -0.7734 -5.3204 0.0 0
M  V30 13 C 5.1681 -4.4298 0.0 0
M  V30 14 C -3.7618 -5.7423 0.0 0
M  V30 15 C -4.1485 -3.1641 0.0 0
M  V30 16 C -1.3359 -6.7033 0.0 0
M  V30 17 C 6.0939 -5.6017 0.0 0
M  V30 18 C 5.7072 -3.0235 0.0 0
M  V30 19 F -5.2618 -5.9533 0.0 0
M  V30 20 C -2.836 -6.9142 0.0 0
M  V30 21 O -3.6094 -1.7578 0.0 0
M  V30 22 N -5.6486 -3.3751 0.0 0
M  V30 23 C 7.5705 -5.3673 0.0 0
M  V30 24 C 7.1838 -2.7891 0.0 0
M  V30 25 C 8.1096 -3.961 0.0 0
M  V30 26 C 8.4963 -6.5392 0.0 0
M  V30 27 S 9.5862 -3.7266 0.0 0
M  V30 28 O 9.3518 -2.2266 0.0 0
M  V30 29 O 9.7971 -5.2032 0.0 0
M  V30 30 N 11.0628 -3.4922 0.0 0
M  V30 END ATOM
M  V30 BEGIN BOND
M  V30 1 1 1 2
M  V30 2 2 2 3
M  V30 3 1 2 4
M  V30 4 1 3 5
M  V30 5 1 3 6
M  V30 6 2 4 7
M  V30 7 2 5 8
M  V30 8 1 6 9
M  V30 9 1 8 10
M  V30 10 2 9 11
M  V30 11 1 9 12
M  V30 12 1 10 13
M  V30 13 1 11 14
M  V30 14 1 11 15
M  V30 15 2 12 16
M  V30 16 2 13 17
M  V30 17 1 13 18
M  V30 18 1 14 19
M  V30 19 2 14 20
M  V30 20 2 15 21
M  V30 21 1 15 22
M  V30 22 1 17 23
M  V30 23 2 18 24
M  V30 24 2 23 25
M  V30 25 1 23 26
M  V30 26 1 25 27
M  V30 27 2 27 28
M  V30 28 2 27 29
M  V30 29 1 27 30
M  V30 30 1 7 8
M  V30 31 1 16 20
M  V30 32 1 24 25
M  V30 END BOND
M  V30 END CTAB
M  END
>  <Compound ID>
131

>  <Name>
TMX-3012

>  <Uniprot>
P49759

>  <Target>
CLK1

>  <Smiles>
CC1=CC(NC2=NC=C(Br)C(NC3=CC=CC(F)=C3C(N)=O)=N2)=CC=C1S(N)(=O)=O

>  <Kd (nM)>


>  <Assay (Kd)>


>  <Ki (nM)>


>  <Assay (Ki)>


>  <IC50 (nM)>


>  <Assay (IC50)>


>  <EC50 (nM)>


>  <Assay (EC50)>


>  <Article DOI>
10.1016/j.cell.2020.10.038

>  <Molecular Weight>
495.334

>  <Exact Mass>
494.017199692

>  <XLogP3>
3.1

>  <Heavy Atom Count>
30

>  <Ring Count>
3

>  <Hydrogen Bond Acceptor Count>
7

>  <Hydrogen Bond Donor Count>
4

>  <Rotatable Bond Count>
6

>  <Topological Polar Surface Area>
153.09

>  <Molecular Formula>
C18H16BrFN6O3S

>  <InChI>
InChI=1S/C18H16BrFN6O3S/c1-9-7-10(5-6-14(9)30(22,28)29)24-18-23-8-11(19)17(26-18)25-13-4-2-3-12(20)15(13)16(21)27/h2-8H,1H3,(H2,21,27)(H2,22,28,29)(H2,23,24,25,26)

>  <InChI Key>
IDMHFFLVANCQJA-UHFFFAOYSA-N

>  <BindingDB>


>  <PubChem>


>  <ChEMBL>


$$$$
Compound 436
Actelion Java MolfileCreator 2.0

  0  0  0  0  0  0              0 V3000
M  V30 BEGIN CTAB
M  V30 COUNTS 30 32 0 0 0
M  V30 BEGIN ATOM
M  V30 1 Br 0.0 0.0 0.0 0
M  V30 2 C 0.9258 -1.1719 0.0 0
M  V30 3 C 0.3632 -2.5547 0.0 0
M  V30 4 C 2.4024 -0.9375 0.0 0
M  V30 5 N 1.2891 -3.7266 0.0 0
M  V30 6 N -1.1367 -2.7657 0.0 0
M  V30 7 N 3.3282 -2.1094 0.0 0
M  V30 8 C 2.7657 -3.4922 0.0 0
M  V30 9 C -1.6992 -4.1485 0.0 0
M  V30 10 N 3.6915 -4.6642 0.0 0
M  V30 11 C -3.1993 -4.3595 0.0 0
M  V30 12 C -0.7734 -5.3204 0.0 0
M  V30 13 C 5.1681 -4.4298 0.0 0
M  V30 14 C -3.7618 -5.7423 0.0 0
M  V30 15 C -4.1485 -3.1641 0.0 0
M  V30 16 C -1.3359 -6.7033 0.0 0
M  V30 17 C 6.0939 -5.6017 0.0 0
M  V30 18 C 5.7072 -3.0235 0.0 0
M  V30 19 F -5.2618 -5.9533 0.0 0
M  V30 20 C -2.836 -6.9142 0.0 0
M  V30 21 O -3.6094 -1.7578 0.0 0
M  V30 22 N -5.6486 -3.3751 0.0 0
M  V30 23 C 7.5705 -5.3673 0.0 0
M  V30 24 C 7.1838 -2.7891 0.0 0
M  V30 25 C 8.1096 -3.961 0.0 0
M  V30 26 C 8.4963 -6.5392 0.0 0
M  V30 27 S 9.5862 -3.7266 0.0 0
M  V30 28 O 9.3518 -2.2266 0.0 0
M  V30 29 O 9.7971 -5.2032 0.0 0
M  V30 30 N 11.0628 -3.4922 0.0 0
M  V30 END ATOM
M  V30 BEGIN BOND
M  V30 1 1 1 2
M  V30 2 2 2 3
M  V30 3 1 2 4
M  V30 4 1 3 5
M  V30 5 1 3 6
M  V30 6 2 4 7
M  V30 7 2 5 8
M  V30 8 1 6 9
M  V30 9 1 8 10
M  V30 10 2 9 11
M  V30 11 1 9 12
M  V30 12 1 10 13
M  V30 13 1 11 14
M  V30 14 1 11 15
M  V30 15 2 12 16
M  V30 16 2 13 17
M  V30 17 1 13 18
M  V30 18 1 14 19
M  V30 19 2 14 20
M  V30 20 2 15 21
M  V30 21 1 15 22
M  V30 22 1 17 23
M  V30 23 2 18 24
M  V30 24 2 23 25
M  V30 25 1 23 26
M  V30 26 1 25 27
M  V30 27 2 27 28
M  V30 28 2 27 29
M  V30 29 1 27 30
M  V30 30 1 7 8
M  V30 31 1 16 20
M  V30 32 1 24 25
M  V30 END BOND
M  V30 END CTAB
M  END
>  <Compound ID>
131

>  <Name>
TMX-3012

>  <Uniprot>
Q05397

>  <Target>
FAK

>  <Smiles>
CC1=CC(NC2=NC=C(Br)C(NC3=CC=CC(F)=C3C(N)=O)=N2)=CC=C1S(N)(=O)=O

>  <Kd (nM)>


>  <Assay (Kd)>


>  <Ki (nM)>


>  <Assay (Ki)>


>  <IC50 (nM)>


>  <Assay (IC50)>


>  <EC50 (nM)>


>  <Assay (EC50)>


>  <Article DOI>
10.1016/j.cell.2020.10.038

>  <Molecular Weight>
495.334

>  <Exact Mass>
494.017199692

>  <XLogP3>
3.1

>  <Heavy Atom Count>
30

>  <Ring Count>
3

>  <Hydrogen Bond Acceptor Count>
7

>  <Hydrogen Bond Donor Count>
4

>  <Rotatable Bond Count>
6

>  <Topological Polar Surface Area>
153.09

>  <Molecular Formula>
C18H16BrFN6O3S

>  <InChI>
InChI=1S/C18H16BrFN6O3S/c1-9-7-10(5-6-14(9)30(22,28)29)24-18-23-8-11(19)17(26-18)25-13-4-2-3-12(20)15(13)16(21)27/h2-8H,1H3,(H2,21,27)(H2,22,28,29)(H2,23,24,25,26)

>  <InChI Key>
IDMHFFLVANCQJA-UHFFFAOYSA-N

>  <BindingDB>


>  <PubChem>


>  <ChEMBL>


$$$$
Compound 437
Actelion Java MolfileCreator 2.0

  0  0  0  0  0  0              0 V3000
M  V30 BEGIN CTAB
M  V30 COUNTS 30 32 0 0 0
M  V30 BEGIN ATOM
M  V30 1 Br 0.0 0.0 0.0 0
M  V30 2 C 0.9258 -1.1719 0.0 0
M  V30 3 C 0.3632 -2.5547 0.0 0
M  V30 4 C 2.4024 -0.9375 0.0 0
M  V30 5 N 1.2891 -3.7266 0.0 0
M  V30 6 N -1.1367 -2.7657 0.0 0
M  V30 7 N 3.3282 -2.1094 0.0 0
M  V30 8 C 2.7657 -3.4922 0.0 0
M  V30 9 C -1.6992 -4.1485 0.0 0
M  V30 10 N 3.6915 -4.6642 0.0 0
M  V30 11 C -3.1993 -4.3595 0.0 0
M  V30 12 C -0.7734 -5.3204 0.0 0
M  V30 13 C 5.1681 -4.4298 0.0 0
M  V30 14 C -3.7618 -5.7423 0.0 0
M  V30 15 C -4.1485 -3.1641 0.0 0
M  V30 16 C -1.3359 -6.7033 0.0 0
M  V30 17 C 6.0939 -5.6017 0.0 0
M  V30 18 C 5.7072 -3.0235 0.0 0
M  V30 19 F -5.2618 -5.9533 0.0 0
M  V30 20 C -2.836 -6.9142 0.0 0
M  V30 21 O -3.6094 -1.7578 0.0 0
M  V30 22 N -5.6486 -3.3751 0.0 0
M  V30 23 C 7.5705 -5.3673 0.0 0
M  V30 24 C 7.1838 -2.7891 0.0 0
M  V30 25 C 8.1096 -3.961 0.0 0
M  V30 26 C 8.4963 -6.5392 0.0 0
M  V30 27 S 9.5862 -3.7266 0.0 0
M  V30 28 O 9.3518 -2.2266 0.0 0
M  V30 29 O 9.7971 -5.2032 0.0 0
M  V30 30 N 11.0628 -3.4922 0.0 0
M  V30 END ATOM
M  V30 BEGIN BOND
M  V30 1 1 1 2
M  V30 2 2 2 3
M  V30 3 1 2 4
M  V30 4 1 3 5
M  V30 5 1 3 6
M  V30 6 2 4 7
M  V30 7 2 5 8
M  V30 8 1 6 9
M  V30 9 1 8 10
M  V30 10 2 9 11
M  V30 11 1 9 12
M  V30 12 1 10 13
M  V30 13 1 11 14
M  V30 14 1 11 15
M  V30 15 2 12 16
M  V30 16 2 13 17
M  V30 17 1 13 18
M  V30 18 1 14 19
M  V30 19 2 14 20
M  V30 20 2 15 21
M  V30 21 1 15 22
M  V30 22 1 17 23
M  V30 23 2 18 24
M  V30 24 2 23 25
M  V30 25 1 23 26
M  V30 26 1 25 27
M  V30 27 2 27 28
M  V30 28 2 27 29
M  V30 29 1 27 30
M  V30 30 1 7 8
M  V30 31 1 16 20
M  V30 32 1 24 25
M  V30 END BOND
M  V30 END CTAB
M  END
>  <Compound ID>
131

>  <Name>
TMX-3012

>  <Uniprot>
P16591

>  <Target>
FER

>  <Smiles>
CC1=CC(NC2=NC=C(Br)C(NC3=CC=CC(F)=C3C(N)=O)=N2)=CC=C1S(N)(=O)=O

>  <Kd (nM)>


>  <Assay (Kd)>


>  <Ki (nM)>


>  <Assay (Ki)>


>  <IC50 (nM)>


>  <Assay (IC50)>


>  <EC50 (nM)>


>  <Assay (EC50)>


>  <Article DOI>
10.1016/j.cell.2020.10.038

>  <Molecular Weight>
495.334

>  <Exact Mass>
494.017199692

>  <XLogP3>
3.1

>  <Heavy Atom Count>
30

>  <Ring Count>
3

>  <Hydrogen Bond Acceptor Count>
7

>  <Hydrogen Bond Donor Count>
4

>  <Rotatable Bond Count>
6

>  <Topological Polar Surface Area>
153.09

>  <Molecular Formula>
C18H16BrFN6O3S

>  <InChI>
InChI=1S/C18H16BrFN6O3S/c1-9-7-10(5-6-14(9)30(22,28)29)24-18-23-8-11(19)17(26-18)25-13-4-2-3-12(20)15(13)16(21)27/h2-8H,1H3,(H2,21,27)(H2,22,28,29)(H2,23,24,25,26)

>  <InChI Key>
IDMHFFLVANCQJA-UHFFFAOYSA-N

>  <BindingDB>


>  <PubChem>


>  <ChEMBL>


$$$$
Compound 438
Actelion Java MolfileCreator 2.0

  0  0  0  0  0  0              0 V3000
M  V30 BEGIN CTAB
M  V30 COUNTS 30 32 0 0 0
M  V30 BEGIN ATOM
M  V30 1 Br 0.0 0.0 0.0 0
M  V30 2 C 0.9258 -1.1719 0.0 0
M  V30 3 C 0.3632 -2.5547 0.0 0
M  V30 4 C 2.4024 -0.9375 0.0 0
M  V30 5 N 1.2891 -3.7266 0.0 0
M  V30 6 N -1.1367 -2.7657 0.0 0
M  V30 7 N 3.3282 -2.1094 0.0 0
M  V30 8 C 2.7657 -3.4922 0.0 0
M  V30 9 C -1.6992 -4.1485 0.0 0
M  V30 10 N 3.6915 -4.6642 0.0 0
M  V30 11 C -3.1993 -4.3595 0.0 0
M  V30 12 C -0.7734 -5.3204 0.0 0
M  V30 13 C 5.1681 -4.4298 0.0 0
M  V30 14 C -3.7618 -5.7423 0.0 0
M  V30 15 C -4.1485 -3.1641 0.0 0
M  V30 16 C -1.3359 -6.7033 0.0 0
M  V30 17 C 6.0939 -5.6017 0.0 0
M  V30 18 C 5.7072 -3.0235 0.0 0
M  V30 19 F -5.2618 -5.9533 0.0 0
M  V30 20 C -2.836 -6.9142 0.0 0
M  V30 21 O -3.6094 -1.7578 0.0 0
M  V30 22 N -5.6486 -3.3751 0.0 0
M  V30 23 C 7.5705 -5.3673 0.0 0
M  V30 24 C 7.1838 -2.7891 0.0 0
M  V30 25 C 8.1096 -3.961 0.0 0
M  V30 26 C 8.4963 -6.5392 0.0 0
M  V30 27 S 9.5862 -3.7266 0.0 0
M  V30 28 O 9.3518 -2.2266 0.0 0
M  V30 29 O 9.7971 -5.2032 0.0 0
M  V30 30 N 11.0628 -3.4922 0.0 0
M  V30 END ATOM
M  V30 BEGIN BOND
M  V30 1 1 1 2
M  V30 2 2 2 3
M  V30 3 1 2 4
M  V30 4 1 3 5
M  V30 5 1 3 6
M  V30 6 2 4 7
M  V30 7 2 5 8
M  V30 8 1 6 9
M  V30 9 1 8 10
M  V30 10 2 9 11
M  V30 11 1 9 12
M  V30 12 1 10 13
M  V30 13 1 11 14
M  V30 14 1 11 15
M  V30 15 2 12 16
M  V30 16 2 13 17
M  V30 17 1 13 18
M  V30 18 1 14 19
M  V30 19 2 14 20
M  V30 20 2 15 21
M  V30 21 1 15 22
M  V30 22 1 17 23
M  V30 23 2 18 24
M  V30 24 2 23 25
M  V30 25 1 23 26
M  V30 26 1 25 27
M  V30 27 2 27 28
M  V30 28 2 27 29
M  V30 29 1 27 30
M  V30 30 1 7 8
M  V30 31 1 16 20
M  V30 32 1 24 25
M  V30 END BOND
M  V30 END CTAB
M  END
>  <Compound ID>
131

>  <Name>
TMX-3012

>  <Uniprot>
P49840

>  <Target>
GSK3A

>  <Smiles>
CC1=CC(NC2=NC=C(Br)C(NC3=CC=CC(F)=C3C(N)=O)=N2)=CC=C1S(N)(=O)=O

>  <Kd (nM)>


>  <Assay (Kd)>


>  <Ki (nM)>


>  <Assay (Ki)>


>  <IC50 (nM)>


>  <Assay (IC50)>


>  <EC50 (nM)>


>  <Assay (EC50)>


>  <Article DOI>
10.1016/j.cell.2020.10.038

>  <Molecular Weight>
495.334

>  <Exact Mass>
494.017199692

>  <XLogP3>
3.1

>  <Heavy Atom Count>
30

>  <Ring Count>
3

>  <Hydrogen Bond Acceptor Count>
7

>  <Hydrogen Bond Donor Count>
4

>  <Rotatable Bond Count>
6

>  <Topological Polar Surface Area>
153.09

>  <Molecular Formula>
C18H16BrFN6O3S

>  <InChI>
InChI=1S/C18H16BrFN6O3S/c1-9-7-10(5-6-14(9)30(22,28)29)24-18-23-8-11(19)17(26-18)25-13-4-2-3-12(20)15(13)16(21)27/h2-8H,1H3,(H2,21,27)(H2,22,28,29)(H2,23,24,25,26)

>  <InChI Key>
IDMHFFLVANCQJA-UHFFFAOYSA-N

>  <BindingDB>


>  <PubChem>


>  <ChEMBL>


$$$$
Compound 439
Actelion Java MolfileCreator 2.0

  0  0  0  0  0  0              0 V3000
M  V30 BEGIN CTAB
M  V30 COUNTS 30 32 0 0 0
M  V30 BEGIN ATOM
M  V30 1 Br 0.0 0.0 0.0 0
M  V30 2 C 0.9258 -1.1719 0.0 0
M  V30 3 C 0.3632 -2.5547 0.0 0
M  V30 4 C 2.4024 -0.9375 0.0 0
M  V30 5 N 1.2891 -3.7266 0.0 0
M  V30 6 N -1.1367 -2.7657 0.0 0
M  V30 7 N 3.3282 -2.1094 0.0 0
M  V30 8 C 2.7657 -3.4922 0.0 0
M  V30 9 C -1.6992 -4.1485 0.0 0
M  V30 10 N 3.6915 -4.6642 0.0 0
M  V30 11 C -3.1993 -4.3595 0.0 0
M  V30 12 C -0.7734 -5.3204 0.0 0
M  V30 13 C 5.1681 -4.4298 0.0 0
M  V30 14 C -3.7618 -5.7423 0.0 0
M  V30 15 C -4.1485 -3.1641 0.0 0
M  V30 16 C -1.3359 -6.7033 0.0 0
M  V30 17 C 6.0939 -5.6017 0.0 0
M  V30 18 C 5.7072 -3.0235 0.0 0
M  V30 19 F -5.2618 -5.9533 0.0 0
M  V30 20 C -2.836 -6.9142 0.0 0
M  V30 21 O -3.6094 -1.7578 0.0 0
M  V30 22 N -5.6486 -3.3751 0.0 0
M  V30 23 C 7.5705 -5.3673 0.0 0
M  V30 24 C 7.1838 -2.7891 0.0 0
M  V30 25 C 8.1096 -3.961 0.0 0
M  V30 26 C 8.4963 -6.5392 0.0 0
M  V30 27 S 9.5862 -3.7266 0.0 0
M  V30 28 O 9.3518 -2.2266 0.0 0
M  V30 29 O 9.7971 -5.2032 0.0 0
M  V30 30 N 11.0628 -3.4922 0.0 0
M  V30 END ATOM
M  V30 BEGIN BOND
M  V30 1 1 1 2
M  V30 2 2 2 3
M  V30 3 1 2 4
M  V30 4 1 3 5
M  V30 5 1 3 6
M  V30 6 2 4 7
M  V30 7 2 5 8
M  V30 8 1 6 9
M  V30 9 1 8 10
M  V30 10 2 9 11
M  V30 11 1 9 12
M  V30 12 1 10 13
M  V30 13 1 11 14
M  V30 14 1 11 15
M  V30 15 2 12 16
M  V30 16 2 13 17
M  V30 17 1 13 18
M  V30 18 1 14 19
M  V30 19 2 14 20
M  V30 20 2 15 21
M  V30 21 1 15 22
M  V30 22 1 17 23
M  V30 23 2 18 24
M  V30 24 2 23 25
M  V30 25 1 23 26
M  V30 26 1 25 27
M  V30 27 2 27 28
M  V30 28 2 27 29
M  V30 29 1 27 30
M  V30 30 1 7 8
M  V30 31 1 16 20
M  V30 32 1 24 25
M  V30 END BOND
M  V30 END CTAB
M  END
>  <Compound ID>
131

>  <Name>
TMX-3012

>  <Uniprot>
P49841

>  <Target>
GSK-3beta

>  <Smiles>
CC1=CC(NC2=NC=C(Br)C(NC3=CC=CC(F)=C3C(N)=O)=N2)=CC=C1S(N)(=O)=O

>  <Kd (nM)>


>  <Assay (Kd)>


>  <Ki (nM)>


>  <Assay (Ki)>


>  <IC50 (nM)>


>  <Assay (IC50)>


>  <EC50 (nM)>


>  <Assay (EC50)>


>  <Article DOI>
10.1016/j.cell.2020.10.038

>  <Molecular Weight>
495.334

>  <Exact Mass>
494.017199692

>  <XLogP3>
3.1

>  <Heavy Atom Count>
30

>  <Ring Count>
3

>  <Hydrogen Bond Acceptor Count>
7

>  <Hydrogen Bond Donor Count>
4

>  <Rotatable Bond Count>
6

>  <Topological Polar Surface Area>
153.09

>  <Molecular Formula>
C18H16BrFN6O3S

>  <InChI>
InChI=1S/C18H16BrFN6O3S/c1-9-7-10(5-6-14(9)30(22,28)29)24-18-23-8-11(19)17(26-18)25-13-4-2-3-12(20)15(13)16(21)27/h2-8H,1H3,(H2,21,27)(H2,22,28,29)(H2,23,24,25,26)

>  <InChI Key>
IDMHFFLVANCQJA-UHFFFAOYSA-N

>  <BindingDB>


>  <PubChem>


>  <ChEMBL>


$$$$
Compound 440
Actelion Java MolfileCreator 2.0

  0  0  0  0  0  0              0 V3000
M  V30 BEGIN CTAB
M  V30 COUNTS 30 32 0 0 0
M  V30 BEGIN ATOM
M  V30 1 Br 0.0 0.0 0.0 0
M  V30 2 C 0.9258 -1.1719 0.0 0
M  V30 3 C 0.3632 -2.5547 0.0 0
M  V30 4 C 2.4024 -0.9375 0.0 0
M  V30 5 N 1.2891 -3.7266 0.0 0
M  V30 6 N -1.1367 -2.7657 0.0 0
M  V30 7 N 3.3282 -2.1094 0.0 0
M  V30 8 C 2.7657 -3.4922 0.0 0
M  V30 9 C -1.6992 -4.1485 0.0 0
M  V30 10 N 3.6915 -4.6642 0.0 0
M  V30 11 C -3.1993 -4.3595 0.0 0
M  V30 12 C -0.7734 -5.3204 0.0 0
M  V30 13 C 5.1681 -4.4298 0.0 0
M  V30 14 C -3.7618 -5.7423 0.0 0
M  V30 15 C -4.1485 -3.1641 0.0 0
M  V30 16 C -1.3359 -6.7033 0.0 0
M  V30 17 C 6.0939 -5.6017 0.0 0
M  V30 18 C 5.7072 -3.0235 0.0 0
M  V30 19 F -5.2618 -5.9533 0.0 0
M  V30 20 C -2.836 -6.9142 0.0 0
M  V30 21 O -3.6094 -1.7578 0.0 0
M  V30 22 N -5.6486 -3.3751 0.0 0
M  V30 23 C 7.5705 -5.3673 0.0 0
M  V30 24 C 7.1838 -2.7891 0.0 0
M  V30 25 C 8.1096 -3.961 0.0 0
M  V30 26 C 8.4963 -6.5392 0.0 0
M  V30 27 S 9.5862 -3.7266 0.0 0
M  V30 28 O 9.3518 -2.2266 0.0 0
M  V30 29 O 9.7971 -5.2032 0.0 0
M  V30 30 N 11.0628 -3.4922 0.0 0
M  V30 END ATOM
M  V30 BEGIN BOND
M  V30 1 1 1 2
M  V30 2 2 2 3
M  V30 3 1 2 4
M  V30 4 1 3 5
M  V30 5 1 3 6
M  V30 6 2 4 7
M  V30 7 2 5 8
M  V30 8 1 6 9
M  V30 9 1 8 10
M  V30 10 2 9 11
M  V30 11 1 9 12
M  V30 12 1 10 13
M  V30 13 1 11 14
M  V30 14 1 11 15
M  V30 15 2 12 16
M  V30 16 2 13 17
M  V30 17 1 13 18
M  V30 18 1 14 19
M  V30 19 2 14 20
M  V30 20 2 15 21
M  V30 21 1 15 22
M  V30 22 1 17 23
M  V30 23 2 18 24
M  V30 24 2 23 25
M  V30 25 1 23 26
M  V30 26 1 25 27
M  V30 27 2 27 28
M  V30 28 2 27 29
M  V30 29 1 27 30
M  V30 30 1 7 8
M  V30 31 1 16 20
M  V30 32 1 24 25
M  V30 END BOND
M  V30 END CTAB
M  END
>  <Compound ID>
131

>  <Name>
TMX-3012

>  <Uniprot>
Q9Y616

>  <Target>
IRAK3

>  <Smiles>
CC1=CC(NC2=NC=C(Br)C(NC3=CC=CC(F)=C3C(N)=O)=N2)=CC=C1S(N)(=O)=O

>  <Kd (nM)>


>  <Assay (Kd)>


>  <Ki (nM)>


>  <Assay (Ki)>


>  <IC50 (nM)>


>  <Assay (IC50)>


>  <EC50 (nM)>


>  <Assay (EC50)>


>  <Article DOI>
10.1016/j.cell.2020.10.038

>  <Molecular Weight>
495.334

>  <Exact Mass>
494.017199692

>  <XLogP3>
3.1

>  <Heavy Atom Count>
30

>  <Ring Count>
3

>  <Hydrogen Bond Acceptor Count>
7

>  <Hydrogen Bond Donor Count>
4

>  <Rotatable Bond Count>
6

>  <Topological Polar Surface Area>
153.09

>  <Molecular Formula>
C18H16BrFN6O3S

>  <InChI>
InChI=1S/C18H16BrFN6O3S/c1-9-7-10(5-6-14(9)30(22,28)29)24-18-23-8-11(19)17(26-18)25-13-4-2-3-12(20)15(13)16(21)27/h2-8H,1H3,(H2,21,27)(H2,22,28,29)(H2,23,24,25,26)

>  <InChI Key>
IDMHFFLVANCQJA-UHFFFAOYSA-N

>  <BindingDB>


>  <PubChem>


>  <ChEMBL>


$$$$
Compound 441
Actelion Java MolfileCreator 2.0

  0  0  0  0  0  0              0 V3000
M  V30 BEGIN CTAB
M  V30 COUNTS 30 32 0 0 0
M  V30 BEGIN ATOM
M  V30 1 Br 0.0 0.0 0.0 0
M  V30 2 C 0.9258 -1.1719 0.0 0
M  V30 3 C 0.3632 -2.5547 0.0 0
M  V30 4 C 2.4024 -0.9375 0.0 0
M  V30 5 N 1.2891 -3.7266 0.0 0
M  V30 6 N -1.1367 -2.7657 0.0 0
M  V30 7 N 3.3282 -2.1094 0.0 0
M  V30 8 C 2.7657 -3.4922 0.0 0
M  V30 9 C -1.6992 -4.1485 0.0 0
M  V30 10 N 3.6915 -4.6642 0.0 0
M  V30 11 C -3.1993 -4.3595 0.0 0
M  V30 12 C -0.7734 -5.3204 0.0 0
M  V30 13 C 5.1681 -4.4298 0.0 0
M  V30 14 C -3.7618 -5.7423 0.0 0
M  V30 15 C -4.1485 -3.1641 0.0 0
M  V30 16 C -1.3359 -6.7033 0.0 0
M  V30 17 C 6.0939 -5.6017 0.0 0
M  V30 18 C 5.7072 -3.0235 0.0 0
M  V30 19 F -5.2618 -5.9533 0.0 0
M  V30 20 C -2.836 -6.9142 0.0 0
M  V30 21 O -3.6094 -1.7578 0.0 0
M  V30 22 N -5.6486 -3.3751 0.0 0
M  V30 23 C 7.5705 -5.3673 0.0 0
M  V30 24 C 7.1838 -2.7891 0.0 0
M  V30 25 C 8.1096 -3.961 0.0 0
M  V30 26 C 8.4963 -6.5392 0.0 0
M  V30 27 S 9.5862 -3.7266 0.0 0
M  V30 28 O 9.3518 -2.2266 0.0 0
M  V30 29 O 9.7971 -5.2032 0.0 0
M  V30 30 N 11.0628 -3.4922 0.0 0
M  V30 END ATOM
M  V30 BEGIN BOND
M  V30 1 1 1 2
M  V30 2 2 2 3
M  V30 3 1 2 4
M  V30 4 1 3 5
M  V30 5 1 3 6
M  V30 6 2 4 7
M  V30 7 2 5 8
M  V30 8 1 6 9
M  V30 9 1 8 10
M  V30 10 2 9 11
M  V30 11 1 9 12
M  V30 12 1 10 13
M  V30 13 1 11 14
M  V30 14 1 11 15
M  V30 15 2 12 16
M  V30 16 2 13 17
M  V30 17 1 13 18
M  V30 18 1 14 19
M  V30 19 2 14 20
M  V30 20 2 15 21
M  V30 21 1 15 22
M  V30 22 1 17 23
M  V30 23 2 18 24
M  V30 24 2 23 25
M  V30 25 1 23 26
M  V30 26 1 25 27
M  V30 27 2 27 28
M  V30 28 2 27 29
M  V30 29 1 27 30
M  V30 30 1 7 8
M  V30 31 1 16 20
M  V30 32 1 24 25
M  V30 END BOND
M  V30 END CTAB
M  END
>  <Compound ID>
131

>  <Name>
TMX-3012

>  <Uniprot>
Q16584

>  <Target>
MAP3K11

>  <Smiles>
CC1=CC(NC2=NC=C(Br)C(NC3=CC=CC(F)=C3C(N)=O)=N2)=CC=C1S(N)(=O)=O

>  <Kd (nM)>


>  <Assay (Kd)>


>  <Ki (nM)>


>  <Assay (Ki)>


>  <IC50 (nM)>


>  <Assay (IC50)>


>  <EC50 (nM)>


>  <Assay (EC50)>


>  <Article DOI>
10.1016/j.cell.2020.10.038

>  <Molecular Weight>
495.334

>  <Exact Mass>
494.017199692

>  <XLogP3>
3.1

>  <Heavy Atom Count>
30

>  <Ring Count>
3

>  <Hydrogen Bond Acceptor Count>
7

>  <Hydrogen Bond Donor Count>
4

>  <Rotatable Bond Count>
6

>  <Topological Polar Surface Area>
153.09

>  <Molecular Formula>
C18H16BrFN6O3S

>  <InChI>
InChI=1S/C18H16BrFN6O3S/c1-9-7-10(5-6-14(9)30(22,28)29)24-18-23-8-11(19)17(26-18)25-13-4-2-3-12(20)15(13)16(21)27/h2-8H,1H3,(H2,21,27)(H2,22,28,29)(H2,23,24,25,26)

>  <InChI Key>
IDMHFFLVANCQJA-UHFFFAOYSA-N

>  <BindingDB>


>  <PubChem>


>  <ChEMBL>


$$$$
Compound 442
Actelion Java MolfileCreator 2.0

  0  0  0  0  0  0              0 V3000
M  V30 BEGIN CTAB
M  V30 COUNTS 30 32 0 0 0
M  V30 BEGIN ATOM
M  V30 1 Br 0.0 0.0 0.0 0
M  V30 2 C 0.9258 -1.1719 0.0 0
M  V30 3 C 0.3632 -2.5547 0.0 0
M  V30 4 C 2.4024 -0.9375 0.0 0
M  V30 5 N 1.2891 -3.7266 0.0 0
M  V30 6 N -1.1367 -2.7657 0.0 0
M  V30 7 N 3.3282 -2.1094 0.0 0
M  V30 8 C 2.7657 -3.4922 0.0 0
M  V30 9 C -1.6992 -4.1485 0.0 0
M  V30 10 N 3.6915 -4.6642 0.0 0
M  V30 11 C -3.1993 -4.3595 0.0 0
M  V30 12 C -0.7734 -5.3204 0.0 0
M  V30 13 C 5.1681 -4.4298 0.0 0
M  V30 14 C -3.7618 -5.7423 0.0 0
M  V30 15 C -4.1485 -3.1641 0.0 0
M  V30 16 C -1.3359 -6.7033 0.0 0
M  V30 17 C 6.0939 -5.6017 0.0 0
M  V30 18 C 5.7072 -3.0235 0.0 0
M  V30 19 F -5.2618 -5.9533 0.0 0
M  V30 20 C -2.836 -6.9142 0.0 0
M  V30 21 O -3.6094 -1.7578 0.0 0
M  V30 22 N -5.6486 -3.3751 0.0 0
M  V30 23 C 7.5705 -5.3673 0.0 0
M  V30 24 C 7.1838 -2.7891 0.0 0
M  V30 25 C 8.1096 -3.961 0.0 0
M  V30 26 C 8.4963 -6.5392 0.0 0
M  V30 27 S 9.5862 -3.7266 0.0 0
M  V30 28 O 9.3518 -2.2266 0.0 0
M  V30 29 O 9.7971 -5.2032 0.0 0
M  V30 30 N 11.0628 -3.4922 0.0 0
M  V30 END ATOM
M  V30 BEGIN BOND
M  V30 1 1 1 2
M  V30 2 2 2 3
M  V30 3 1 2 4
M  V30 4 1 3 5
M  V30 5 1 3 6
M  V30 6 2 4 7
M  V30 7 2 5 8
M  V30 8 1 6 9
M  V30 9 1 8 10
M  V30 10 2 9 11
M  V30 11 1 9 12
M  V30 12 1 10 13
M  V30 13 1 11 14
M  V30 14 1 11 15
M  V30 15 2 12 16
M  V30 16 2 13 17
M  V30 17 1 13 18
M  V30 18 1 14 19
M  V30 19 2 14 20
M  V30 20 2 15 21
M  V30 21 1 15 22
M  V30 22 1 17 23
M  V30 23 2 18 24
M  V30 24 2 23 25
M  V30 25 1 23 26
M  V30 26 1 25 27
M  V30 27 2 27 28
M  V30 28 2 27 29
M  V30 29 1 27 30
M  V30 30 1 7 8
M  V30 31 1 16 20
M  V30 32 1 24 25
M  V30 END BOND
M  V30 END CTAB
M  END
>  <Compound ID>
131

>  <Name>
TMX-3012

>  <Uniprot>
P45983

>  <Target>
MAPK8

>  <Smiles>
CC1=CC(NC2=NC=C(Br)C(NC3=CC=CC(F)=C3C(N)=O)=N2)=CC=C1S(N)(=O)=O

>  <Kd (nM)>


>  <Assay (Kd)>


>  <Ki (nM)>


>  <Assay (Ki)>


>  <IC50 (nM)>


>  <Assay (IC50)>


>  <EC50 (nM)>


>  <Assay (EC50)>


>  <Article DOI>
10.1016/j.cell.2020.10.038

>  <Molecular Weight>
495.334

>  <Exact Mass>
494.017199692

>  <XLogP3>
3.1

>  <Heavy Atom Count>
30

>  <Ring Count>
3

>  <Hydrogen Bond Acceptor Count>
7

>  <Hydrogen Bond Donor Count>
4

>  <Rotatable Bond Count>
6

>  <Topological Polar Surface Area>
153.09

>  <Molecular Formula>
C18H16BrFN6O3S

>  <InChI>
InChI=1S/C18H16BrFN6O3S/c1-9-7-10(5-6-14(9)30(22,28)29)24-18-23-8-11(19)17(26-18)25-13-4-2-3-12(20)15(13)16(21)27/h2-8H,1H3,(H2,21,27)(H2,22,28,29)(H2,23,24,25,26)

>  <InChI Key>
IDMHFFLVANCQJA-UHFFFAOYSA-N

>  <BindingDB>


>  <PubChem>


>  <ChEMBL>


$$$$
Compound 443
Actelion Java MolfileCreator 2.0

  0  0  0  0  0  0              0 V3000
M  V30 BEGIN CTAB
M  V30 COUNTS 30 32 0 0 0
M  V30 BEGIN ATOM
M  V30 1 Br 0.0 0.0 0.0 0
M  V30 2 C 0.9258 -1.1719 0.0 0
M  V30 3 C 0.3632 -2.5547 0.0 0
M  V30 4 C 2.4024 -0.9375 0.0 0
M  V30 5 N 1.2891 -3.7266 0.0 0
M  V30 6 N -1.1367 -2.7657 0.0 0
M  V30 7 N 3.3282 -2.1094 0.0 0
M  V30 8 C 2.7657 -3.4922 0.0 0
M  V30 9 C -1.6992 -4.1485 0.0 0
M  V30 10 N 3.6915 -4.6642 0.0 0
M  V30 11 C -3.1993 -4.3595 0.0 0
M  V30 12 C -0.7734 -5.3204 0.0 0
M  V30 13 C 5.1681 -4.4298 0.0 0
M  V30 14 C -3.7618 -5.7423 0.0 0
M  V30 15 C -4.1485 -3.1641 0.0 0
M  V30 16 C -1.3359 -6.7033 0.0 0
M  V30 17 C 6.0939 -5.6017 0.0 0
M  V30 18 C 5.7072 -3.0235 0.0 0
M  V30 19 F -5.2618 -5.9533 0.0 0
M  V30 20 C -2.836 -6.9142 0.0 0
M  V30 21 O -3.6094 -1.7578 0.0 0
M  V30 22 N -5.6486 -3.3751 0.0 0
M  V30 23 C 7.5705 -5.3673 0.0 0
M  V30 24 C 7.1838 -2.7891 0.0 0
M  V30 25 C 8.1096 -3.961 0.0 0
M  V30 26 C 8.4963 -6.5392 0.0 0
M  V30 27 S 9.5862 -3.7266 0.0 0
M  V30 28 O 9.3518 -2.2266 0.0 0
M  V30 29 O 9.7971 -5.2032 0.0 0
M  V30 30 N 11.0628 -3.4922 0.0 0
M  V30 END ATOM
M  V30 BEGIN BOND
M  V30 1 1 1 2
M  V30 2 2 2 3
M  V30 3 1 2 4
M  V30 4 1 3 5
M  V30 5 1 3 6
M  V30 6 2 4 7
M  V30 7 2 5 8
M  V30 8 1 6 9
M  V30 9 1 8 10
M  V30 10 2 9 11
M  V30 11 1 9 12
M  V30 12 1 10 13
M  V30 13 1 11 14
M  V30 14 1 11 15
M  V30 15 2 12 16
M  V30 16 2 13 17
M  V30 17 1 13 18
M  V30 18 1 14 19
M  V30 19 2 14 20
M  V30 20 2 15 21
M  V30 21 1 15 22
M  V30 22 1 17 23
M  V30 23 2 18 24
M  V30 24 2 23 25
M  V30 25 1 23 26
M  V30 26 1 25 27
M  V30 27 2 27 28
M  V30 28 2 27 29
M  V30 29 1 27 30
M  V30 30 1 7 8
M  V30 31 1 16 20
M  V30 32 1 24 25
M  V30 END BOND
M  V30 END CTAB
M  END
>  <Compound ID>
131

>  <Name>
TMX-3012

>  <Uniprot>
P45984

>  <Target>
MAPK9

>  <Smiles>
CC1=CC(NC2=NC=C(Br)C(NC3=CC=CC(F)=C3C(N)=O)=N2)=CC=C1S(N)(=O)=O

>  <Kd (nM)>


>  <Assay (Kd)>


>  <Ki (nM)>


>  <Assay (Ki)>


>  <IC50 (nM)>


>  <Assay (IC50)>


>  <EC50 (nM)>


>  <Assay (EC50)>


>  <Article DOI>
10.1016/j.cell.2020.10.038

>  <Molecular Weight>
495.334

>  <Exact Mass>
494.017199692

>  <XLogP3>
3.1

>  <Heavy Atom Count>
30

>  <Ring Count>
3

>  <Hydrogen Bond Acceptor Count>
7

>  <Hydrogen Bond Donor Count>
4

>  <Rotatable Bond Count>
6

>  <Topological Polar Surface Area>
153.09

>  <Molecular Formula>
C18H16BrFN6O3S

>  <InChI>
InChI=1S/C18H16BrFN6O3S/c1-9-7-10(5-6-14(9)30(22,28)29)24-18-23-8-11(19)17(26-18)25-13-4-2-3-12(20)15(13)16(21)27/h2-8H,1H3,(H2,21,27)(H2,22,28,29)(H2,23,24,25,26)

>  <InChI Key>
IDMHFFLVANCQJA-UHFFFAOYSA-N

>  <BindingDB>


>  <PubChem>


>  <ChEMBL>


$$$$
Compound 444
Actelion Java MolfileCreator 2.0

  0  0  0  0  0  0              0 V3000
M  V30 BEGIN CTAB
M  V30 COUNTS 30 32 0 0 0
M  V30 BEGIN ATOM
M  V30 1 Br 0.0 0.0 0.0 0
M  V30 2 C 0.9258 -1.1719 0.0 0
M  V30 3 C 0.3632 -2.5547 0.0 0
M  V30 4 C 2.4024 -0.9375 0.0 0
M  V30 5 N 1.2891 -3.7266 0.0 0
M  V30 6 N -1.1367 -2.7657 0.0 0
M  V30 7 N 3.3282 -2.1094 0.0 0
M  V30 8 C 2.7657 -3.4922 0.0 0
M  V30 9 C -1.6992 -4.1485 0.0 0
M  V30 10 N 3.6915 -4.6642 0.0 0
M  V30 11 C -3.1993 -4.3595 0.0 0
M  V30 12 C -0.7734 -5.3204 0.0 0
M  V30 13 C 5.1681 -4.4298 0.0 0
M  V30 14 C -3.7618 -5.7423 0.0 0
M  V30 15 C -4.1485 -3.1641 0.0 0
M  V30 16 C -1.3359 -6.7033 0.0 0
M  V30 17 C 6.0939 -5.6017 0.0 0
M  V30 18 C 5.7072 -3.0235 0.0 0
M  V30 19 F -5.2618 -5.9533 0.0 0
M  V30 20 C -2.836 -6.9142 0.0 0
M  V30 21 O -3.6094 -1.7578 0.0 0
M  V30 22 N -5.6486 -3.3751 0.0 0
M  V30 23 C 7.5705 -5.3673 0.0 0
M  V30 24 C 7.1838 -2.7891 0.0 0
M  V30 25 C 8.1096 -3.961 0.0 0
M  V30 26 C 8.4963 -6.5392 0.0 0
M  V30 27 S 9.5862 -3.7266 0.0 0
M  V30 28 O 9.3518 -2.2266 0.0 0
M  V30 29 O 9.7971 -5.2032 0.0 0
M  V30 30 N 11.0628 -3.4922 0.0 0
M  V30 END ATOM
M  V30 BEGIN BOND
M  V30 1 1 1 2
M  V30 2 2 2 3
M  V30 3 1 2 4
M  V30 4 1 3 5
M  V30 5 1 3 6
M  V30 6 2 4 7
M  V30 7 2 5 8
M  V30 8 1 6 9
M  V30 9 1 8 10
M  V30 10 2 9 11
M  V30 11 1 9 12
M  V30 12 1 10 13
M  V30 13 1 11 14
M  V30 14 1 11 15
M  V30 15 2 12 16
M  V30 16 2 13 17
M  V30 17 1 13 18
M  V30 18 1 14 19
M  V30 19 2 14 20
M  V30 20 2 15 21
M  V30 21 1 15 22
M  V30 22 1 17 23
M  V30 23 2 18 24
M  V30 24 2 23 25
M  V30 25 1 23 26
M  V30 26 1 25 27
M  V30 27 2 27 28
M  V30 28 2 27 29
M  V30 29 1 27 30
M  V30 30 1 7 8
M  V30 31 1 16 20
M  V30 32 1 24 25
M  V30 END BOND
M  V30 END CTAB
M  END
>  <Compound ID>
131

>  <Name>
TMX-3012

>  <Uniprot>
Q96PY6

>  <Target>
NEK1

>  <Smiles>
CC1=CC(NC2=NC=C(Br)C(NC3=CC=CC(F)=C3C(N)=O)=N2)=CC=C1S(N)(=O)=O

>  <Kd (nM)>


>  <Assay (Kd)>


>  <Ki (nM)>


>  <Assay (Ki)>


>  <IC50 (nM)>


>  <Assay (IC50)>


>  <EC50 (nM)>


>  <Assay (EC50)>


>  <Article DOI>
10.1016/j.cell.2020.10.038

>  <Molecular Weight>
495.334

>  <Exact Mass>
494.017199692

>  <XLogP3>
3.1

>  <Heavy Atom Count>
30

>  <Ring Count>
3

>  <Hydrogen Bond Acceptor Count>
7

>  <Hydrogen Bond Donor Count>
4

>  <Rotatable Bond Count>
6

>  <Topological Polar Surface Area>
153.09

>  <Molecular Formula>
C18H16BrFN6O3S

>  <InChI>
InChI=1S/C18H16BrFN6O3S/c1-9-7-10(5-6-14(9)30(22,28)29)24-18-23-8-11(19)17(26-18)25-13-4-2-3-12(20)15(13)16(21)27/h2-8H,1H3,(H2,21,27)(H2,22,28,29)(H2,23,24,25,26)

>  <InChI Key>
IDMHFFLVANCQJA-UHFFFAOYSA-N

>  <BindingDB>


>  <PubChem>


>  <ChEMBL>


$$$$
Compound 445
Actelion Java MolfileCreator 2.0

  0  0  0  0  0  0              0 V3000
M  V30 BEGIN CTAB
M  V30 COUNTS 30 32 0 0 0
M  V30 BEGIN ATOM
M  V30 1 Br 0.0 0.0 0.0 0
M  V30 2 C 0.9258 -1.1719 0.0 0
M  V30 3 C 0.3632 -2.5547 0.0 0
M  V30 4 C 2.4024 -0.9375 0.0 0
M  V30 5 N 1.2891 -3.7266 0.0 0
M  V30 6 N -1.1367 -2.7657 0.0 0
M  V30 7 N 3.3282 -2.1094 0.0 0
M  V30 8 C 2.7657 -3.4922 0.0 0
M  V30 9 C -1.6992 -4.1485 0.0 0
M  V30 10 N 3.6915 -4.6642 0.0 0
M  V30 11 C -3.1993 -4.3595 0.0 0
M  V30 12 C -0.7734 -5.3204 0.0 0
M  V30 13 C 5.1681 -4.4298 0.0 0
M  V30 14 C -3.7618 -5.7423 0.0 0
M  V30 15 C -4.1485 -3.1641 0.0 0
M  V30 16 C -1.3359 -6.7033 0.0 0
M  V30 17 C 6.0939 -5.6017 0.0 0
M  V30 18 C 5.7072 -3.0235 0.0 0
M  V30 19 F -5.2618 -5.9533 0.0 0
M  V30 20 C -2.836 -6.9142 0.0 0
M  V30 21 O -3.6094 -1.7578 0.0 0
M  V30 22 N -5.6486 -3.3751 0.0 0
M  V30 23 C 7.5705 -5.3673 0.0 0
M  V30 24 C 7.1838 -2.7891 0.0 0
M  V30 25 C 8.1096 -3.961 0.0 0
M  V30 26 C 8.4963 -6.5392 0.0 0
M  V30 27 S 9.5862 -3.7266 0.0 0
M  V30 28 O 9.3518 -2.2266 0.0 0
M  V30 29 O 9.7971 -5.2032 0.0 0
M  V30 30 N 11.0628 -3.4922 0.0 0
M  V30 END ATOM
M  V30 BEGIN BOND
M  V30 1 1 1 2
M  V30 2 2 2 3
M  V30 3 1 2 4
M  V30 4 1 3 5
M  V30 5 1 3 6
M  V30 6 2 4 7
M  V30 7 2 5 8
M  V30 8 1 6 9
M  V30 9 1 8 10
M  V30 10 2 9 11
M  V30 11 1 9 12
M  V30 12 1 10 13
M  V30 13 1 11 14
M  V30 14 1 11 15
M  V30 15 2 12 16
M  V30 16 2 13 17
M  V30 17 1 13 18
M  V30 18 1 14 19
M  V30 19 2 14 20
M  V30 20 2 15 21
M  V30 21 1 15 22
M  V30 22 1 17 23
M  V30 23 2 18 24
M  V30 24 2 23 25
M  V30 25 1 23 26
M  V30 26 1 25 27
M  V30 27 2 27 28
M  V30 28 2 27 29
M  V30 29 1 27 30
M  V30 30 1 7 8
M  V30 31 1 16 20
M  V30 32 1 24 25
M  V30 END BOND
M  V30 END CTAB
M  END
>  <Compound ID>
131

>  <Name>
TMX-3012

>  <Uniprot>
P51956

>  <Target>
NEK3

>  <Smiles>
CC1=CC(NC2=NC=C(Br)C(NC3=CC=CC(F)=C3C(N)=O)=N2)=CC=C1S(N)(=O)=O

>  <Kd (nM)>


>  <Assay (Kd)>


>  <Ki (nM)>


>  <Assay (Ki)>


>  <IC50 (nM)>


>  <Assay (IC50)>


>  <EC50 (nM)>


>  <Assay (EC50)>


>  <Article DOI>
10.1016/j.cell.2020.10.038

>  <Molecular Weight>
495.334

>  <Exact Mass>
494.017199692

>  <XLogP3>
3.1

>  <Heavy Atom Count>
30

>  <Ring Count>
3

>  <Hydrogen Bond Acceptor Count>
7

>  <Hydrogen Bond Donor Count>
4

>  <Rotatable Bond Count>
6

>  <Topological Polar Surface Area>
153.09

>  <Molecular Formula>
C18H16BrFN6O3S

>  <InChI>
InChI=1S/C18H16BrFN6O3S/c1-9-7-10(5-6-14(9)30(22,28)29)24-18-23-8-11(19)17(26-18)25-13-4-2-3-12(20)15(13)16(21)27/h2-8H,1H3,(H2,21,27)(H2,22,28,29)(H2,23,24,25,26)

>  <InChI Key>
IDMHFFLVANCQJA-UHFFFAOYSA-N

>  <BindingDB>


>  <PubChem>


>  <ChEMBL>


$$$$
Compound 446
Actelion Java MolfileCreator 2.0

  0  0  0  0  0  0              0 V3000
M  V30 BEGIN CTAB
M  V30 COUNTS 30 32 0 0 0
M  V30 BEGIN ATOM
M  V30 1 Br 0.0 0.0 0.0 0
M  V30 2 C 0.9258 -1.1719 0.0 0
M  V30 3 C 0.3632 -2.5547 0.0 0
M  V30 4 C 2.4024 -0.9375 0.0 0
M  V30 5 N 1.2891 -3.7266 0.0 0
M  V30 6 N -1.1367 -2.7657 0.0 0
M  V30 7 N 3.3282 -2.1094 0.0 0
M  V30 8 C 2.7657 -3.4922 0.0 0
M  V30 9 C -1.6992 -4.1485 0.0 0
M  V30 10 N 3.6915 -4.6642 0.0 0
M  V30 11 C -3.1993 -4.3595 0.0 0
M  V30 12 C -0.7734 -5.3204 0.0 0
M  V30 13 C 5.1681 -4.4298 0.0 0
M  V30 14 C -3.7618 -5.7423 0.0 0
M  V30 15 C -4.1485 -3.1641 0.0 0
M  V30 16 C -1.3359 -6.7033 0.0 0
M  V30 17 C 6.0939 -5.6017 0.0 0
M  V30 18 C 5.7072 -3.0235 0.0 0
M  V30 19 F -5.2618 -5.9533 0.0 0
M  V30 20 C -2.836 -6.9142 0.0 0
M  V30 21 O -3.6094 -1.7578 0.0 0
M  V30 22 N -5.6486 -3.3751 0.0 0
M  V30 23 C 7.5705 -5.3673 0.0 0
M  V30 24 C 7.1838 -2.7891 0.0 0
M  V30 25 C 8.1096 -3.961 0.0 0
M  V30 26 C 8.4963 -6.5392 0.0 0
M  V30 27 S 9.5862 -3.7266 0.0 0
M  V30 28 O 9.3518 -2.2266 0.0 0
M  V30 29 O 9.7971 -5.2032 0.0 0
M  V30 30 N 11.0628 -3.4922 0.0 0
M  V30 END ATOM
M  V30 BEGIN BOND
M  V30 1 1 1 2
M  V30 2 2 2 3
M  V30 3 1 2 4
M  V30 4 1 3 5
M  V30 5 1 3 6
M  V30 6 2 4 7
M  V30 7 2 5 8
M  V30 8 1 6 9
M  V30 9 1 8 10
M  V30 10 2 9 11
M  V30 11 1 9 12
M  V30 12 1 10 13
M  V30 13 1 11 14
M  V30 14 1 11 15
M  V30 15 2 12 16
M  V30 16 2 13 17
M  V30 17 1 13 18
M  V30 18 1 14 19
M  V30 19 2 14 20
M  V30 20 2 15 21
M  V30 21 1 15 22
M  V30 22 1 17 23
M  V30 23 2 18 24
M  V30 24 2 23 25
M  V30 25 1 23 26
M  V30 26 1 25 27
M  V30 27 2 27 28
M  V30 28 2 27 29
M  V30 29 1 27 30
M  V30 30 1 7 8
M  V30 31 1 16 20
M  V30 32 1 24 25
M  V30 END BOND
M  V30 END CTAB
M  END
>  <Compound ID>
131

>  <Name>
TMX-3012

>  <Uniprot>
P51957

>  <Target>
NEK4

>  <Smiles>
CC1=CC(NC2=NC=C(Br)C(NC3=CC=CC(F)=C3C(N)=O)=N2)=CC=C1S(N)(=O)=O

>  <Kd (nM)>


>  <Assay (Kd)>


>  <Ki (nM)>


>  <Assay (Ki)>


>  <IC50 (nM)>


>  <Assay (IC50)>


>  <EC50 (nM)>


>  <Assay (EC50)>


>  <Article DOI>
10.1016/j.cell.2020.10.038

>  <Molecular Weight>
495.334

>  <Exact Mass>
494.017199692

>  <XLogP3>
3.1

>  <Heavy Atom Count>
30

>  <Ring Count>
3

>  <Hydrogen Bond Acceptor Count>
7

>  <Hydrogen Bond Donor Count>
4

>  <Rotatable Bond Count>
6

>  <Topological Polar Surface Area>
153.09

>  <Molecular Formula>
C18H16BrFN6O3S

>  <InChI>
InChI=1S/C18H16BrFN6O3S/c1-9-7-10(5-6-14(9)30(22,28)29)24-18-23-8-11(19)17(26-18)25-13-4-2-3-12(20)15(13)16(21)27/h2-8H,1H3,(H2,21,27)(H2,22,28,29)(H2,23,24,25,26)

>  <InChI Key>
IDMHFFLVANCQJA-UHFFFAOYSA-N

>  <BindingDB>


>  <PubChem>


>  <ChEMBL>


$$$$
Compound 447
Actelion Java MolfileCreator 2.0

  0  0  0  0  0  0              0 V3000
M  V30 BEGIN CTAB
M  V30 COUNTS 30 32 0 0 0
M  V30 BEGIN ATOM
M  V30 1 Br 0.0 0.0 0.0 0
M  V30 2 C 0.9258 -1.1719 0.0 0
M  V30 3 C 0.3632 -2.5547 0.0 0
M  V30 4 C 2.4024 -0.9375 0.0 0
M  V30 5 N 1.2891 -3.7266 0.0 0
M  V30 6 N -1.1367 -2.7657 0.0 0
M  V30 7 N 3.3282 -2.1094 0.0 0
M  V30 8 C 2.7657 -3.4922 0.0 0
M  V30 9 C -1.6992 -4.1485 0.0 0
M  V30 10 N 3.6915 -4.6642 0.0 0
M  V30 11 C -3.1993 -4.3595 0.0 0
M  V30 12 C -0.7734 -5.3204 0.0 0
M  V30 13 C 5.1681 -4.4298 0.0 0
M  V30 14 C -3.7618 -5.7423 0.0 0
M  V30 15 C -4.1485 -3.1641 0.0 0
M  V30 16 C -1.3359 -6.7033 0.0 0
M  V30 17 C 6.0939 -5.6017 0.0 0
M  V30 18 C 5.7072 -3.0235 0.0 0
M  V30 19 F -5.2618 -5.9533 0.0 0
M  V30 20 C -2.836 -6.9142 0.0 0
M  V30 21 O -3.6094 -1.7578 0.0 0
M  V30 22 N -5.6486 -3.3751 0.0 0
M  V30 23 C 7.5705 -5.3673 0.0 0
M  V30 24 C 7.1838 -2.7891 0.0 0
M  V30 25 C 8.1096 -3.961 0.0 0
M  V30 26 C 8.4963 -6.5392 0.0 0
M  V30 27 S 9.5862 -3.7266 0.0 0
M  V30 28 O 9.3518 -2.2266 0.0 0
M  V30 29 O 9.7971 -5.2032 0.0 0
M  V30 30 N 11.0628 -3.4922 0.0 0
M  V30 END ATOM
M  V30 BEGIN BOND
M  V30 1 1 1 2
M  V30 2 2 2 3
M  V30 3 1 2 4
M  V30 4 1 3 5
M  V30 5 1 3 6
M  V30 6 2 4 7
M  V30 7 2 5 8
M  V30 8 1 6 9
M  V30 9 1 8 10
M  V30 10 2 9 11
M  V30 11 1 9 12
M  V30 12 1 10 13
M  V30 13 1 11 14
M  V30 14 1 11 15
M  V30 15 2 12 16
M  V30 16 2 13 17
M  V30 17 1 13 18
M  V30 18 1 14 19
M  V30 19 2 14 20
M  V30 20 2 15 21
M  V30 21 1 15 22
M  V30 22 1 17 23
M  V30 23 2 18 24
M  V30 24 2 23 25
M  V30 25 1 23 26
M  V30 26 1 25 27
M  V30 27 2 27 28
M  V30 28 2 27 29
M  V30 29 1 27 30
M  V30 30 1 7 8
M  V30 31 1 16 20
M  V30 32 1 24 25
M  V30 END BOND
M  V30 END CTAB
M  END
>  <Compound ID>
131

>  <Name>
TMX-3012

>  <Uniprot>
Q8TD19

>  <Target>
NEK9

>  <Smiles>
CC1=CC(NC2=NC=C(Br)C(NC3=CC=CC(F)=C3C(N)=O)=N2)=CC=C1S(N)(=O)=O

>  <Kd (nM)>


>  <Assay (Kd)>


>  <Ki (nM)>


>  <Assay (Ki)>


>  <IC50 (nM)>


>  <Assay (IC50)>


>  <EC50 (nM)>


>  <Assay (EC50)>


>  <Article DOI>
10.1016/j.cell.2020.10.038

>  <Molecular Weight>
495.334

>  <Exact Mass>
494.017199692

>  <XLogP3>
3.1

>  <Heavy Atom Count>
30

>  <Ring Count>
3

>  <Hydrogen Bond Acceptor Count>
7

>  <Hydrogen Bond Donor Count>
4

>  <Rotatable Bond Count>
6

>  <Topological Polar Surface Area>
153.09

>  <Molecular Formula>
C18H16BrFN6O3S

>  <InChI>
InChI=1S/C18H16BrFN6O3S/c1-9-7-10(5-6-14(9)30(22,28)29)24-18-23-8-11(19)17(26-18)25-13-4-2-3-12(20)15(13)16(21)27/h2-8H,1H3,(H2,21,27)(H2,22,28,29)(H2,23,24,25,26)

>  <InChI Key>
IDMHFFLVANCQJA-UHFFFAOYSA-N

>  <BindingDB>


>  <PubChem>


>  <ChEMBL>


$$$$
Compound 448
Actelion Java MolfileCreator 2.0

  0  0  0  0  0  0              0 V3000
M  V30 BEGIN CTAB
M  V30 COUNTS 30 32 0 0 0
M  V30 BEGIN ATOM
M  V30 1 Br 0.0 0.0 0.0 0
M  V30 2 C 0.9258 -1.1719 0.0 0
M  V30 3 C 0.3632 -2.5547 0.0 0
M  V30 4 C 2.4024 -0.9375 0.0 0
M  V30 5 N 1.2891 -3.7266 0.0 0
M  V30 6 N -1.1367 -2.7657 0.0 0
M  V30 7 N 3.3282 -2.1094 0.0 0
M  V30 8 C 2.7657 -3.4922 0.0 0
M  V30 9 C -1.6992 -4.1485 0.0 0
M  V30 10 N 3.6915 -4.6642 0.0 0
M  V30 11 C -3.1993 -4.3595 0.0 0
M  V30 12 C -0.7734 -5.3204 0.0 0
M  V30 13 C 5.1681 -4.4298 0.0 0
M  V30 14 C -3.7618 -5.7423 0.0 0
M  V30 15 C -4.1485 -3.1641 0.0 0
M  V30 16 C -1.3359 -6.7033 0.0 0
M  V30 17 C 6.0939 -5.6017 0.0 0
M  V30 18 C 5.7072 -3.0235 0.0 0
M  V30 19 F -5.2618 -5.9533 0.0 0
M  V30 20 C -2.836 -6.9142 0.0 0
M  V30 21 O -3.6094 -1.7578 0.0 0
M  V30 22 N -5.6486 -3.3751 0.0 0
M  V30 23 C 7.5705 -5.3673 0.0 0
M  V30 24 C 7.1838 -2.7891 0.0 0
M  V30 25 C 8.1096 -3.961 0.0 0
M  V30 26 C 8.4963 -6.5392 0.0 0
M  V30 27 S 9.5862 -3.7266 0.0 0
M  V30 28 O 9.3518 -2.2266 0.0 0
M  V30 29 O 9.7971 -5.2032 0.0 0
M  V30 30 N 11.0628 -3.4922 0.0 0
M  V30 END ATOM
M  V30 BEGIN BOND
M  V30 1 1 1 2
M  V30 2 2 2 3
M  V30 3 1 2 4
M  V30 4 1 3 5
M  V30 5 1 3 6
M  V30 6 2 4 7
M  V30 7 2 5 8
M  V30 8 1 6 9
M  V30 9 1 8 10
M  V30 10 2 9 11
M  V30 11 1 9 12
M  V30 12 1 10 13
M  V30 13 1 11 14
M  V30 14 1 11 15
M  V30 15 2 12 16
M  V30 16 2 13 17
M  V30 17 1 13 18
M  V30 18 1 14 19
M  V30 19 2 14 20
M  V30 20 2 15 21
M  V30 21 1 15 22
M  V30 22 1 17 23
M  V30 23 2 18 24
M  V30 24 2 23 25
M  V30 25 1 23 26
M  V30 26 1 25 27
M  V30 27 2 27 28
M  V30 28 2 27 29
M  V30 29 1 27 30
M  V30 30 1 7 8
M  V30 31 1 16 20
M  V30 32 1 24 25
M  V30 END BOND
M  V30 END CTAB
M  END
>  <Compound ID>
131

>  <Name>
TMX-3012

>  <Uniprot>
O60285

>  <Target>
NUAK1

>  <Smiles>
CC1=CC(NC2=NC=C(Br)C(NC3=CC=CC(F)=C3C(N)=O)=N2)=CC=C1S(N)(=O)=O

>  <Kd (nM)>


>  <Assay (Kd)>


>  <Ki (nM)>


>  <Assay (Ki)>


>  <IC50 (nM)>


>  <Assay (IC50)>


>  <EC50 (nM)>


>  <Assay (EC50)>


>  <Article DOI>
10.1016/j.cell.2020.10.038

>  <Molecular Weight>
495.334

>  <Exact Mass>
494.017199692

>  <XLogP3>
3.1

>  <Heavy Atom Count>
30

>  <Ring Count>
3

>  <Hydrogen Bond Acceptor Count>
7

>  <Hydrogen Bond Donor Count>
4

>  <Rotatable Bond Count>
6

>  <Topological Polar Surface Area>
153.09

>  <Molecular Formula>
C18H16BrFN6O3S

>  <InChI>
InChI=1S/C18H16BrFN6O3S/c1-9-7-10(5-6-14(9)30(22,28)29)24-18-23-8-11(19)17(26-18)25-13-4-2-3-12(20)15(13)16(21)27/h2-8H,1H3,(H2,21,27)(H2,22,28,29)(H2,23,24,25,26)

>  <InChI Key>
IDMHFFLVANCQJA-UHFFFAOYSA-N

>  <BindingDB>


>  <PubChem>


>  <ChEMBL>


$$$$
Compound 449
Actelion Java MolfileCreator 2.0

  0  0  0  0  0  0              0 V3000
M  V30 BEGIN CTAB
M  V30 COUNTS 30 32 0 0 0
M  V30 BEGIN ATOM
M  V30 1 Br 0.0 0.0 0.0 0
M  V30 2 C 0.9258 -1.1719 0.0 0
M  V30 3 C 0.3632 -2.5547 0.0 0
M  V30 4 C 2.4024 -0.9375 0.0 0
M  V30 5 N 1.2891 -3.7266 0.0 0
M  V30 6 N -1.1367 -2.7657 0.0 0
M  V30 7 N 3.3282 -2.1094 0.0 0
M  V30 8 C 2.7657 -3.4922 0.0 0
M  V30 9 C -1.6992 -4.1485 0.0 0
M  V30 10 N 3.6915 -4.6642 0.0 0
M  V30 11 C -3.1993 -4.3595 0.0 0
M  V30 12 C -0.7734 -5.3204 0.0 0
M  V30 13 C 5.1681 -4.4298 0.0 0
M  V30 14 C -3.7618 -5.7423 0.0 0
M  V30 15 C -4.1485 -3.1641 0.0 0
M  V30 16 C -1.3359 -6.7033 0.0 0
M  V30 17 C 6.0939 -5.6017 0.0 0
M  V30 18 C 5.7072 -3.0235 0.0 0
M  V30 19 F -5.2618 -5.9533 0.0 0
M  V30 20 C -2.836 -6.9142 0.0 0
M  V30 21 O -3.6094 -1.7578 0.0 0
M  V30 22 N -5.6486 -3.3751 0.0 0
M  V30 23 C 7.5705 -5.3673 0.0 0
M  V30 24 C 7.1838 -2.7891 0.0 0
M  V30 25 C 8.1096 -3.961 0.0 0
M  V30 26 C 8.4963 -6.5392 0.0 0
M  V30 27 S 9.5862 -3.7266 0.0 0
M  V30 28 O 9.3518 -2.2266 0.0 0
M  V30 29 O 9.7971 -5.2032 0.0 0
M  V30 30 N 11.0628 -3.4922 0.0 0
M  V30 END ATOM
M  V30 BEGIN BOND
M  V30 1 1 1 2
M  V30 2 2 2 3
M  V30 3 1 2 4
M  V30 4 1 3 5
M  V30 5 1 3 6
M  V30 6 2 4 7
M  V30 7 2 5 8
M  V30 8 1 6 9
M  V30 9 1 8 10
M  V30 10 2 9 11
M  V30 11 1 9 12
M  V30 12 1 10 13
M  V30 13 1 11 14
M  V30 14 1 11 15
M  V30 15 2 12 16
M  V30 16 2 13 17
M  V30 17 1 13 18
M  V30 18 1 14 19
M  V30 19 2 14 20
M  V30 20 2 15 21
M  V30 21 1 15 22
M  V30 22 1 17 23
M  V30 23 2 18 24
M  V30 24 2 23 25
M  V30 25 1 23 26
M  V30 26 1 25 27
M  V30 27 2 27 28
M  V30 28 2 27 29
M  V30 29 1 27 30
M  V30 30 1 7 8
M  V30 31 1 16 20
M  V30 32 1 24 25
M  V30 END BOND
M  V30 END CTAB
M  END
>  <Compound ID>
131

>  <Name>
TMX-3012

>  <Uniprot>
Q13131

>  <Target>
PRKAA1

>  <Smiles>
CC1=CC(NC2=NC=C(Br)C(NC3=CC=CC(F)=C3C(N)=O)=N2)=CC=C1S(N)(=O)=O

>  <Kd (nM)>


>  <Assay (Kd)>


>  <Ki (nM)>


>  <Assay (Ki)>


>  <IC50 (nM)>


>  <Assay (IC50)>


>  <EC50 (nM)>


>  <Assay (EC50)>


>  <Article DOI>
10.1016/j.cell.2020.10.038

>  <Molecular Weight>
495.334

>  <Exact Mass>
494.017199692

>  <XLogP3>
3.1

>  <Heavy Atom Count>
30

>  <Ring Count>
3

>  <Hydrogen Bond Acceptor Count>
7

>  <Hydrogen Bond Donor Count>
4

>  <Rotatable Bond Count>
6

>  <Topological Polar Surface Area>
153.09

>  <Molecular Formula>
C18H16BrFN6O3S

>  <InChI>
InChI=1S/C18H16BrFN6O3S/c1-9-7-10(5-6-14(9)30(22,28)29)24-18-23-8-11(19)17(26-18)25-13-4-2-3-12(20)15(13)16(21)27/h2-8H,1H3,(H2,21,27)(H2,22,28,29)(H2,23,24,25,26)

>  <InChI Key>
IDMHFFLVANCQJA-UHFFFAOYSA-N

>  <BindingDB>


>  <PubChem>


>  <ChEMBL>


$$$$
Compound 450
Actelion Java MolfileCreator 2.0

  0  0  0  0  0  0              0 V3000
M  V30 BEGIN CTAB
M  V30 COUNTS 30 32 0 0 0
M  V30 BEGIN ATOM
M  V30 1 Br 0.0 0.0 0.0 0
M  V30 2 C 0.9258 -1.1719 0.0 0
M  V30 3 C 0.3632 -2.5547 0.0 0
M  V30 4 C 2.4024 -0.9375 0.0 0
M  V30 5 N 1.2891 -3.7266 0.0 0
M  V30 6 N -1.1367 -2.7657 0.0 0
M  V30 7 N 3.3282 -2.1094 0.0 0
M  V30 8 C 2.7657 -3.4922 0.0 0
M  V30 9 C -1.6992 -4.1485 0.0 0
M  V30 10 N 3.6915 -4.6642 0.0 0
M  V30 11 C -3.1993 -4.3595 0.0 0
M  V30 12 C -0.7734 -5.3204 0.0 0
M  V30 13 C 5.1681 -4.4298 0.0 0
M  V30 14 C -3.7618 -5.7423 0.0 0
M  V30 15 C -4.1485 -3.1641 0.0 0
M  V30 16 C -1.3359 -6.7033 0.0 0
M  V30 17 C 6.0939 -5.6017 0.0 0
M  V30 18 C 5.7072 -3.0235 0.0 0
M  V30 19 F -5.2618 -5.9533 0.0 0
M  V30 20 C -2.836 -6.9142 0.0 0
M  V30 21 O -3.6094 -1.7578 0.0 0
M  V30 22 N -5.6486 -3.3751 0.0 0
M  V30 23 C 7.5705 -5.3673 0.0 0
M  V30 24 C 7.1838 -2.7891 0.0 0
M  V30 25 C 8.1096 -3.961 0.0 0
M  V30 26 C 8.4963 -6.5392 0.0 0
M  V30 27 S 9.5862 -3.7266 0.0 0
M  V30 28 O 9.3518 -2.2266 0.0 0
M  V30 29 O 9.7971 -5.2032 0.0 0
M  V30 30 N 11.0628 -3.4922 0.0 0
M  V30 END ATOM
M  V30 BEGIN BOND
M  V30 1 1 1 2
M  V30 2 2 2 3
M  V30 3 1 2 4
M  V30 4 1 3 5
M  V30 5 1 3 6
M  V30 6 2 4 7
M  V30 7 2 5 8
M  V30 8 1 6 9
M  V30 9 1 8 10
M  V30 10 2 9 11
M  V30 11 1 9 12
M  V30 12 1 10 13
M  V30 13 1 11 14
M  V30 14 1 11 15
M  V30 15 2 12 16
M  V30 16 2 13 17
M  V30 17 1 13 18
M  V30 18 1 14 19
M  V30 19 2 14 20
M  V30 20 2 15 21
M  V30 21 1 15 22
M  V30 22 1 17 23
M  V30 23 2 18 24
M  V30 24 2 23 25
M  V30 25 1 23 26
M  V30 26 1 25 27
M  V30 27 2 27 28
M  V30 28 2 27 29
M  V30 29 1 27 30
M  V30 30 1 7 8
M  V30 31 1 16 20
M  V30 32 1 24 25
M  V30 END BOND
M  V30 END CTAB
M  END
>  <Compound ID>
131

>  <Name>
TMX-3012

>  <Uniprot>
P54646

>  <Target>
PRKAA2

>  <Smiles>
CC1=CC(NC2=NC=C(Br)C(NC3=CC=CC(F)=C3C(N)=O)=N2)=CC=C1S(N)(=O)=O

>  <Kd (nM)>


>  <Assay (Kd)>


>  <Ki (nM)>


>  <Assay (Ki)>


>  <IC50 (nM)>


>  <Assay (IC50)>


>  <EC50 (nM)>


>  <Assay (EC50)>


>  <Article DOI>
10.1016/j.cell.2020.10.038

>  <Molecular Weight>
495.334

>  <Exact Mass>
494.017199692

>  <XLogP3>
3.1

>  <Heavy Atom Count>
30

>  <Ring Count>
3

>  <Hydrogen Bond Acceptor Count>
7

>  <Hydrogen Bond Donor Count>
4

>  <Rotatable Bond Count>
6

>  <Topological Polar Surface Area>
153.09

>  <Molecular Formula>
C18H16BrFN6O3S

>  <InChI>
InChI=1S/C18H16BrFN6O3S/c1-9-7-10(5-6-14(9)30(22,28)29)24-18-23-8-11(19)17(26-18)25-13-4-2-3-12(20)15(13)16(21)27/h2-8H,1H3,(H2,21,27)(H2,22,28,29)(H2,23,24,25,26)

>  <InChI Key>
IDMHFFLVANCQJA-UHFFFAOYSA-N

>  <BindingDB>


>  <PubChem>


>  <ChEMBL>


$$$$
Compound 451
Actelion Java MolfileCreator 2.0

  0  0  0  0  0  0              0 V3000
M  V30 BEGIN CTAB
M  V30 COUNTS 30 32 0 0 0
M  V30 BEGIN ATOM
M  V30 1 Br 0.0 0.0 0.0 0
M  V30 2 C 0.9258 -1.1719 0.0 0
M  V30 3 C 0.3632 -2.5547 0.0 0
M  V30 4 C 2.4024 -0.9375 0.0 0
M  V30 5 N 1.2891 -3.7266 0.0 0
M  V30 6 N -1.1367 -2.7657 0.0 0
M  V30 7 N 3.3282 -2.1094 0.0 0
M  V30 8 C 2.7657 -3.4922 0.0 0
M  V30 9 C -1.6992 -4.1485 0.0 0
M  V30 10 N 3.6915 -4.6642 0.0 0
M  V30 11 C -3.1993 -4.3595 0.0 0
M  V30 12 C -0.7734 -5.3204 0.0 0
M  V30 13 C 5.1681 -4.4298 0.0 0
M  V30 14 C -3.7618 -5.7423 0.0 0
M  V30 15 C -4.1485 -3.1641 0.0 0
M  V30 16 C -1.3359 -6.7033 0.0 0
M  V30 17 C 6.0939 -5.6017 0.0 0
M  V30 18 C 5.7072 -3.0235 0.0 0
M  V30 19 F -5.2618 -5.9533 0.0 0
M  V30 20 C -2.836 -6.9142 0.0 0
M  V30 21 O -3.6094 -1.7578 0.0 0
M  V30 22 N -5.6486 -3.3751 0.0 0
M  V30 23 C 7.5705 -5.3673 0.0 0
M  V30 24 C 7.1838 -2.7891 0.0 0
M  V30 25 C 8.1096 -3.961 0.0 0
M  V30 26 C 8.4963 -6.5392 0.0 0
M  V30 27 S 9.5862 -3.7266 0.0 0
M  V30 28 O 9.3518 -2.2266 0.0 0
M  V30 29 O 9.7971 -5.2032 0.0 0
M  V30 30 N 11.0628 -3.4922 0.0 0
M  V30 END ATOM
M  V30 BEGIN BOND
M  V30 1 1 1 2
M  V30 2 2 2 3
M  V30 3 1 2 4
M  V30 4 1 3 5
M  V30 5 1 3 6
M  V30 6 2 4 7
M  V30 7 2 5 8
M  V30 8 1 6 9
M  V30 9 1 8 10
M  V30 10 2 9 11
M  V30 11 1 9 12
M  V30 12 1 10 13
M  V30 13 1 11 14
M  V30 14 1 11 15
M  V30 15 2 12 16
M  V30 16 2 13 17
M  V30 17 1 13 18
M  V30 18 1 14 19
M  V30 19 2 14 20
M  V30 20 2 15 21
M  V30 21 1 15 22
M  V30 22 1 17 23
M  V30 23 2 18 24
M  V30 24 2 23 25
M  V30 25 1 23 26
M  V30 26 1 25 27
M  V30 27 2 27 28
M  V30 28 2 27 29
M  V30 29 1 27 30
M  V30 30 1 7 8
M  V30 31 1 16 20
M  V30 32 1 24 25
M  V30 END BOND
M  V30 END CTAB
M  END
>  <Compound ID>
131

>  <Name>
TMX-3012

>  <Uniprot>
Q14289

>  <Target>
PTK2B

>  <Smiles>
CC1=CC(NC2=NC=C(Br)C(NC3=CC=CC(F)=C3C(N)=O)=N2)=CC=C1S(N)(=O)=O

>  <Kd (nM)>


>  <Assay (Kd)>


>  <Ki (nM)>


>  <Assay (Ki)>


>  <IC50 (nM)>


>  <Assay (IC50)>


>  <EC50 (nM)>


>  <Assay (EC50)>


>  <Article DOI>
10.1016/j.cell.2020.10.038

>  <Molecular Weight>
495.334

>  <Exact Mass>
494.017199692

>  <XLogP3>
3.1

>  <Heavy Atom Count>
30

>  <Ring Count>
3

>  <Hydrogen Bond Acceptor Count>
7

>  <Hydrogen Bond Donor Count>
4

>  <Rotatable Bond Count>
6

>  <Topological Polar Surface Area>
153.09

>  <Molecular Formula>
C18H16BrFN6O3S

>  <InChI>
InChI=1S/C18H16BrFN6O3S/c1-9-7-10(5-6-14(9)30(22,28)29)24-18-23-8-11(19)17(26-18)25-13-4-2-3-12(20)15(13)16(21)27/h2-8H,1H3,(H2,21,27)(H2,22,28,29)(H2,23,24,25,26)

>  <InChI Key>
IDMHFFLVANCQJA-UHFFFAOYSA-N

>  <BindingDB>


>  <PubChem>


>  <ChEMBL>


$$$$
Compound 452
Actelion Java MolfileCreator 2.0

  0  0  0  0  0  0              0 V3000
M  V30 BEGIN CTAB
M  V30 COUNTS 30 32 0 0 0
M  V30 BEGIN ATOM
M  V30 1 Br 0.0 0.0 0.0 0
M  V30 2 C 0.9258 -1.1719 0.0 0
M  V30 3 C 0.3632 -2.5547 0.0 0
M  V30 4 C 2.4024 -0.9375 0.0 0
M  V30 5 N 1.2891 -3.7266 0.0 0
M  V30 6 N -1.1367 -2.7657 0.0 0
M  V30 7 N 3.3282 -2.1094 0.0 0
M  V30 8 C 2.7657 -3.4922 0.0 0
M  V30 9 C -1.6992 -4.1485 0.0 0
M  V30 10 N 3.6915 -4.6642 0.0 0
M  V30 11 C -3.1993 -4.3595 0.0 0
M  V30 12 C -0.7734 -5.3204 0.0 0
M  V30 13 C 5.1681 -4.4298 0.0 0
M  V30 14 C -3.7618 -5.7423 0.0 0
M  V30 15 C -4.1485 -3.1641 0.0 0
M  V30 16 C -1.3359 -6.7033 0.0 0
M  V30 17 C 6.0939 -5.6017 0.0 0
M  V30 18 C 5.7072 -3.0235 0.0 0
M  V30 19 F -5.2618 -5.9533 0.0 0
M  V30 20 C -2.836 -6.9142 0.0 0
M  V30 21 O -3.6094 -1.7578 0.0 0
M  V30 22 N -5.6486 -3.3751 0.0 0
M  V30 23 C 7.5705 -5.3673 0.0 0
M  V30 24 C 7.1838 -2.7891 0.0 0
M  V30 25 C 8.1096 -3.961 0.0 0
M  V30 26 C 8.4963 -6.5392 0.0 0
M  V30 27 S 9.5862 -3.7266 0.0 0
M  V30 28 O 9.3518 -2.2266 0.0 0
M  V30 29 O 9.7971 -5.2032 0.0 0
M  V30 30 N 11.0628 -3.4922 0.0 0
M  V30 END ATOM
M  V30 BEGIN BOND
M  V30 1 1 1 2
M  V30 2 2 2 3
M  V30 3 1 2 4
M  V30 4 1 3 5
M  V30 5 1 3 6
M  V30 6 2 4 7
M  V30 7 2 5 8
M  V30 8 1 6 9
M  V30 9 1 8 10
M  V30 10 2 9 11
M  V30 11 1 9 12
M  V30 12 1 10 13
M  V30 13 1 11 14
M  V30 14 1 11 15
M  V30 15 2 12 16
M  V30 16 2 13 17
M  V30 17 1 13 18
M  V30 18 1 14 19
M  V30 19 2 14 20
M  V30 20 2 15 21
M  V30 21 1 15 22
M  V30 22 1 17 23
M  V30 23 2 18 24
M  V30 24 2 23 25
M  V30 25 1 23 26
M  V30 26 1 25 27
M  V30 27 2 27 28
M  V30 28 2 27 29
M  V30 29 1 27 30
M  V30 30 1 7 8
M  V30 31 1 16 20
M  V30 32 1 24 25
M  V30 END BOND
M  V30 END CTAB
M  END
>  <Compound ID>
131

>  <Name>
TMX-3012

>  <Uniprot>
Q15418

>  <Target>
RPS6KA1

>  <Smiles>
CC1=CC(NC2=NC=C(Br)C(NC3=CC=CC(F)=C3C(N)=O)=N2)=CC=C1S(N)(=O)=O

>  <Kd (nM)>


>  <Assay (Kd)>


>  <Ki (nM)>


>  <Assay (Ki)>


>  <IC50 (nM)>


>  <Assay (IC50)>


>  <EC50 (nM)>


>  <Assay (EC50)>


>  <Article DOI>
10.1016/j.cell.2020.10.038

>  <Molecular Weight>
495.334

>  <Exact Mass>
494.017199692

>  <XLogP3>
3.1

>  <Heavy Atom Count>
30

>  <Ring Count>
3

>  <Hydrogen Bond Acceptor Count>
7

>  <Hydrogen Bond Donor Count>
4

>  <Rotatable Bond Count>
6

>  <Topological Polar Surface Area>
153.09

>  <Molecular Formula>
C18H16BrFN6O3S

>  <InChI>
InChI=1S/C18H16BrFN6O3S/c1-9-7-10(5-6-14(9)30(22,28)29)24-18-23-8-11(19)17(26-18)25-13-4-2-3-12(20)15(13)16(21)27/h2-8H,1H3,(H2,21,27)(H2,22,28,29)(H2,23,24,25,26)

>  <InChI Key>
IDMHFFLVANCQJA-UHFFFAOYSA-N

>  <BindingDB>


>  <PubChem>


>  <ChEMBL>


$$$$
Compound 453
Actelion Java MolfileCreator 2.0

  0  0  0  0  0  0              0 V3000
M  V30 BEGIN CTAB
M  V30 COUNTS 30 32 0 0 0
M  V30 BEGIN ATOM
M  V30 1 Br 0.0 0.0 0.0 0
M  V30 2 C 0.9258 -1.1719 0.0 0
M  V30 3 C 0.3632 -2.5547 0.0 0
M  V30 4 C 2.4024 -0.9375 0.0 0
M  V30 5 N 1.2891 -3.7266 0.0 0
M  V30 6 N -1.1367 -2.7657 0.0 0
M  V30 7 N 3.3282 -2.1094 0.0 0
M  V30 8 C 2.7657 -3.4922 0.0 0
M  V30 9 C -1.6992 -4.1485 0.0 0
M  V30 10 N 3.6915 -4.6642 0.0 0
M  V30 11 C -3.1993 -4.3595 0.0 0
M  V30 12 C -0.7734 -5.3204 0.0 0
M  V30 13 C 5.1681 -4.4298 0.0 0
M  V30 14 C -3.7618 -5.7423 0.0 0
M  V30 15 C -4.1485 -3.1641 0.0 0
M  V30 16 C -1.3359 -6.7033 0.0 0
M  V30 17 C 6.0939 -5.6017 0.0 0
M  V30 18 C 5.7072 -3.0235 0.0 0
M  V30 19 F -5.2618 -5.9533 0.0 0
M  V30 20 C -2.836 -6.9142 0.0 0
M  V30 21 O -3.6094 -1.7578 0.0 0
M  V30 22 N -5.6486 -3.3751 0.0 0
M  V30 23 C 7.5705 -5.3673 0.0 0
M  V30 24 C 7.1838 -2.7891 0.0 0
M  V30 25 C 8.1096 -3.961 0.0 0
M  V30 26 C 8.4963 -6.5392 0.0 0
M  V30 27 S 9.5862 -3.7266 0.0 0
M  V30 28 O 9.3518 -2.2266 0.0 0
M  V30 29 O 9.7971 -5.2032 0.0 0
M  V30 30 N 11.0628 -3.4922 0.0 0
M  V30 END ATOM
M  V30 BEGIN BOND
M  V30 1 1 1 2
M  V30 2 2 2 3
M  V30 3 1 2 4
M  V30 4 1 3 5
M  V30 5 1 3 6
M  V30 6 2 4 7
M  V30 7 2 5 8
M  V30 8 1 6 9
M  V30 9 1 8 10
M  V30 10 2 9 11
M  V30 11 1 9 12
M  V30 12 1 10 13
M  V30 13 1 11 14
M  V30 14 1 11 15
M  V30 15 2 12 16
M  V30 16 2 13 17
M  V30 17 1 13 18
M  V30 18 1 14 19
M  V30 19 2 14 20
M  V30 20 2 15 21
M  V30 21 1 15 22
M  V30 22 1 17 23
M  V30 23 2 18 24
M  V30 24 2 23 25
M  V30 25 1 23 26
M  V30 26 1 25 27
M  V30 27 2 27 28
M  V30 28 2 27 29
M  V30 29 1 27 30
M  V30 30 1 7 8
M  V30 31 1 16 20
M  V30 32 1 24 25
M  V30 END BOND
M  V30 END CTAB
M  END
>  <Compound ID>
131

>  <Name>
TMX-3012

>  <Uniprot>
P51812

>  <Target>
RPS6KA3

>  <Smiles>
CC1=CC(NC2=NC=C(Br)C(NC3=CC=CC(F)=C3C(N)=O)=N2)=CC=C1S(N)(=O)=O

>  <Kd (nM)>


>  <Assay (Kd)>


>  <Ki (nM)>


>  <Assay (Ki)>


>  <IC50 (nM)>


>  <Assay (IC50)>


>  <EC50 (nM)>


>  <Assay (EC50)>


>  <Article DOI>
10.1016/j.cell.2020.10.038

>  <Molecular Weight>
495.334

>  <Exact Mass>
494.017199692

>  <XLogP3>
3.1

>  <Heavy Atom Count>
30

>  <Ring Count>
3

>  <Hydrogen Bond Acceptor Count>
7

>  <Hydrogen Bond Donor Count>
4

>  <Rotatable Bond Count>
6

>  <Topological Polar Surface Area>
153.09

>  <Molecular Formula>
C18H16BrFN6O3S

>  <InChI>
InChI=1S/C18H16BrFN6O3S/c1-9-7-10(5-6-14(9)30(22,28)29)24-18-23-8-11(19)17(26-18)25-13-4-2-3-12(20)15(13)16(21)27/h2-8H,1H3,(H2,21,27)(H2,22,28,29)(H2,23,24,25,26)

>  <InChI Key>
IDMHFFLVANCQJA-UHFFFAOYSA-N

>  <BindingDB>


>  <PubChem>


>  <ChEMBL>


$$$$
Compound 454
Actelion Java MolfileCreator 2.0

  0  0  0  0  0  0              0 V3000
M  V30 BEGIN CTAB
M  V30 COUNTS 30 32 0 0 0
M  V30 BEGIN ATOM
M  V30 1 Br 0.0 0.0 0.0 0
M  V30 2 C 0.9258 -1.1719 0.0 0
M  V30 3 C 0.3632 -2.5547 0.0 0
M  V30 4 C 2.4024 -0.9375 0.0 0
M  V30 5 N 1.2891 -3.7266 0.0 0
M  V30 6 N -1.1367 -2.7657 0.0 0
M  V30 7 N 3.3282 -2.1094 0.0 0
M  V30 8 C 2.7657 -3.4922 0.0 0
M  V30 9 C -1.6992 -4.1485 0.0 0
M  V30 10 N 3.6915 -4.6642 0.0 0
M  V30 11 C -3.1993 -4.3595 0.0 0
M  V30 12 C -0.7734 -5.3204 0.0 0
M  V30 13 C 5.1681 -4.4298 0.0 0
M  V30 14 C -3.7618 -5.7423 0.0 0
M  V30 15 C -4.1485 -3.1641 0.0 0
M  V30 16 C -1.3359 -6.7033 0.0 0
M  V30 17 C 6.0939 -5.6017 0.0 0
M  V30 18 C 5.7072 -3.0235 0.0 0
M  V30 19 F -5.2618 -5.9533 0.0 0
M  V30 20 C -2.836 -6.9142 0.0 0
M  V30 21 O -3.6094 -1.7578 0.0 0
M  V30 22 N -5.6486 -3.3751 0.0 0
M  V30 23 C 7.5705 -5.3673 0.0 0
M  V30 24 C 7.1838 -2.7891 0.0 0
M  V30 25 C 8.1096 -3.961 0.0 0
M  V30 26 C 8.4963 -6.5392 0.0 0
M  V30 27 S 9.5862 -3.7266 0.0 0
M  V30 28 O 9.3518 -2.2266 0.0 0
M  V30 29 O 9.7971 -5.2032 0.0 0
M  V30 30 N 11.0628 -3.4922 0.0 0
M  V30 END ATOM
M  V30 BEGIN BOND
M  V30 1 1 1 2
M  V30 2 2 2 3
M  V30 3 1 2 4
M  V30 4 1 3 5
M  V30 5 1 3 6
M  V30 6 2 4 7
M  V30 7 2 5 8
M  V30 8 1 6 9
M  V30 9 1 8 10
M  V30 10 2 9 11
M  V30 11 1 9 12
M  V30 12 1 10 13
M  V30 13 1 11 14
M  V30 14 1 11 15
M  V30 15 2 12 16
M  V30 16 2 13 17
M  V30 17 1 13 18
M  V30 18 1 14 19
M  V30 19 2 14 20
M  V30 20 2 15 21
M  V30 21 1 15 22
M  V30 22 1 17 23
M  V30 23 2 18 24
M  V30 24 2 23 25
M  V30 25 1 23 26
M  V30 26 1 25 27
M  V30 27 2 27 28
M  V30 28 2 27 29
M  V30 29 1 27 30
M  V30 30 1 7 8
M  V30 31 1 16 20
M  V30 32 1 24 25
M  V30 END BOND
M  V30 END CTAB
M  END
>  <Compound ID>
131

>  <Name>
TMX-3012

>  <Uniprot>
O75676

>  <Target>
RPS6KA4

>  <Smiles>
CC1=CC(NC2=NC=C(Br)C(NC3=CC=CC(F)=C3C(N)=O)=N2)=CC=C1S(N)(=O)=O

>  <Kd (nM)>


>  <Assay (Kd)>


>  <Ki (nM)>


>  <Assay (Ki)>


>  <IC50 (nM)>


>  <Assay (IC50)>


>  <EC50 (nM)>


>  <Assay (EC50)>


>  <Article DOI>
10.1016/j.cell.2020.10.038

>  <Molecular Weight>
495.334

>  <Exact Mass>
494.017199692

>  <XLogP3>
3.1

>  <Heavy Atom Count>
30

>  <Ring Count>
3

>  <Hydrogen Bond Acceptor Count>
7

>  <Hydrogen Bond Donor Count>
4

>  <Rotatable Bond Count>
6

>  <Topological Polar Surface Area>
153.09

>  <Molecular Formula>
C18H16BrFN6O3S

>  <InChI>
InChI=1S/C18H16BrFN6O3S/c1-9-7-10(5-6-14(9)30(22,28)29)24-18-23-8-11(19)17(26-18)25-13-4-2-3-12(20)15(13)16(21)27/h2-8H,1H3,(H2,21,27)(H2,22,28,29)(H2,23,24,25,26)

>  <InChI Key>
IDMHFFLVANCQJA-UHFFFAOYSA-N

>  <BindingDB>


>  <PubChem>


>  <ChEMBL>


$$$$
Compound 455
Actelion Java MolfileCreator 2.0

  0  0  0  0  0  0              0 V3000
M  V30 BEGIN CTAB
M  V30 COUNTS 30 32 0 0 0
M  V30 BEGIN ATOM
M  V30 1 Br 0.0 0.0 0.0 0
M  V30 2 C 0.9258 -1.1719 0.0 0
M  V30 3 C 0.3632 -2.5547 0.0 0
M  V30 4 C 2.4024 -0.9375 0.0 0
M  V30 5 N 1.2891 -3.7266 0.0 0
M  V30 6 N -1.1367 -2.7657 0.0 0
M  V30 7 N 3.3282 -2.1094 0.0 0
M  V30 8 C 2.7657 -3.4922 0.0 0
M  V30 9 C -1.6992 -4.1485 0.0 0
M  V30 10 N 3.6915 -4.6642 0.0 0
M  V30 11 C -3.1993 -4.3595 0.0 0
M  V30 12 C -0.7734 -5.3204 0.0 0
M  V30 13 C 5.1681 -4.4298 0.0 0
M  V30 14 C -3.7618 -5.7423 0.0 0
M  V30 15 C -4.1485 -3.1641 0.0 0
M  V30 16 C -1.3359 -6.7033 0.0 0
M  V30 17 C 6.0939 -5.6017 0.0 0
M  V30 18 C 5.7072 -3.0235 0.0 0
M  V30 19 F -5.2618 -5.9533 0.0 0
M  V30 20 C -2.836 -6.9142 0.0 0
M  V30 21 O -3.6094 -1.7578 0.0 0
M  V30 22 N -5.6486 -3.3751 0.0 0
M  V30 23 C 7.5705 -5.3673 0.0 0
M  V30 24 C 7.1838 -2.7891 0.0 0
M  V30 25 C 8.1096 -3.961 0.0 0
M  V30 26 C 8.4963 -6.5392 0.0 0
M  V30 27 S 9.5862 -3.7266 0.0 0
M  V30 28 O 9.3518 -2.2266 0.0 0
M  V30 29 O 9.7971 -5.2032 0.0 0
M  V30 30 N 11.0628 -3.4922 0.0 0
M  V30 END ATOM
M  V30 BEGIN BOND
M  V30 1 1 1 2
M  V30 2 2 2 3
M  V30 3 1 2 4
M  V30 4 1 3 5
M  V30 5 1 3 6
M  V30 6 2 4 7
M  V30 7 2 5 8
M  V30 8 1 6 9
M  V30 9 1 8 10
M  V30 10 2 9 11
M  V30 11 1 9 12
M  V30 12 1 10 13
M  V30 13 1 11 14
M  V30 14 1 11 15
M  V30 15 2 12 16
M  V30 16 2 13 17
M  V30 17 1 13 18
M  V30 18 1 14 19
M  V30 19 2 14 20
M  V30 20 2 15 21
M  V30 21 1 15 22
M  V30 22 1 17 23
M  V30 23 2 18 24
M  V30 24 2 23 25
M  V30 25 1 23 26
M  V30 26 1 25 27
M  V30 27 2 27 28
M  V30 28 2 27 29
M  V30 29 1 27 30
M  V30 30 1 7 8
M  V30 31 1 16 20
M  V30 32 1 24 25
M  V30 END BOND
M  V30 END CTAB
M  END
>  <Compound ID>
131

>  <Name>
TMX-3012

>  <Uniprot>
Q9BYT3

>  <Target>
STK33

>  <Smiles>
CC1=CC(NC2=NC=C(Br)C(NC3=CC=CC(F)=C3C(N)=O)=N2)=CC=C1S(N)(=O)=O

>  <Kd (nM)>


>  <Assay (Kd)>


>  <Ki (nM)>


>  <Assay (Ki)>


>  <IC50 (nM)>


>  <Assay (IC50)>


>  <EC50 (nM)>


>  <Assay (EC50)>


>  <Article DOI>
10.1016/j.cell.2020.10.038

>  <Molecular Weight>
495.334

>  <Exact Mass>
494.017199692

>  <XLogP3>
3.1

>  <Heavy Atom Count>
30

>  <Ring Count>
3

>  <Hydrogen Bond Acceptor Count>
7

>  <Hydrogen Bond Donor Count>
4

>  <Rotatable Bond Count>
6

>  <Topological Polar Surface Area>
153.09

>  <Molecular Formula>
C18H16BrFN6O3S

>  <InChI>
InChI=1S/C18H16BrFN6O3S/c1-9-7-10(5-6-14(9)30(22,28)29)24-18-23-8-11(19)17(26-18)25-13-4-2-3-12(20)15(13)16(21)27/h2-8H,1H3,(H2,21,27)(H2,22,28,29)(H2,23,24,25,26)

>  <InChI Key>
IDMHFFLVANCQJA-UHFFFAOYSA-N

>  <BindingDB>


>  <PubChem>


>  <ChEMBL>


$$$$
Compound 456
Actelion Java MolfileCreator 2.0

  0  0  0  0  0  0              0 V3000
M  V30 BEGIN CTAB
M  V30 COUNTS 30 32 0 0 0
M  V30 BEGIN ATOM
M  V30 1 Br 0.0 0.0 0.0 0
M  V30 2 C 0.9258 -1.1719 0.0 0
M  V30 3 C 0.3632 -2.5547 0.0 0
M  V30 4 C 2.4024 -0.9375 0.0 0
M  V30 5 N 1.2891 -3.7266 0.0 0
M  V30 6 N -1.1367 -2.7657 0.0 0
M  V30 7 N 3.3282 -2.1094 0.0 0
M  V30 8 C 2.7657 -3.4922 0.0 0
M  V30 9 C -1.6992 -4.1485 0.0 0
M  V30 10 N 3.6915 -4.6642 0.0 0
M  V30 11 C -3.1993 -4.3595 0.0 0
M  V30 12 C -0.7734 -5.3204 0.0 0
M  V30 13 C 5.1681 -4.4298 0.0 0
M  V30 14 C -3.7618 -5.7423 0.0 0
M  V30 15 C -4.1485 -3.1641 0.0 0
M  V30 16 C -1.3359 -6.7033 0.0 0
M  V30 17 C 6.0939 -5.6017 0.0 0
M  V30 18 C 5.7072 -3.0235 0.0 0
M  V30 19 F -5.2618 -5.9533 0.0 0
M  V30 20 C -2.836 -6.9142 0.0 0
M  V30 21 O -3.6094 -1.7578 0.0 0
M  V30 22 N -5.6486 -3.3751 0.0 0
M  V30 23 C 7.5705 -5.3673 0.0 0
M  V30 24 C 7.1838 -2.7891 0.0 0
M  V30 25 C 8.1096 -3.961 0.0 0
M  V30 26 C 8.4963 -6.5392 0.0 0
M  V30 27 S 9.5862 -3.7266 0.0 0
M  V30 28 O 9.3518 -2.2266 0.0 0
M  V30 29 O 9.7971 -5.2032 0.0 0
M  V30 30 N 11.0628 -3.4922 0.0 0
M  V30 END ATOM
M  V30 BEGIN BOND
M  V30 1 1 1 2
M  V30 2 2 2 3
M  V30 3 1 2 4
M  V30 4 1 3 5
M  V30 5 1 3 6
M  V30 6 2 4 7
M  V30 7 2 5 8
M  V30 8 1 6 9
M  V30 9 1 8 10
M  V30 10 2 9 11
M  V30 11 1 9 12
M  V30 12 1 10 13
M  V30 13 1 11 14
M  V30 14 1 11 15
M  V30 15 2 12 16
M  V30 16 2 13 17
M  V30 17 1 13 18
M  V30 18 1 14 19
M  V30 19 2 14 20
M  V30 20 2 15 21
M  V30 21 1 15 22
M  V30 22 1 17 23
M  V30 23 2 18 24
M  V30 24 2 23 25
M  V30 25 1 23 26
M  V30 26 1 25 27
M  V30 27 2 27 28
M  V30 28 2 27 29
M  V30 29 1 27 30
M  V30 30 1 7 8
M  V30 31 1 16 20
M  V30 32 1 24 25
M  V30 END BOND
M  V30 END CTAB
M  END
>  <Compound ID>
131

>  <Name>
TMX-3012

>  <Uniprot>
Q8TDR2

>  <Target>
STK35

>  <Smiles>
CC1=CC(NC2=NC=C(Br)C(NC3=CC=CC(F)=C3C(N)=O)=N2)=CC=C1S(N)(=O)=O

>  <Kd (nM)>


>  <Assay (Kd)>


>  <Ki (nM)>


>  <Assay (Ki)>


>  <IC50 (nM)>


>  <Assay (IC50)>


>  <EC50 (nM)>


>  <Assay (EC50)>


>  <Article DOI>
10.1016/j.cell.2020.10.038

>  <Molecular Weight>
495.334

>  <Exact Mass>
494.017199692

>  <XLogP3>
3.1

>  <Heavy Atom Count>
30

>  <Ring Count>
3

>  <Hydrogen Bond Acceptor Count>
7

>  <Hydrogen Bond Donor Count>
4

>  <Rotatable Bond Count>
6

>  <Topological Polar Surface Area>
153.09

>  <Molecular Formula>
C18H16BrFN6O3S

>  <InChI>
InChI=1S/C18H16BrFN6O3S/c1-9-7-10(5-6-14(9)30(22,28)29)24-18-23-8-11(19)17(26-18)25-13-4-2-3-12(20)15(13)16(21)27/h2-8H,1H3,(H2,21,27)(H2,22,28,29)(H2,23,24,25,26)

>  <InChI Key>
IDMHFFLVANCQJA-UHFFFAOYSA-N

>  <BindingDB>


>  <PubChem>


>  <ChEMBL>


$$$$
Compound 457
Actelion Java MolfileCreator 2.0

  0  0  0  0  0  0              0 V3000
M  V30 BEGIN CTAB
M  V30 COUNTS 30 32 0 0 0
M  V30 BEGIN ATOM
M  V30 1 Br 0.0 0.0 0.0 0
M  V30 2 C 0.9258 -1.1719 0.0 0
M  V30 3 C 0.3632 -2.5547 0.0 0
M  V30 4 C 2.4024 -0.9375 0.0 0
M  V30 5 N 1.2891 -3.7266 0.0 0
M  V30 6 N -1.1367 -2.7657 0.0 0
M  V30 7 N 3.3282 -2.1094 0.0 0
M  V30 8 C 2.7657 -3.4922 0.0 0
M  V30 9 C -1.6992 -4.1485 0.0 0
M  V30 10 N 3.6915 -4.6642 0.0 0
M  V30 11 C -3.1993 -4.3595 0.0 0
M  V30 12 C -0.7734 -5.3204 0.0 0
M  V30 13 C 5.1681 -4.4298 0.0 0
M  V30 14 C -3.7618 -5.7423 0.0 0
M  V30 15 C -4.1485 -3.1641 0.0 0
M  V30 16 C -1.3359 -6.7033 0.0 0
M  V30 17 C 6.0939 -5.6017 0.0 0
M  V30 18 C 5.7072 -3.0235 0.0 0
M  V30 19 F -5.2618 -5.9533 0.0 0
M  V30 20 C -2.836 -6.9142 0.0 0
M  V30 21 O -3.6094 -1.7578 0.0 0
M  V30 22 N -5.6486 -3.3751 0.0 0
M  V30 23 C 7.5705 -5.3673 0.0 0
M  V30 24 C 7.1838 -2.7891 0.0 0
M  V30 25 C 8.1096 -3.961 0.0 0
M  V30 26 C 8.4963 -6.5392 0.0 0
M  V30 27 S 9.5862 -3.7266 0.0 0
M  V30 28 O 9.3518 -2.2266 0.0 0
M  V30 29 O 9.7971 -5.2032 0.0 0
M  V30 30 N 11.0628 -3.4922 0.0 0
M  V30 END ATOM
M  V30 BEGIN BOND
M  V30 1 1 1 2
M  V30 2 2 2 3
M  V30 3 1 2 4
M  V30 4 1 3 5
M  V30 5 1 3 6
M  V30 6 2 4 7
M  V30 7 2 5 8
M  V30 8 1 6 9
M  V30 9 1 8 10
M  V30 10 2 9 11
M  V30 11 1 9 12
M  V30 12 1 10 13
M  V30 13 1 11 14
M  V30 14 1 11 15
M  V30 15 2 12 16
M  V30 16 2 13 17
M  V30 17 1 13 18
M  V30 18 1 14 19
M  V30 19 2 14 20
M  V30 20 2 15 21
M  V30 21 1 15 22
M  V30 22 1 17 23
M  V30 23 2 18 24
M  V30 24 2 23 25
M  V30 25 1 23 26
M  V30 26 1 25 27
M  V30 27 2 27 28
M  V30 28 2 27 29
M  V30 29 1 27 30
M  V30 30 1 7 8
M  V30 31 1 16 20
M  V30 32 1 24 25
M  V30 END BOND
M  V30 END CTAB
M  END
>  <Compound ID>
131

>  <Name>
TMX-3012

>  <Uniprot>
Q15208

>  <Target>
STK38

>  <Smiles>
CC1=CC(NC2=NC=C(Br)C(NC3=CC=CC(F)=C3C(N)=O)=N2)=CC=C1S(N)(=O)=O

>  <Kd (nM)>


>  <Assay (Kd)>


>  <Ki (nM)>


>  <Assay (Ki)>


>  <IC50 (nM)>


>  <Assay (IC50)>


>  <EC50 (nM)>


>  <Assay (EC50)>


>  <Article DOI>
10.1016/j.cell.2020.10.038

>  <Molecular Weight>
495.334

>  <Exact Mass>
494.017199692

>  <XLogP3>
3.1

>  <Heavy Atom Count>
30

>  <Ring Count>
3

>  <Hydrogen Bond Acceptor Count>
7

>  <Hydrogen Bond Donor Count>
4

>  <Rotatable Bond Count>
6

>  <Topological Polar Surface Area>
153.09

>  <Molecular Formula>
C18H16BrFN6O3S

>  <InChI>
InChI=1S/C18H16BrFN6O3S/c1-9-7-10(5-6-14(9)30(22,28)29)24-18-23-8-11(19)17(26-18)25-13-4-2-3-12(20)15(13)16(21)27/h2-8H,1H3,(H2,21,27)(H2,22,28,29)(H2,23,24,25,26)

>  <InChI Key>
IDMHFFLVANCQJA-UHFFFAOYSA-N

>  <BindingDB>


>  <PubChem>


>  <ChEMBL>


$$$$
Compound 458
Actelion Java MolfileCreator 2.0

  0  0  0  0  0  0              0 V3000
M  V30 BEGIN CTAB
M  V30 COUNTS 30 32 0 0 0
M  V30 BEGIN ATOM
M  V30 1 Br 0.0 0.0 0.0 0
M  V30 2 C 0.9258 -1.1719 0.0 0
M  V30 3 C 0.3632 -2.5547 0.0 0
M  V30 4 C 2.4024 -0.9375 0.0 0
M  V30 5 N 1.2891 -3.7266 0.0 0
M  V30 6 N -1.1367 -2.7657 0.0 0
M  V30 7 N 3.3282 -2.1094 0.0 0
M  V30 8 C 2.7657 -3.4922 0.0 0
M  V30 9 C -1.6992 -4.1485 0.0 0
M  V30 10 N 3.6915 -4.6642 0.0 0
M  V30 11 C -3.1993 -4.3595 0.0 0
M  V30 12 C -0.7734 -5.3204 0.0 0
M  V30 13 C 5.1681 -4.4298 0.0 0
M  V30 14 C -3.7618 -5.7423 0.0 0
M  V30 15 C -4.1485 -3.1641 0.0 0
M  V30 16 C -1.3359 -6.7033 0.0 0
M  V30 17 C 6.0939 -5.6017 0.0 0
M  V30 18 C 5.7072 -3.0235 0.0 0
M  V30 19 F -5.2618 -5.9533 0.0 0
M  V30 20 C -2.836 -6.9142 0.0 0
M  V30 21 O -3.6094 -1.7578 0.0 0
M  V30 22 N -5.6486 -3.3751 0.0 0
M  V30 23 C 7.5705 -5.3673 0.0 0
M  V30 24 C 7.1838 -2.7891 0.0 0
M  V30 25 C 8.1096 -3.961 0.0 0
M  V30 26 C 8.4963 -6.5392 0.0 0
M  V30 27 S 9.5862 -3.7266 0.0 0
M  V30 28 O 9.3518 -2.2266 0.0 0
M  V30 29 O 9.7971 -5.2032 0.0 0
M  V30 30 N 11.0628 -3.4922 0.0 0
M  V30 END ATOM
M  V30 BEGIN BOND
M  V30 1 1 1 2
M  V30 2 2 2 3
M  V30 3 1 2 4
M  V30 4 1 3 5
M  V30 5 1 3 6
M  V30 6 2 4 7
M  V30 7 2 5 8
M  V30 8 1 6 9
M  V30 9 1 8 10
M  V30 10 2 9 11
M  V30 11 1 9 12
M  V30 12 1 10 13
M  V30 13 1 11 14
M  V30 14 1 11 15
M  V30 15 2 12 16
M  V30 16 2 13 17
M  V30 17 1 13 18
M  V30 18 1 14 19
M  V30 19 2 14 20
M  V30 20 2 15 21
M  V30 21 1 15 22
M  V30 22 1 17 23
M  V30 23 2 18 24
M  V30 24 2 23 25
M  V30 25 1 23 26
M  V30 26 1 25 27
M  V30 27 2 27 28
M  V30 28 2 27 29
M  V30 29 1 27 30
M  V30 30 1 7 8
M  V30 31 1 16 20
M  V30 32 1 24 25
M  V30 END BOND
M  V30 END CTAB
M  END
>  <Compound ID>
131

>  <Name>
TMX-3012

>  <Uniprot>
Q9UHD2

>  <Target>
TBK1

>  <Smiles>
CC1=CC(NC2=NC=C(Br)C(NC3=CC=CC(F)=C3C(N)=O)=N2)=CC=C1S(N)(=O)=O

>  <Kd (nM)>


>  <Assay (Kd)>


>  <Ki (nM)>


>  <Assay (Ki)>


>  <IC50 (nM)>


>  <Assay (IC50)>


>  <EC50 (nM)>


>  <Assay (EC50)>


>  <Article DOI>
10.1016/j.cell.2020.10.038

>  <Molecular Weight>
495.334

>  <Exact Mass>
494.017199692

>  <XLogP3>
3.1

>  <Heavy Atom Count>
30

>  <Ring Count>
3

>  <Hydrogen Bond Acceptor Count>
7

>  <Hydrogen Bond Donor Count>
4

>  <Rotatable Bond Count>
6

>  <Topological Polar Surface Area>
153.09

>  <Molecular Formula>
C18H16BrFN6O3S

>  <InChI>
InChI=1S/C18H16BrFN6O3S/c1-9-7-10(5-6-14(9)30(22,28)29)24-18-23-8-11(19)17(26-18)25-13-4-2-3-12(20)15(13)16(21)27/h2-8H,1H3,(H2,21,27)(H2,22,28,29)(H2,23,24,25,26)

>  <InChI Key>
IDMHFFLVANCQJA-UHFFFAOYSA-N

>  <BindingDB>


>  <PubChem>


>  <ChEMBL>


$$$$
Compound 459
Actelion Java MolfileCreator 2.0

  0  0  0  0  0  0              0 V3000
M  V30 BEGIN CTAB
M  V30 COUNTS 30 32 0 0 0
M  V30 BEGIN ATOM
M  V30 1 Br 0.0 0.0 0.0 0
M  V30 2 C 0.9258 -1.1719 0.0 0
M  V30 3 C 0.3632 -2.5547 0.0 0
M  V30 4 C 2.4024 -0.9375 0.0 0
M  V30 5 N 1.2891 -3.7266 0.0 0
M  V30 6 N -1.1367 -2.7657 0.0 0
M  V30 7 N 3.3282 -2.1094 0.0 0
M  V30 8 C 2.7657 -3.4922 0.0 0
M  V30 9 C -1.6992 -4.1485 0.0 0
M  V30 10 N 3.6915 -4.6642 0.0 0
M  V30 11 C -3.1993 -4.3595 0.0 0
M  V30 12 C -0.7734 -5.3204 0.0 0
M  V30 13 C 5.1681 -4.4298 0.0 0
M  V30 14 C -3.7618 -5.7423 0.0 0
M  V30 15 C -4.1485 -3.1641 0.0 0
M  V30 16 C -1.3359 -6.7033 0.0 0
M  V30 17 C 6.0939 -5.6017 0.0 0
M  V30 18 C 5.7072 -3.0235 0.0 0
M  V30 19 F -5.2618 -5.9533 0.0 0
M  V30 20 C -2.836 -6.9142 0.0 0
M  V30 21 O -3.6094 -1.7578 0.0 0
M  V30 22 N -5.6486 -3.3751 0.0 0
M  V30 23 C 7.5705 -5.3673 0.0 0
M  V30 24 C 7.1838 -2.7891 0.0 0
M  V30 25 C 8.1096 -3.961 0.0 0
M  V30 26 C 8.4963 -6.5392 0.0 0
M  V30 27 S 9.5862 -3.7266 0.0 0
M  V30 28 O 9.3518 -2.2266 0.0 0
M  V30 29 O 9.7971 -5.2032 0.0 0
M  V30 30 N 11.0628 -3.4922 0.0 0
M  V30 END ATOM
M  V30 BEGIN BOND
M  V30 1 1 1 2
M  V30 2 2 2 3
M  V30 3 1 2 4
M  V30 4 1 3 5
M  V30 5 1 3 6
M  V30 6 2 4 7
M  V30 7 2 5 8
M  V30 8 1 6 9
M  V30 9 1 8 10
M  V30 10 2 9 11
M  V30 11 1 9 12
M  V30 12 1 10 13
M  V30 13 1 11 14
M  V30 14 1 11 15
M  V30 15 2 12 16
M  V30 16 2 13 17
M  V30 17 1 13 18
M  V30 18 1 14 19
M  V30 19 2 14 20
M  V30 20 2 15 21
M  V30 21 1 15 22
M  V30 22 1 17 23
M  V30 23 2 18 24
M  V30 24 2 23 25
M  V30 25 1 23 26
M  V30 26 1 25 27
M  V30 27 2 27 28
M  V30 28 2 27 29
M  V30 29 1 27 30
M  V30 30 1 7 8
M  V30 31 1 16 20
M  V30 32 1 24 25
M  V30 END BOND
M  V30 END CTAB
M  END
>  <Compound ID>
131

>  <Name>
TMX-3012

>  <Uniprot>
P42680

>  <Target>
TEC

>  <Smiles>
CC1=CC(NC2=NC=C(Br)C(NC3=CC=CC(F)=C3C(N)=O)=N2)=CC=C1S(N)(=O)=O

>  <Kd (nM)>


>  <Assay (Kd)>


>  <Ki (nM)>


>  <Assay (Ki)>


>  <IC50 (nM)>


>  <Assay (IC50)>


>  <EC50 (nM)>


>  <Assay (EC50)>


>  <Article DOI>
10.1016/j.cell.2020.10.038

>  <Molecular Weight>
495.334

>  <Exact Mass>
494.017199692

>  <XLogP3>
3.1

>  <Heavy Atom Count>
30

>  <Ring Count>
3

>  <Hydrogen Bond Acceptor Count>
7

>  <Hydrogen Bond Donor Count>
4

>  <Rotatable Bond Count>
6

>  <Topological Polar Surface Area>
153.09

>  <Molecular Formula>
C18H16BrFN6O3S

>  <InChI>
InChI=1S/C18H16BrFN6O3S/c1-9-7-10(5-6-14(9)30(22,28)29)24-18-23-8-11(19)17(26-18)25-13-4-2-3-12(20)15(13)16(21)27/h2-8H,1H3,(H2,21,27)(H2,22,28,29)(H2,23,24,25,26)

>  <InChI Key>
IDMHFFLVANCQJA-UHFFFAOYSA-N

>  <BindingDB>


>  <PubChem>


>  <ChEMBL>


$$$$
Compound 460
Actelion Java MolfileCreator 2.0

  0  0  0  0  0  0              0 V3000
M  V30 BEGIN CTAB
M  V30 COUNTS 30 32 0 0 0
M  V30 BEGIN ATOM
M  V30 1 Br 0.0 0.0 0.0 0
M  V30 2 C 0.9258 -1.1719 0.0 0
M  V30 3 C 0.3632 -2.5547 0.0 0
M  V30 4 C 2.4024 -0.9375 0.0 0
M  V30 5 N 1.2891 -3.7266 0.0 0
M  V30 6 N -1.1367 -2.7657 0.0 0
M  V30 7 N 3.3282 -2.1094 0.0 0
M  V30 8 C 2.7657 -3.4922 0.0 0
M  V30 9 C -1.6992 -4.1485 0.0 0
M  V30 10 N 3.6915 -4.6642 0.0 0
M  V30 11 C -3.1993 -4.3595 0.0 0
M  V30 12 C -0.7734 -5.3204 0.0 0
M  V30 13 C 5.1681 -4.4298 0.0 0
M  V30 14 C -3.7618 -5.7423 0.0 0
M  V30 15 C -4.1485 -3.1641 0.0 0
M  V30 16 C -1.3359 -6.7033 0.0 0
M  V30 17 C 6.0939 -5.6017 0.0 0
M  V30 18 C 5.7072 -3.0235 0.0 0
M  V30 19 F -5.2618 -5.9533 0.0 0
M  V30 20 C -2.836 -6.9142 0.0 0
M  V30 21 O -3.6094 -1.7578 0.0 0
M  V30 22 N -5.6486 -3.3751 0.0 0
M  V30 23 C 7.5705 -5.3673 0.0 0
M  V30 24 C 7.1838 -2.7891 0.0 0
M  V30 25 C 8.1096 -3.961 0.0 0
M  V30 26 C 8.4963 -6.5392 0.0 0
M  V30 27 S 9.5862 -3.7266 0.0 0
M  V30 28 O 9.3518 -2.2266 0.0 0
M  V30 29 O 9.7971 -5.2032 0.0 0
M  V30 30 N 11.0628 -3.4922 0.0 0
M  V30 END ATOM
M  V30 BEGIN BOND
M  V30 1 1 1 2
M  V30 2 2 2 3
M  V30 3 1 2 4
M  V30 4 1 3 5
M  V30 5 1 3 6
M  V30 6 2 4 7
M  V30 7 2 5 8
M  V30 8 1 6 9
M  V30 9 1 8 10
M  V30 10 2 9 11
M  V30 11 1 9 12
M  V30 12 1 10 13
M  V30 13 1 11 14
M  V30 14 1 11 15
M  V30 15 2 12 16
M  V30 16 2 13 17
M  V30 17 1 13 18
M  V30 18 1 14 19
M  V30 19 2 14 20
M  V30 20 2 15 21
M  V30 21 1 15 22
M  V30 22 1 17 23
M  V30 23 2 18 24
M  V30 24 2 23 25
M  V30 25 1 23 26
M  V30 26 1 25 27
M  V30 27 2 27 28
M  V30 28 2 27 29
M  V30 29 1 27 30
M  V30 30 1 7 8
M  V30 31 1 16 20
M  V30 32 1 24 25
M  V30 END BOND
M  V30 END CTAB
M  END
>  <Compound ID>
131

>  <Name>
TMX-3012

>  <Uniprot>
P33981

>  <Target>
TTK

>  <Smiles>
CC1=CC(NC2=NC=C(Br)C(NC3=CC=CC(F)=C3C(N)=O)=N2)=CC=C1S(N)(=O)=O

>  <Kd (nM)>


>  <Assay (Kd)>


>  <Ki (nM)>


>  <Assay (Ki)>


>  <IC50 (nM)>


>  <Assay (IC50)>


>  <EC50 (nM)>


>  <Assay (EC50)>


>  <Article DOI>
10.1016/j.cell.2020.10.038

>  <Molecular Weight>
495.334

>  <Exact Mass>
494.017199692

>  <XLogP3>
3.1

>  <Heavy Atom Count>
30

>  <Ring Count>
3

>  <Hydrogen Bond Acceptor Count>
7

>  <Hydrogen Bond Donor Count>
4

>  <Rotatable Bond Count>
6

>  <Topological Polar Surface Area>
153.09

>  <Molecular Formula>
C18H16BrFN6O3S

>  <InChI>
InChI=1S/C18H16BrFN6O3S/c1-9-7-10(5-6-14(9)30(22,28)29)24-18-23-8-11(19)17(26-18)25-13-4-2-3-12(20)15(13)16(21)27/h2-8H,1H3,(H2,21,27)(H2,22,28,29)(H2,23,24,25,26)

>  <InChI Key>
IDMHFFLVANCQJA-UHFFFAOYSA-N

>  <BindingDB>


>  <PubChem>


>  <ChEMBL>


$$$$
Compound 461
Actelion Java MolfileCreator 2.0

  0  0  0  0  0  0              0 V3000
M  V30 BEGIN CTAB
M  V30 COUNTS 30 32 0 0 0
M  V30 BEGIN ATOM
M  V30 1 Br 0.0 0.0 0.0 0
M  V30 2 C 0.9258 -1.1719 0.0 0
M  V30 3 C 0.3632 -2.5547 0.0 0
M  V30 4 C 2.4024 -0.9375 0.0 0
M  V30 5 N 1.2891 -3.7266 0.0 0
M  V30 6 N -1.1367 -2.7657 0.0 0
M  V30 7 N 3.3282 -2.1094 0.0 0
M  V30 8 C 2.7657 -3.4922 0.0 0
M  V30 9 C -1.6992 -4.1485 0.0 0
M  V30 10 N 3.6915 -4.6642 0.0 0
M  V30 11 C -3.1993 -4.3595 0.0 0
M  V30 12 C -0.7734 -5.3204 0.0 0
M  V30 13 C 5.1681 -4.4298 0.0 0
M  V30 14 C -3.7618 -5.7423 0.0 0
M  V30 15 C -4.1485 -3.1641 0.0 0
M  V30 16 C -1.3359 -6.7033 0.0 0
M  V30 17 C 6.0939 -5.6017 0.0 0
M  V30 18 C 5.7072 -3.0235 0.0 0
M  V30 19 F -5.2618 -5.9533 0.0 0
M  V30 20 C -2.836 -6.9142 0.0 0
M  V30 21 O -3.6094 -1.7578 0.0 0
M  V30 22 N -5.6486 -3.3751 0.0 0
M  V30 23 C 7.5705 -5.3673 0.0 0
M  V30 24 C 7.1838 -2.7891 0.0 0
M  V30 25 C 8.1096 -3.961 0.0 0
M  V30 26 C 8.4963 -6.5392 0.0 0
M  V30 27 S 9.5862 -3.7266 0.0 0
M  V30 28 O 9.3518 -2.2266 0.0 0
M  V30 29 O 9.7971 -5.2032 0.0 0
M  V30 30 N 11.0628 -3.4922 0.0 0
M  V30 END ATOM
M  V30 BEGIN BOND
M  V30 1 1 1 2
M  V30 2 2 2 3
M  V30 3 1 2 4
M  V30 4 1 3 5
M  V30 5 1 3 6
M  V30 6 2 4 7
M  V30 7 2 5 8
M  V30 8 1 6 9
M  V30 9 1 8 10
M  V30 10 2 9 11
M  V30 11 1 9 12
M  V30 12 1 10 13
M  V30 13 1 11 14
M  V30 14 1 11 15
M  V30 15 2 12 16
M  V30 16 2 13 17
M  V30 17 1 13 18
M  V30 18 1 14 19
M  V30 19 2 14 20
M  V30 20 2 15 21
M  V30 21 1 15 22
M  V30 22 1 17 23
M  V30 23 2 18 24
M  V30 24 2 23 25
M  V30 25 1 23 26
M  V30 26 1 25 27
M  V30 27 2 27 28
M  V30 28 2 27 29
M  V30 29 1 27 30
M  V30 30 1 7 8
M  V30 31 1 16 20
M  V30 32 1 24 25
M  V30 END BOND
M  V30 END CTAB
M  END
>  <Compound ID>
131

>  <Name>
TMX-3012

>  <Uniprot>
P30291

>  <Target>
Wee1

>  <Smiles>
CC1=CC(NC2=NC=C(Br)C(NC3=CC=CC(F)=C3C(N)=O)=N2)=CC=C1S(N)(=O)=O

>  <Kd (nM)>


>  <Assay (Kd)>


>  <Ki (nM)>


>  <Assay (Ki)>


>  <IC50 (nM)>


>  <Assay (IC50)>


>  <EC50 (nM)>


>  <Assay (EC50)>


>  <Article DOI>
10.1016/j.cell.2020.10.038

>  <Molecular Weight>
495.334

>  <Exact Mass>
494.017199692

>  <XLogP3>
3.1

>  <Heavy Atom Count>
30

>  <Ring Count>
3

>  <Hydrogen Bond Acceptor Count>
7

>  <Hydrogen Bond Donor Count>
4

>  <Rotatable Bond Count>
6

>  <Topological Polar Surface Area>
153.09

>  <Molecular Formula>
C18H16BrFN6O3S

>  <InChI>
InChI=1S/C18H16BrFN6O3S/c1-9-7-10(5-6-14(9)30(22,28)29)24-18-23-8-11(19)17(26-18)25-13-4-2-3-12(20)15(13)16(21)27/h2-8H,1H3,(H2,21,27)(H2,22,28,29)(H2,23,24,25,26)

>  <InChI Key>
IDMHFFLVANCQJA-UHFFFAOYSA-N

>  <BindingDB>


>  <PubChem>


>  <ChEMBL>


$$$$
Compound 462
Actelion Java MolfileCreator 2.0

  0  0  0  0  0  0              0 V3000
M  V30 BEGIN CTAB
M  V30 COUNTS 32 35 0 0 0
M  V30 BEGIN ATOM
M  V30 1 S 0.0 0.0 0.0 0
M  V30 2 O -0.4958 -1.405 0.0 0
M  V30 3 O 0.4722 1.4286 0.0 0
M  V30 4 N -1.4286 0.4958 0.0 0
M  V30 5 C 1.405 -0.4722 0.0 0
M  V30 6 C -2.5621 -0.484 0.0 0
M  V30 7 C 1.6884 -1.9363 0.0 0
M  V30 8 C -3.9908 0.0118 0.0 0
M  V30 9 C -2.2787 -1.9481 0.0 0
M  V30 10 C -5.1242 -0.9681 0.0 0
M  V30 11 C -3.4122 -2.9281 0.0 0
M  V30 12 C -6.5529 -0.4722 0.0 0
M  V30 13 C -4.8409 -2.4322 0.0 0
M  V30 14 C -7.6864 -1.4522 0.0 0
M  V30 15 C -6.8599 1.0154 0.0 0
M  V30 16 O -5.9743 -3.4122 0.0 0
M  V30 17 C -9.115 -0.9563 0.0 0
M  V30 18 C -7.7218 -2.9399 0.0 0
M  V30 19 N -8.2885 1.5113 0.0 0
M  V30 20 C -5.691 -4.8763 0.0 0
M  V30 21 N -10.0242 -2.1488 0.0 0
M  V30 22 C -9.422 0.5313 0.0 0
M  V30 23 C -9.1623 -3.3768 0.0 0
M  V30 24 C -8.5955 2.999 0.0 0
M  V30 25 C -4.2859 -5.3486 0.0 0
M  V30 26 C -6.8245 -5.8563 0.0 0
M  V30 27 O -10.8507 1.0272 0.0 0
M  V30 28 F -3.1761 -4.345 0.0 0
M  V30 29 C -4.0026 -6.8126 0.0 0
M  V30 30 C -6.5411 -7.3204 0.0 0
M  V30 31 C -5.136 -7.7926 0.0 0
M  V30 32 F -4.8527 -9.2567 0.0 0
M  V30 END ATOM
M  V30 BEGIN BOND
M  V30 1 2 1 2
M  V30 2 2 1 3
M  V30 3 1 1 4
M  V30 4 1 1 5
M  V30 5 1 4 6
M  V30 6 1 5 7
M  V30 7 2 6 8
M  V30 8 1 6 9
M  V30 9 1 8 10
M  V30 10 2 9 11
M  V30 11 1 10 12
M  V30 12 2 10 13
M  V30 13 1 12 14
M  V30 14 2 12 15
M  V30 15 1 13 16
M  V30 16 2 14 17
M  V30 17 1 14 18
M  V30 18 1 15 19
M  V30 19 1 16 20
M  V30 20 1 17 21
M  V30 21 1 17 22
M  V30 22 2 18 23
M  V30 23 1 19 24
M  V30 24 2 20 25
M  V30 25 1 20 26
M  V30 26 2 22 27
M  V30 27 1 25 28
M  V30 28 1 25 29
M  V30 29 2 26 30
M  V30 30 2 29 31
M  V30 31 1 31 32
M  V30 32 1 11 13
M  V30 33 1 19 22
M  V30 34 1 21 23
M  V30 35 1 30 31
M  V30 END BOND
M  V30 END CTAB
M  END
>  <Compound ID>
132

>  <Name>
ABBV-075

>  <Uniprot>
O60885

>  <Target>
BRD4

>  <Smiles>
CCS(=O)(=O)NC1=CC=C(OC2=CC=C(F)C=C2F)C(C2=CN(C)C(=O)C3=C2C=C[NH]3)=C1

>  <Kd (nM)>


>  <Assay (Kd)>


>  <Ki (nM)>
1.5

>  <Assay (Ki)>
Ki of BRD4 was tested by TR-FRET

>  <IC50 (nM)>


>  <Assay (IC50)>


>  <EC50 (nM)>


>  <Assay (EC50)>


>  <Article DOI>
10.1021/acs.jmedchem.7b00746

>  <Molecular Weight>
459.474

>  <Exact Mass>
459.106433528

>  <XLogP3>
2.88

>  <Heavy Atom Count>
32

>  <Ring Count>
4

>  <Hydrogen Bond Acceptor Count>
5

>  <Hydrogen Bond Donor Count>
2

>  <Rotatable Bond Count>
6

>  <Topological Polar Surface Area>
93.19

>  <Molecular Formula>
C22H19F2N3O4S

>  <InChI>
InChI=1S/C22H19F2N3O4S/c1-3-32(29,30)26-14-5-7-19(31-20-6-4-13(23)10-18(20)24)16(11-14)17-12-27(2)22(28)21-15(17)8-9-25-21/h4-12,25-26H,3H2,1-2H3

>  <InChI Key>
RDONXGFGWSSFMY-UHFFFAOYSA-N

>  <BindingDB>
220447

>  <PubChem>
71600087

>  <ChEMBL>
CHEMBL3987016

$$$$
Compound 463
Actelion Java MolfileCreator 2.0

  0  0  0  0  0  0              0 V3000
M  V30 BEGIN CTAB
M  V30 COUNTS 37 40 0 0 0
M  V30 BEGIN ATOM
M  V30 1 O 0.0 0.0 0.0 0
M  V30 2 C -1.1027 -0.1797 0.0 0
M  V30 3 N -2.2175 0.875 0.0 0
M  V30 4 C -1.4623 -1.6541 0.0 0
M  V30 5 C -1.8818 2.3733 0.0 0
M  V30 6 C -0.3715 -2.6849 0.0 0
M  V30 7 C -0.4315 2.8168 0.0 0
M  V30 8 C -2.9966 3.4281 0.0 0
M  V30 9 N 0.6592 1.786 0.0 0
M  V30 10 C -0.0958 4.3151 0.0 0
M  V30 11 C -2.661 4.9264 0.0 0
M  V30 12 C 2.1096 2.2295 0.0 0
M  V30 13 C 0.5274 0.6952 0.0 0
M  V30 14 C -1.2106 5.3699 0.0 0
M  V30 15 N -3.7757 5.9813 0.0 0
M  V30 16 C 3.2004 1.1986 0.0 0
M  V30 17 O -0.875 6.8683 0.0 0
M  V30 18 C -5.2501 5.5617 0.0 0
M  V30 19 N 4.6507 1.6421 0.0 0
M  V30 20 C 0.5753 7.3118 0.0 0
M  V30 21 N -5.6097 4.0874 0.0 0
M  V30 22 N -6.3648 6.6165 0.0 0
M  V30 23 C 5.7415 0.6113 0.0 0
M  V30 24 C 4.9864 3.1404 0.0 0
M  V30 25 C -7.084 3.6678 0.0 0
M  V30 26 C -7.8392 6.197 0.0 0
M  V30 27 C -7.4436 2.1935 0.0 0
M  V30 28 C -8.1988 4.7227 0.0 0
M  V30 29 C -6.4607 1.0548 0.0 0
M  V30 30 C -8.858 1.6181 0.0 0
M  V30 31 C -7.2638 -0.2277 0.0 0
M  V30 32 C -4.9504 1.0308 0.0 0
M  V30 33 N -8.7502 0.1078 0.0 0
M  V30 34 C -6.5446 -1.5462 0.0 0
M  V30 35 C -4.2312 -0.2876 0.0 0
M  V30 36 C -9.9129 -0.875 0.0 0
M  V30 37 C -5.0343 -1.5702 0.0 0
M  V30 END ATOM
M  V30 BEGIN BOND
M  V30 1 2 1 2
M  V30 2 1 2 3
M  V30 3 1 2 4
M  V30 4 1 3 5
M  V30 5 2 4 6
M  V30 6 2 5 7
M  V30 7 1 5 8
M  V30 8 1 7 9
M  V30 9 1 7 10
M  V30 10 2 8 11
M  V30 11 1 9 12
M  V30 12 1 9 13
M  V30 13 2 10 14
M  V30 14 1 11 15
M  V30 15 1 12 16
M  V30 16 1 14 17
M  V30 17 1 15 18
M  V30 18 1 16 19
M  V30 19 1 17 20
M  V30 20 2 18 21
M  V30 21 1 18 22
M  V30 22 1 19 23
M  V30 23 1 19 24
M  V30 24 1 21 25
M  V30 25 2 22 26
M  V30 26 1 25 27
M  V30 27 2 25 28
M  V30 28 1 27 29
M  V30 29 2 27 30
M  V30 30 2 29 31
M  V30 31 1 29 32
M  V30 32 1 30 33
M  V30 33 1 31 34
M  V30 34 2 32 35
M  V30 35 1 33 36
M  V30 36 2 34 37
M  V30 37 1 11 14
M  V30 38 1 26 28
M  V30 39 1 31 33
M  V30 40 1 35 37
M  V30 END BOND
M  V30 END CTAB
M  END
>  <Compound ID>
133

>  <Name>
Osimertinib

>  <Uniprot>
P00533

>  <Target>
EGFR e19d

>  <Smiles>
C=CC(=O)NC1=CC(NC2=NC=CC(C3=CN(C)C4=CC=CC=C34)=N2)=C(OC)C=C1N(C)CCN(C)C

>  <Kd (nM)>


>  <Assay (Kd)>


>  <Ki (nM)>


>  <Assay (Ki)>


>  <IC50 (nM)>
1.47

>  <Assay (IC50)>
Inhibit proliferation of HCC827 (EGFR del19) cells

>  <EC50 (nM)>


>  <Assay (EC50)>


>  <Article DOI>
10.1021/acs.jmedchem.6b01626

>  <Molecular Weight>
499.619

>  <Exact Mass>
499.269573296

>  <XLogP3>
3.72

>  <Heavy Atom Count>
37

>  <Ring Count>
4

>  <Hydrogen Bond Acceptor Count>
8

>  <Hydrogen Bond Donor Count>
2

>  <Rotatable Bond Count>
10

>  <Topological Polar Surface Area>
87.55

>  <Molecular Formula>
C28H33N7O2

>  <InChI>
InChI=1S/C28H33N7O2/c1-7-27(36)30-22-16-23(26(37-6)17-25(22)34(4)15-14-33(2)3)32-28-29-13-12-21(31-28)20-18-35(5)24-11-9-8-10-19(20)24/h7-13,16-18H,1,14-15H2,2-6H3,(H,30,36)(H,29,31,32)

>  <InChI Key>
DUYJMQONPNNFPI-UHFFFAOYSA-N

>  <BindingDB>
50029668

>  <PubChem>
71496458

>  <ChEMBL>
CHEMBL3353410

$$$$
Compound 464
Actelion Java MolfileCreator 2.0

  0  0  0  0  0  0              0 V3000
M  V30 BEGIN CTAB
M  V30 COUNTS 37 40 0 0 0
M  V30 BEGIN ATOM
M  V30 1 O 0.0 0.0 0.0 0
M  V30 2 C -1.1027 -0.1797 0.0 0
M  V30 3 N -2.2175 0.875 0.0 0
M  V30 4 C -1.4623 -1.6541 0.0 0
M  V30 5 C -1.8818 2.3733 0.0 0
M  V30 6 C -0.3715 -2.6849 0.0 0
M  V30 7 C -0.4315 2.8168 0.0 0
M  V30 8 C -2.9966 3.4281 0.0 0
M  V30 9 N 0.6592 1.786 0.0 0
M  V30 10 C -0.0958 4.3151 0.0 0
M  V30 11 C -2.661 4.9264 0.0 0
M  V30 12 C 2.1096 2.2295 0.0 0
M  V30 13 C 0.5274 0.6952 0.0 0
M  V30 14 C -1.2106 5.3699 0.0 0
M  V30 15 N -3.7757 5.9813 0.0 0
M  V30 16 C 3.2004 1.1986 0.0 0
M  V30 17 O -0.875 6.8683 0.0 0
M  V30 18 C -5.2501 5.5617 0.0 0
M  V30 19 N 4.6507 1.6421 0.0 0
M  V30 20 C 0.5753 7.3118 0.0 0
M  V30 21 N -5.6097 4.0874 0.0 0
M  V30 22 N -6.3648 6.6165 0.0 0
M  V30 23 C 5.7415 0.6113 0.0 0
M  V30 24 C 4.9864 3.1404 0.0 0
M  V30 25 C -7.084 3.6678 0.0 0
M  V30 26 C -7.8392 6.197 0.0 0
M  V30 27 C -7.4436 2.1935 0.0 0
M  V30 28 C -8.1988 4.7227 0.0 0
M  V30 29 C -6.4607 1.0548 0.0 0
M  V30 30 C -8.858 1.6181 0.0 0
M  V30 31 C -7.2638 -0.2277 0.0 0
M  V30 32 C -4.9504 1.0308 0.0 0
M  V30 33 N -8.7502 0.1078 0.0 0
M  V30 34 C -6.5446 -1.5462 0.0 0
M  V30 35 C -4.2312 -0.2876 0.0 0
M  V30 36 C -9.9129 -0.875 0.0 0
M  V30 37 C -5.0343 -1.5702 0.0 0
M  V30 END ATOM
M  V30 BEGIN BOND
M  V30 1 2 1 2
M  V30 2 1 2 3
M  V30 3 1 2 4
M  V30 4 1 3 5
M  V30 5 2 4 6
M  V30 6 2 5 7
M  V30 7 1 5 8
M  V30 8 1 7 9
M  V30 9 1 7 10
M  V30 10 2 8 11
M  V30 11 1 9 12
M  V30 12 1 9 13
M  V30 13 2 10 14
M  V30 14 1 11 15
M  V30 15 1 12 16
M  V30 16 1 14 17
M  V30 17 1 15 18
M  V30 18 1 16 19
M  V30 19 1 17 20
M  V30 20 2 18 21
M  V30 21 1 18 22
M  V30 22 1 19 23
M  V30 23 1 19 24
M  V30 24 1 21 25
M  V30 25 2 22 26
M  V30 26 1 25 27
M  V30 27 2 25 28
M  V30 28 1 27 29
M  V30 29 2 27 30
M  V30 30 2 29 31
M  V30 31 1 29 32
M  V30 32 1 30 33
M  V30 33 1 31 34
M  V30 34 2 32 35
M  V30 35 1 33 36
M  V30 36 2 34 37
M  V30 37 1 11 14
M  V30 38 1 26 28
M  V30 39 1 31 33
M  V30 40 1 35 37
M  V30 END BOND
M  V30 END CTAB
M  END
>  <Compound ID>
133

>  <Name>
Osimertinib

>  <Uniprot>
P00533

>  <Target>
EGFR L858R

>  <Smiles>
C=CC(=O)NC1=CC(NC2=NC=CC(C3=CN(C)C4=CC=CC=C34)=N2)=C(OC)C=C1N(C)CCN(C)C

>  <Kd (nM)>


>  <Assay (Kd)>


>  <Ki (nM)>
1.6

>  <Assay (Ki)>
Ki of L858R

>  <IC50 (nM)>
1.3

>  <Assay (IC50)>
IC50 of L858R was tested by the HTRF assay

>  <EC50 (nM)>


>  <Assay (EC50)>


>  <Article DOI>
10.1021/acs.jmedchem.6b01626

>  <Molecular Weight>
499.619

>  <Exact Mass>
499.269573296

>  <XLogP3>
3.72

>  <Heavy Atom Count>
37

>  <Ring Count>
4

>  <Hydrogen Bond Acceptor Count>
8

>  <Hydrogen Bond Donor Count>
2

>  <Rotatable Bond Count>
10

>  <Topological Polar Surface Area>
87.55

>  <Molecular Formula>
C28H33N7O2

>  <InChI>
InChI=1S/C28H33N7O2/c1-7-27(36)30-22-16-23(26(37-6)17-25(22)34(4)15-14-33(2)3)32-28-29-13-12-21(31-28)20-18-35(5)24-11-9-8-10-19(20)24/h7-13,16-18H,1,14-15H2,2-6H3,(H,30,36)(H,29,31,32)

>  <InChI Key>
DUYJMQONPNNFPI-UHFFFAOYSA-N

>  <BindingDB>
50029668

>  <PubChem>
71496458

>  <ChEMBL>
CHEMBL3353410

$$$$
Compound 465
Actelion Java MolfileCreator 2.0

  0  0  0  0  0  0              0 V3000
M  V30 BEGIN CTAB
M  V30 COUNTS 37 40 0 0 0
M  V30 BEGIN ATOM
M  V30 1 O 0.0 0.0 0.0 0
M  V30 2 C -1.1027 -0.1797 0.0 0
M  V30 3 N -2.2175 0.875 0.0 0
M  V30 4 C -1.4623 -1.6541 0.0 0
M  V30 5 C -1.8818 2.3733 0.0 0
M  V30 6 C -0.3715 -2.6849 0.0 0
M  V30 7 C -0.4315 2.8168 0.0 0
M  V30 8 C -2.9966 3.4281 0.0 0
M  V30 9 N 0.6592 1.786 0.0 0
M  V30 10 C -0.0958 4.3151 0.0 0
M  V30 11 C -2.661 4.9264 0.0 0
M  V30 12 C 2.1096 2.2295 0.0 0
M  V30 13 C 0.5274 0.6952 0.0 0
M  V30 14 C -1.2106 5.3699 0.0 0
M  V30 15 N -3.7757 5.9813 0.0 0
M  V30 16 C 3.2004 1.1986 0.0 0
M  V30 17 O -0.875 6.8683 0.0 0
M  V30 18 C -5.2501 5.5617 0.0 0
M  V30 19 N 4.6507 1.6421 0.0 0
M  V30 20 C 0.5753 7.3118 0.0 0
M  V30 21 N -5.6097 4.0874 0.0 0
M  V30 22 N -6.3648 6.6165 0.0 0
M  V30 23 C 5.7415 0.6113 0.0 0
M  V30 24 C 4.9864 3.1404 0.0 0
M  V30 25 C -7.084 3.6678 0.0 0
M  V30 26 C -7.8392 6.197 0.0 0
M  V30 27 C -7.4436 2.1935 0.0 0
M  V30 28 C -8.1988 4.7227 0.0 0
M  V30 29 C -6.4607 1.0548 0.0 0
M  V30 30 C -8.858 1.6181 0.0 0
M  V30 31 C -7.2638 -0.2277 0.0 0
M  V30 32 C -4.9504 1.0308 0.0 0
M  V30 33 N -8.7502 0.1078 0.0 0
M  V30 34 C -6.5446 -1.5462 0.0 0
M  V30 35 C -4.2312 -0.2876 0.0 0
M  V30 36 C -9.9129 -0.875 0.0 0
M  V30 37 C -5.0343 -1.5702 0.0 0
M  V30 END ATOM
M  V30 BEGIN BOND
M  V30 1 2 1 2
M  V30 2 1 2 3
M  V30 3 1 2 4
M  V30 4 1 3 5
M  V30 5 2 4 6
M  V30 6 2 5 7
M  V30 7 1 5 8
M  V30 8 1 7 9
M  V30 9 1 7 10
M  V30 10 2 8 11
M  V30 11 1 9 12
M  V30 12 1 9 13
M  V30 13 2 10 14
M  V30 14 1 11 15
M  V30 15 1 12 16
M  V30 16 1 14 17
M  V30 17 1 15 18
M  V30 18 1 16 19
M  V30 19 1 17 20
M  V30 20 2 18 21
M  V30 21 1 18 22
M  V30 22 1 19 23
M  V30 23 1 19 24
M  V30 24 1 21 25
M  V30 25 2 22 26
M  V30 26 1 25 27
M  V30 27 2 25 28
M  V30 28 1 27 29
M  V30 29 2 27 30
M  V30 30 2 29 31
M  V30 31 1 29 32
M  V30 32 1 30 33
M  V30 33 1 31 34
M  V30 34 2 32 35
M  V30 35 1 33 36
M  V30 36 2 34 37
M  V30 37 1 11 14
M  V30 38 1 26 28
M  V30 39 1 31 33
M  V30 40 1 35 37
M  V30 END BOND
M  V30 END CTAB
M  END
>  <Compound ID>
133

>  <Name>
Osimertinib

>  <Uniprot>
P00533

>  <Target>
EGFR L858R/T790M

>  <Smiles>
C=CC(=O)NC1=CC(NC2=NC=CC(C3=CN(C)C4=CC=CC=C34)=N2)=C(OC)C=C1N(C)CCN(C)C

>  <Kd (nM)>


>  <Assay (Kd)>


>  <Ki (nM)>
1.5

>  <Assay (Ki)>
Ki of EGFR L858R/T790M

>  <IC50 (nM)>
<1

>  <Assay (IC50)>
IC50 of EGFR L858R/T790M was tested by the HTRF assay

>  <EC50 (nM)>


>  <Assay (EC50)>


>  <Article DOI>
10.1021/acs.jmedchem.6b01626

>  <Molecular Weight>
499.619

>  <Exact Mass>
499.269573296

>  <XLogP3>
3.72

>  <Heavy Atom Count>
37

>  <Ring Count>
4

>  <Hydrogen Bond Acceptor Count>
8

>  <Hydrogen Bond Donor Count>
2

>  <Rotatable Bond Count>
10

>  <Topological Polar Surface Area>
87.55

>  <Molecular Formula>
C28H33N7O2

>  <InChI>
InChI=1S/C28H33N7O2/c1-7-27(36)30-22-16-23(26(37-6)17-25(22)34(4)15-14-33(2)3)32-28-29-13-12-21(31-28)20-18-35(5)24-11-9-8-10-19(20)24/h7-13,16-18H,1,14-15H2,2-6H3,(H,30,36)(H,29,31,32)

>  <InChI Key>
DUYJMQONPNNFPI-UHFFFAOYSA-N

>  <BindingDB>
50029668

>  <PubChem>
71496458

>  <ChEMBL>
CHEMBL3353410

$$$$
Compound 466
Actelion Java MolfileCreator 2.0

  0  0  0  0  0  0              0 V3000
M  V30 BEGIN CTAB
M  V30 COUNTS 37 40 0 0 0
M  V30 BEGIN ATOM
M  V30 1 O 0.0 0.0 0.0 0
M  V30 2 C -1.1027 -0.1797 0.0 0
M  V30 3 N -2.2175 0.875 0.0 0
M  V30 4 C -1.4623 -1.6541 0.0 0
M  V30 5 C -1.8818 2.3733 0.0 0
M  V30 6 C -0.3715 -2.6849 0.0 0
M  V30 7 C -0.4315 2.8168 0.0 0
M  V30 8 C -2.9966 3.4281 0.0 0
M  V30 9 N 0.6592 1.786 0.0 0
M  V30 10 C -0.0958 4.3151 0.0 0
M  V30 11 C -2.661 4.9264 0.0 0
M  V30 12 C 2.1096 2.2295 0.0 0
M  V30 13 C 0.5274 0.6952 0.0 0
M  V30 14 C -1.2106 5.3699 0.0 0
M  V30 15 N -3.7757 5.9813 0.0 0
M  V30 16 C 3.2004 1.1986 0.0 0
M  V30 17 O -0.875 6.8683 0.0 0
M  V30 18 C -5.2501 5.5617 0.0 0
M  V30 19 N 4.6507 1.6421 0.0 0
M  V30 20 C 0.5753 7.3118 0.0 0
M  V30 21 N -5.6097 4.0874 0.0 0
M  V30 22 N -6.3648 6.6165 0.0 0
M  V30 23 C 5.7415 0.6113 0.0 0
M  V30 24 C 4.9864 3.1404 0.0 0
M  V30 25 C -7.084 3.6678 0.0 0
M  V30 26 C -7.8392 6.197 0.0 0
M  V30 27 C -7.4436 2.1935 0.0 0
M  V30 28 C -8.1988 4.7227 0.0 0
M  V30 29 C -6.4607 1.0548 0.0 0
M  V30 30 C -8.858 1.6181 0.0 0
M  V30 31 C -7.2638 -0.2277 0.0 0
M  V30 32 C -4.9504 1.0308 0.0 0
M  V30 33 N -8.7502 0.1078 0.0 0
M  V30 34 C -6.5446 -1.5462 0.0 0
M  V30 35 C -4.2312 -0.2876 0.0 0
M  V30 36 C -9.9129 -0.875 0.0 0
M  V30 37 C -5.0343 -1.5702 0.0 0
M  V30 END ATOM
M  V30 BEGIN BOND
M  V30 1 2 1 2
M  V30 2 1 2 3
M  V30 3 1 2 4
M  V30 4 1 3 5
M  V30 5 2 4 6
M  V30 6 2 5 7
M  V30 7 1 5 8
M  V30 8 1 7 9
M  V30 9 1 7 10
M  V30 10 2 8 11
M  V30 11 1 9 12
M  V30 12 1 9 13
M  V30 13 2 10 14
M  V30 14 1 11 15
M  V30 15 1 12 16
M  V30 16 1 14 17
M  V30 17 1 15 18
M  V30 18 1 16 19
M  V30 19 1 17 20
M  V30 20 2 18 21
M  V30 21 1 18 22
M  V30 22 1 19 23
M  V30 23 1 19 24
M  V30 24 1 21 25
M  V30 25 2 22 26
M  V30 26 1 25 27
M  V30 27 2 25 28
M  V30 28 1 27 29
M  V30 29 2 27 30
M  V30 30 2 29 31
M  V30 31 1 29 32
M  V30 32 1 30 33
M  V30 33 1 31 34
M  V30 34 2 32 35
M  V30 35 1 33 36
M  V30 36 2 34 37
M  V30 37 1 11 14
M  V30 38 1 26 28
M  V30 39 1 31 33
M  V30 40 1 35 37
M  V30 END BOND
M  V30 END CTAB
M  END
>  <Compound ID>
133

>  <Name>
Osimertinib

>  <Uniprot>
P00533

>  <Target>
EGFR

>  <Smiles>
C=CC(=O)NC1=CC(NC2=NC=CC(C3=CN(C)C4=CC=CC=C34)=N2)=C(OC)C=C1N(C)CCN(C)C

>  <Kd (nM)>


>  <Assay (Kd)>


>  <Ki (nM)>
14

>  <Assay (Ki)>
Ki of EGFR WT

>  <IC50 (nM)>
1.6

>  <Assay (IC50)>
IC50 of EGFR WT was tested by the HTRF assay

>  <EC50 (nM)>


>  <Assay (EC50)>


>  <Article DOI>
10.1021/acs.jmedchem.6b01626

>  <Molecular Weight>
499.619

>  <Exact Mass>
499.269573296

>  <XLogP3>
3.72

>  <Heavy Atom Count>
37

>  <Ring Count>
4

>  <Hydrogen Bond Acceptor Count>
8

>  <Hydrogen Bond Donor Count>
2

>  <Rotatable Bond Count>
10

>  <Topological Polar Surface Area>
87.55

>  <Molecular Formula>
C28H33N7O2

>  <InChI>
InChI=1S/C28H33N7O2/c1-7-27(36)30-22-16-23(26(37-6)17-25(22)34(4)15-14-33(2)3)32-28-29-13-12-21(31-28)20-18-35(5)24-11-9-8-10-19(20)24/h7-13,16-18H,1,14-15H2,2-6H3,(H,30,36)(H,29,31,32)

>  <InChI Key>
DUYJMQONPNNFPI-UHFFFAOYSA-N

>  <BindingDB>
50029668

>  <PubChem>
71496458

>  <ChEMBL>
CHEMBL3353410

$$$$
Compound 467
Actelion Java MolfileCreator 2.0

  0  0  0  0  0  0              0 V3000
M  V30 BEGIN CTAB
M  V30 COUNTS 36 41 0 0 0
M  V30 BEGIN ATOM
M  V30 1 O 0.0 0.0 0.0 0
M  V30 2 N -0.2955 1.4896 0.0 0
M  V30 3 C 1.4896 -0.1655 0.0 0
M  V30 4 C 1.0049 2.2345 0.0 0
M  V30 5 C 2.1163 1.2177 0.0 0
M  V30 6 C 2.2108 -1.466 0.0 0
M  V30 7 C 1.1704 3.7478 0.0 0
M  V30 8 C 3.5823 1.5133 0.0 0
M  V30 9 C 4.5636 0.3901 0.0 0
M  V30 10 C 4.0552 2.9557 0.0 0
M  V30 11 O 4.067 -1.0285 0.0 0
M  V30 12 C 6.0297 0.6857 0.0 0
M  V30 13 C 5.5213 3.2513 0.0 0
M  V30 14 C 5.0484 -2.1517 0.0 0
M  V30 15 C 6.5026 2.1281 0.0 0
M  V30 16 N 6.2898 4.5518 0.0 0
M  V30 17 C 7.874 2.7311 0.0 0
M  V30 18 C 7.744 4.2207 0.0 0
M  V30 19 C 9.2337 2.1044 0.0 0
M  V30 20 N 8.9617 5.0956 0.0 0
M  V30 21 N 10.4514 2.9793 0.0 0
M  V30 22 N 9.3519 0.6147 0.0 0
M  V30 23 C 10.3214 4.469 0.0 0
M  V30 24 C 10.7115 -0.0118 0.0 0
M  V30 25 C 11.5392 5.3439 0.0 0
M  V30 26 N 10.9835 -1.4778 0.0 0
M  V30 27 C 12.0121 0.733 0.0 0
M  V30 28 O 12.8988 4.7173 0.0 0
M  V30 29 N 12.4732 -1.6433 0.0 0
M  V30 30 C 9.9431 -2.5655 0.0 0
M  V30 31 C 13.0998 -0.2837 0.0 0
M  V30 32 C 14.1166 5.5922 0.0 0
M  V30 33 C 10.3687 -3.9961 0.0 0
M  V30 34 C 14.5658 0.0118 0.0 0
M  V30 35 C 15.689 1.0167 0.0 0
M  V30 36 C 15.9846 -0.461 0.0 0
M  V30 END ATOM
M  V30 BEGIN BOND
M  V30 1 1 1 2
M  V30 2 1 1 3
M  V30 3 2 2 4
M  V30 4 2 3 5
M  V30 5 1 3 6
M  V30 6 1 4 7
M  V30 7 1 5 8
M  V30 8 2 8 9
M  V30 9 1 8 10
M  V30 10 1 9 11
M  V30 11 1 9 12
M  V30 12 2 10 13
M  V30 13 1 11 14
M  V30 14 2 12 15
M  V30 15 1 13 16
M  V30 16 1 15 17
M  V30 17 1 16 18
M  V30 18 1 17 19
M  V30 19 1 18 20
M  V30 20 2 19 21
M  V30 21 1 19 22
M  V30 22 2 20 23
M  V30 23 1 22 24
M  V30 24 1 23 25
M  V30 25 1 24 26
M  V30 26 2 24 27
M  V30 27 1 25 28
M  V30 28 1 26 29
M  V30 29 1 26 30
M  V30 30 1 27 31
M  V30 31 1 28 32
M  V30 32 1 30 33
M  V30 33 1 31 34
M  V30 34 1 34 35
M  V30 35 1 34 36
M  V30 36 1 4 5
M  V30 37 1 13 15
M  V30 38 2 17 18
M  V30 39 1 21 23
M  V30 40 2 29 31
M  V30 41 1 35 36
M  V30 END BOND
M  V30 END CTAB
M  END
>  <Compound ID>
134

>  <Name>
BETi-211

>  <Uniprot>
P25440

>  <Target>
BRD2

>  <Smiles>
CCN1N=C(C2CC2)C=C1NC1=NC(COC)=NC2=C1C1=CC(OC)=C(C3=C(C)ON=C3C)C=C1[NH]2

>  <Kd (nM)>


>  <Assay (Kd)>


>  <Ki (nM)>
<1/<1

>  <Assay (Ki)>
Ki of BRD2 BD1/BD2 was tested by FP

>  <IC50 (nM)>


>  <Assay (IC50)>


>  <EC50 (nM)>


>  <Assay (EC50)>


>  <Article DOI>
10.1158/0008-5472.CAN-16-2622

>  <Molecular Weight>
487.564

>  <Exact Mass>
487.233187788

>  <XLogP3>
3.93

>  <Heavy Atom Count>
36

>  <Ring Count>
6

>  <Hydrogen Bond Acceptor Count>
9

>  <Hydrogen Bond Donor Count>
2

>  <Rotatable Bond Count>
8

>  <Topological Polar Surface Area>
115.91

>  <Molecular Formula>
C26H29N7O3

>  <InChI>
InChI=1S/C26H29N7O3/c1-6-33-22(11-18(31-33)15-7-8-15)30-26-24-16-10-20(35-5)17(23-13(2)32-36-14(23)3)9-19(16)27-25(24)28-21(29-26)12-34-4/h9-11,15H,6-8,12H2,1-5H3,(H2,27,28,29,30)

>  <InChI Key>
IOUPQJFKVLVXRQ-UHFFFAOYSA-N

>  <BindingDB>


>  <PubChem>
122508095

>  <ChEMBL>


$$$$
Compound 468
Actelion Java MolfileCreator 2.0

  0  0  0  0  0  0              0 V3000
M  V30 BEGIN CTAB
M  V30 COUNTS 36 41 0 0 0
M  V30 BEGIN ATOM
M  V30 1 O 0.0 0.0 0.0 0
M  V30 2 N -0.2955 1.4896 0.0 0
M  V30 3 C 1.4896 -0.1655 0.0 0
M  V30 4 C 1.0049 2.2345 0.0 0
M  V30 5 C 2.1163 1.2177 0.0 0
M  V30 6 C 2.2108 -1.466 0.0 0
M  V30 7 C 1.1704 3.7478 0.0 0
M  V30 8 C 3.5823 1.5133 0.0 0
M  V30 9 C 4.5636 0.3901 0.0 0
M  V30 10 C 4.0552 2.9557 0.0 0
M  V30 11 O 4.067 -1.0285 0.0 0
M  V30 12 C 6.0297 0.6857 0.0 0
M  V30 13 C 5.5213 3.2513 0.0 0
M  V30 14 C 5.0484 -2.1517 0.0 0
M  V30 15 C 6.5026 2.1281 0.0 0
M  V30 16 N 6.2898 4.5518 0.0 0
M  V30 17 C 7.874 2.7311 0.0 0
M  V30 18 C 7.744 4.2207 0.0 0
M  V30 19 C 9.2337 2.1044 0.0 0
M  V30 20 N 8.9617 5.0956 0.0 0
M  V30 21 N 10.4514 2.9793 0.0 0
M  V30 22 N 9.3519 0.6147 0.0 0
M  V30 23 C 10.3214 4.469 0.0 0
M  V30 24 C 10.7115 -0.0118 0.0 0
M  V30 25 C 11.5392 5.3439 0.0 0
M  V30 26 N 10.9835 -1.4778 0.0 0
M  V30 27 C 12.0121 0.733 0.0 0
M  V30 28 O 12.8988 4.7173 0.0 0
M  V30 29 N 12.4732 -1.6433 0.0 0
M  V30 30 C 9.9431 -2.5655 0.0 0
M  V30 31 C 13.0998 -0.2837 0.0 0
M  V30 32 C 14.1166 5.5922 0.0 0
M  V30 33 C 10.3687 -3.9961 0.0 0
M  V30 34 C 14.5658 0.0118 0.0 0
M  V30 35 C 15.689 1.0167 0.0 0
M  V30 36 C 15.9846 -0.461 0.0 0
M  V30 END ATOM
M  V30 BEGIN BOND
M  V30 1 1 1 2
M  V30 2 1 1 3
M  V30 3 2 2 4
M  V30 4 2 3 5
M  V30 5 1 3 6
M  V30 6 1 4 7
M  V30 7 1 5 8
M  V30 8 2 8 9
M  V30 9 1 8 10
M  V30 10 1 9 11
M  V30 11 1 9 12
M  V30 12 2 10 13
M  V30 13 1 11 14
M  V30 14 2 12 15
M  V30 15 1 13 16
M  V30 16 1 15 17
M  V30 17 1 16 18
M  V30 18 1 17 19
M  V30 19 1 18 20
M  V30 20 2 19 21
M  V30 21 1 19 22
M  V30 22 2 20 23
M  V30 23 1 22 24
M  V30 24 1 23 25
M  V30 25 1 24 26
M  V30 26 2 24 27
M  V30 27 1 25 28
M  V30 28 1 26 29
M  V30 29 1 26 30
M  V30 30 1 27 31
M  V30 31 1 28 32
M  V30 32 1 30 33
M  V30 33 1 31 34
M  V30 34 1 34 35
M  V30 35 1 34 36
M  V30 36 1 4 5
M  V30 37 1 13 15
M  V30 38 2 17 18
M  V30 39 1 21 23
M  V30 40 2 29 31
M  V30 41 1 35 36
M  V30 END BOND
M  V30 END CTAB
M  END
>  <Compound ID>
134

>  <Name>
BETi-211

>  <Uniprot>
Q15059

>  <Target>
BRD3

>  <Smiles>
CCN1N=C(C2CC2)C=C1NC1=NC(COC)=NC2=C1C1=CC(OC)=C(C3=C(C)ON=C3C)C=C1[NH]2

>  <Kd (nM)>


>  <Assay (Kd)>


>  <Ki (nM)>
<1/<1

>  <Assay (Ki)>
Ki of BRD3 BD1/BD2 was tested by FP

>  <IC50 (nM)>


>  <Assay (IC50)>


>  <EC50 (nM)>


>  <Assay (EC50)>


>  <Article DOI>
10.1158/0008-5472.CAN-16-2622

>  <Molecular Weight>
487.564

>  <Exact Mass>
487.233187788

>  <XLogP3>
3.93

>  <Heavy Atom Count>
36

>  <Ring Count>
6

>  <Hydrogen Bond Acceptor Count>
9

>  <Hydrogen Bond Donor Count>
2

>  <Rotatable Bond Count>
8

>  <Topological Polar Surface Area>
115.91

>  <Molecular Formula>
C26H29N7O3

>  <InChI>
InChI=1S/C26H29N7O3/c1-6-33-22(11-18(31-33)15-7-8-15)30-26-24-16-10-20(35-5)17(23-13(2)32-36-14(23)3)9-19(16)27-25(24)28-21(29-26)12-34-4/h9-11,15H,6-8,12H2,1-5H3,(H2,27,28,29,30)

>  <InChI Key>
IOUPQJFKVLVXRQ-UHFFFAOYSA-N

>  <BindingDB>


>  <PubChem>
122508095

>  <ChEMBL>


$$$$
Compound 469
Actelion Java MolfileCreator 2.0

  0  0  0  0  0  0              0 V3000
M  V30 BEGIN CTAB
M  V30 COUNTS 36 41 0 0 0
M  V30 BEGIN ATOM
M  V30 1 O 0.0 0.0 0.0 0
M  V30 2 N -0.2955 1.4896 0.0 0
M  V30 3 C 1.4896 -0.1655 0.0 0
M  V30 4 C 1.0049 2.2345 0.0 0
M  V30 5 C 2.1163 1.2177 0.0 0
M  V30 6 C 2.2108 -1.466 0.0 0
M  V30 7 C 1.1704 3.7478 0.0 0
M  V30 8 C 3.5823 1.5133 0.0 0
M  V30 9 C 4.5636 0.3901 0.0 0
M  V30 10 C 4.0552 2.9557 0.0 0
M  V30 11 O 4.067 -1.0285 0.0 0
M  V30 12 C 6.0297 0.6857 0.0 0
M  V30 13 C 5.5213 3.2513 0.0 0
M  V30 14 C 5.0484 -2.1517 0.0 0
M  V30 15 C 6.5026 2.1281 0.0 0
M  V30 16 N 6.2898 4.5518 0.0 0
M  V30 17 C 7.874 2.7311 0.0 0
M  V30 18 C 7.744 4.2207 0.0 0
M  V30 19 C 9.2337 2.1044 0.0 0
M  V30 20 N 8.9617 5.0956 0.0 0
M  V30 21 N 10.4514 2.9793 0.0 0
M  V30 22 N 9.3519 0.6147 0.0 0
M  V30 23 C 10.3214 4.469 0.0 0
M  V30 24 C 10.7115 -0.0118 0.0 0
M  V30 25 C 11.5392 5.3439 0.0 0
M  V30 26 N 10.9835 -1.4778 0.0 0
M  V30 27 C 12.0121 0.733 0.0 0
M  V30 28 O 12.8988 4.7173 0.0 0
M  V30 29 N 12.4732 -1.6433 0.0 0
M  V30 30 C 9.9431 -2.5655 0.0 0
M  V30 31 C 13.0998 -0.2837 0.0 0
M  V30 32 C 14.1166 5.5922 0.0 0
M  V30 33 C 10.3687 -3.9961 0.0 0
M  V30 34 C 14.5658 0.0118 0.0 0
M  V30 35 C 15.689 1.0167 0.0 0
M  V30 36 C 15.9846 -0.461 0.0 0
M  V30 END ATOM
M  V30 BEGIN BOND
M  V30 1 1 1 2
M  V30 2 1 1 3
M  V30 3 2 2 4
M  V30 4 2 3 5
M  V30 5 1 3 6
M  V30 6 1 4 7
M  V30 7 1 5 8
M  V30 8 2 8 9
M  V30 9 1 8 10
M  V30 10 1 9 11
M  V30 11 1 9 12
M  V30 12 2 10 13
M  V30 13 1 11 14
M  V30 14 2 12 15
M  V30 15 1 13 16
M  V30 16 1 15 17
M  V30 17 1 16 18
M  V30 18 1 17 19
M  V30 19 1 18 20
M  V30 20 2 19 21
M  V30 21 1 19 22
M  V30 22 2 20 23
M  V30 23 1 22 24
M  V30 24 1 23 25
M  V30 25 1 24 26
M  V30 26 2 24 27
M  V30 27 1 25 28
M  V30 28 1 26 29
M  V30 29 1 26 30
M  V30 30 1 27 31
M  V30 31 1 28 32
M  V30 32 1 30 33
M  V30 33 1 31 34
M  V30 34 1 34 35
M  V30 35 1 34 36
M  V30 36 1 4 5
M  V30 37 1 13 15
M  V30 38 2 17 18
M  V30 39 1 21 23
M  V30 40 2 29 31
M  V30 41 1 35 36
M  V30 END BOND
M  V30 END CTAB
M  END
>  <Compound ID>
134

>  <Name>
BETi-211

>  <Uniprot>
O60885

>  <Target>
BRD4

>  <Smiles>
CCN1N=C(C2CC2)C=C1NC1=NC(COC)=NC2=C1C1=CC(OC)=C(C3=C(C)ON=C3C)C=C1[NH]2

>  <Kd (nM)>


>  <Assay (Kd)>


>  <Ki (nM)>
<1/<1

>  <Assay (Ki)>
Ki of BRD4 BD1/BD2 was tested by FP

>  <IC50 (nM)>


>  <Assay (IC50)>


>  <EC50 (nM)>


>  <Assay (EC50)>


>  <Article DOI>
10.1158/0008-5472.CAN-16-2622

>  <Molecular Weight>
487.564

>  <Exact Mass>
487.233187788

>  <XLogP3>
3.93

>  <Heavy Atom Count>
36

>  <Ring Count>
6

>  <Hydrogen Bond Acceptor Count>
9

>  <Hydrogen Bond Donor Count>
2

>  <Rotatable Bond Count>
8

>  <Topological Polar Surface Area>
115.91

>  <Molecular Formula>
C26H29N7O3

>  <InChI>
InChI=1S/C26H29N7O3/c1-6-33-22(11-18(31-33)15-7-8-15)30-26-24-16-10-20(35-5)17(23-13(2)32-36-14(23)3)9-19(16)27-25(24)28-21(29-26)12-34-4/h9-11,15H,6-8,12H2,1-5H3,(H2,27,28,29,30)

>  <InChI Key>
IOUPQJFKVLVXRQ-UHFFFAOYSA-N

>  <BindingDB>


>  <PubChem>
122508095

>  <ChEMBL>


$$$$
Compound 470
Actelion Java MolfileCreator 2.0

  0  0  0  0  0  0              0 V3000
M  V30 BEGIN CTAB
M  V30 COUNTS 43 47 0 0 0
M  V30 BEGIN ATOM
M  V30 1 O 0.0 0.0 0.0 0
M  V30 2 C -0.8565 1.2437 0.0 0
M  V30 3 N -2.3584 1.1499 0.0 0
M  V30 4 C -0.2229 2.6049 0.0 0
M  V30 5 C -3.215 2.3937 0.0 0
M  V30 6 C -3.0155 -0.1877 0.0 0
M  V30 7 N -1.0795 3.8486 0.0 0
M  V30 8 N 1.2555 2.7222 0.0 0
M  V30 9 C -2.5814 3.7548 0.0 0
M  V30 10 C 1.8891 4.0833 0.0 0
M  V30 11 C -3.438 4.9986 0.0 0
M  V30 12 C 3.3676 4.2007 0.0 0
M  V30 13 C 1.0325 5.3271 0.0 0
M  V30 14 C -4.9399 4.9047 0.0 0
M  V30 15 C -2.8043 6.3597 0.0 0
M  V30 16 C 4.0012 5.5618 0.0 0
M  V30 17 C 1.6662 6.6882 0.0 0
M  V30 18 C -5.7965 6.1485 0.0 0
M  V30 19 C -5.597 3.567 0.0 0
M  V30 20 C -3.6609 7.6035 0.0 0
M  V30 21 C 3.1446 6.8056 0.0 0
M  V30 22 N -7.2984 6.0546 0.0 0
M  V30 23 C -5.1628 7.5096 0.0 0
M  V30 24 C 3.7782 8.1667 0.0 0
M  V30 25 C -8.155 7.2984 0.0 0
M  V30 26 O 2.9217 9.4105 0.0 0
M  V30 27 N 5.2567 8.284 0.0 0
M  V30 28 O -7.5213 8.6595 0.0 0
M  V30 29 C -9.6569 7.2045 0.0 0
M  V30 30 C 6.0898 7.0637 0.0 0
M  V30 31 C 5.8903 9.6452 0.0 0
M  V30 32 C -10.5135 8.4483 0.0 0
M  V30 33 C -10.314 5.8669 0.0 0
M  V30 34 C 7.5683 7.1811 0.0 0
M  V30 35 C 7.3688 9.7742 0.0 0
M  V30 36 C -12.0154 8.3544 0.0 0
M  V30 37 C -11.8159 5.773 0.0 0
M  V30 38 O 8.2019 8.5422 0.0 0
M  V30 39 C -12.6725 7.0168 0.0 0
M  V30 40 C -14.1744 6.9229 0.0 0
M  V30 41 C -14.2918 8.4248 0.0 0
M  V30 42 C -14.0805 5.4444 0.0 0
M  V30 43 C -15.6763 6.829 0.0 0
M  V30 END ATOM
M  V30 BEGIN BOND
M  V30 1 2 1 2
M  V30 2 1 2 3
M  V30 3 1 2 4
M  V30 4 1 3 5
M  V30 5 1 3 6
M  V30 6 2 4 7
M  V30 7 1 4 8
M  V30 8 2 5 9
M  V30 9 1 8 10
M  V30 10 1 9 11
M  V30 11 2 10 12
M  V30 12 1 10 13
M  V30 13 2 11 14
M  V30 14 1 11 15
M  V30 15 1 12 16
M  V30 16 2 13 17
M  V30 17 1 14 18
M  V30 18 1 14 19
M  V30 19 2 15 20
M  V30 20 2 16 21
M  V30 21 1 18 22
M  V30 22 2 18 23
M  V30 23 1 21 24
M  V30 24 1 22 25
M  V30 25 2 24 26
M  V30 26 1 24 27
M  V30 27 2 25 28
M  V30 28 1 25 29
M  V30 29 1 27 30
M  V30 30 1 27 31
M  V30 31 2 29 32
M  V30 32 1 29 33
M  V30 33 1 30 34
M  V30 34 1 31 35
M  V30 35 1 32 36
M  V30 36 2 33 37
M  V30 37 1 34 38
M  V30 38 2 36 39
M  V30 39 1 39 40
M  V30 40 1 40 41
M  V30 41 1 40 42
M  V30 42 1 40 43
M  V30 43 1 7 9
M  V30 44 1 17 21
M  V30 45 1 20 23
M  V30 46 1 35 38
M  V30 47 1 37 39
M  V30 END BOND
M  V30 END CTAB
M  END
>  <Compound ID>
135

>  <Name>
CGI1746

>  <Uniprot>
Q06187

>  <Target>
BTK C481S

>  <Smiles>
CC1=C(NC(=O)C2=CC=C(C(C)(C)C)C=C2)C=CC=C1C1=CN(C)C(=O)C(NC2=CC=C(C(=O)N3CCOCC3)C=C2)=N1

>  <Kd (nM)>


>  <Assay (Kd)>


>  <Ki (nM)>


>  <Assay (Ki)>


>  <IC50 (nM)>


>  <Assay (IC50)>


>  <EC50 (nM)>


>  <Assay (EC50)>


>  <Article DOI>
10.1182/blood-2018-07-862953

>  <Molecular Weight>
579.701

>  <Exact Mass>
579.284554664

>  <XLogP3>
4.44

>  <Heavy Atom Count>
43

>  <Ring Count>
5

>  <Hydrogen Bond Acceptor Count>
7

>  <Hydrogen Bond Donor Count>
2

>  <Rotatable Bond Count>
6

>  <Topological Polar Surface Area>
105.56

>  <Molecular Formula>
C34H37N5O4

>  <InChI>
InChI=1S/C34H37N5O4/c1-22-27(7-6-8-28(22)37-31(40)23-9-13-25(14-10-23)34(2,3)4)29-21-38(5)33(42)30(36-29)35-26-15-11-24(12-16-26)32(41)39-17-19-43-20-18-39/h6-16,21H,17-20H2,1-5H3,(H,35,36)(H,37,40)

>  <InChI Key>
JIFCFQDXHMUPGP-UHFFFAOYSA-N

>  <BindingDB>
36516

>  <PubChem>
24857323

>  <ChEMBL>
CHEMBL1230541

$$$$
Compound 471
Actelion Java MolfileCreator 2.0

  0  0  0  0  0  0              0 V3000
M  V30 BEGIN CTAB
M  V30 COUNTS 43 47 0 0 0
M  V30 BEGIN ATOM
M  V30 1 O 0.0 0.0 0.0 0
M  V30 2 C -0.8565 1.2437 0.0 0
M  V30 3 N -2.3584 1.1499 0.0 0
M  V30 4 C -0.2229 2.6049 0.0 0
M  V30 5 C -3.215 2.3937 0.0 0
M  V30 6 C -3.0155 -0.1877 0.0 0
M  V30 7 N -1.0795 3.8486 0.0 0
M  V30 8 N 1.2555 2.7222 0.0 0
M  V30 9 C -2.5814 3.7548 0.0 0
M  V30 10 C 1.8891 4.0833 0.0 0
M  V30 11 C -3.438 4.9986 0.0 0
M  V30 12 C 3.3676 4.2007 0.0 0
M  V30 13 C 1.0325 5.3271 0.0 0
M  V30 14 C -4.9399 4.9047 0.0 0
M  V30 15 C -2.8043 6.3597 0.0 0
M  V30 16 C 4.0012 5.5618 0.0 0
M  V30 17 C 1.6662 6.6882 0.0 0
M  V30 18 C -5.7965 6.1485 0.0 0
M  V30 19 C -5.597 3.567 0.0 0
M  V30 20 C -3.6609 7.6035 0.0 0
M  V30 21 C 3.1446 6.8056 0.0 0
M  V30 22 N -7.2984 6.0546 0.0 0
M  V30 23 C -5.1628 7.5096 0.0 0
M  V30 24 C 3.7782 8.1667 0.0 0
M  V30 25 C -8.155 7.2984 0.0 0
M  V30 26 O 2.9217 9.4105 0.0 0
M  V30 27 N 5.2567 8.284 0.0 0
M  V30 28 O -7.5213 8.6595 0.0 0
M  V30 29 C -9.6569 7.2045 0.0 0
M  V30 30 C 6.0898 7.0637 0.0 0
M  V30 31 C 5.8903 9.6452 0.0 0
M  V30 32 C -10.5135 8.4483 0.0 0
M  V30 33 C -10.314 5.8669 0.0 0
M  V30 34 C 7.5683 7.1811 0.0 0
M  V30 35 C 7.3688 9.7742 0.0 0
M  V30 36 C -12.0154 8.3544 0.0 0
M  V30 37 C -11.8159 5.773 0.0 0
M  V30 38 O 8.2019 8.5422 0.0 0
M  V30 39 C -12.6725 7.0168 0.0 0
M  V30 40 C -14.1744 6.9229 0.0 0
M  V30 41 C -14.2918 8.4248 0.0 0
M  V30 42 C -14.0805 5.4444 0.0 0
M  V30 43 C -15.6763 6.829 0.0 0
M  V30 END ATOM
M  V30 BEGIN BOND
M  V30 1 2 1 2
M  V30 2 1 2 3
M  V30 3 1 2 4
M  V30 4 1 3 5
M  V30 5 1 3 6
M  V30 6 2 4 7
M  V30 7 1 4 8
M  V30 8 2 5 9
M  V30 9 1 8 10
M  V30 10 1 9 11
M  V30 11 2 10 12
M  V30 12 1 10 13
M  V30 13 2 11 14
M  V30 14 1 11 15
M  V30 15 1 12 16
M  V30 16 2 13 17
M  V30 17 1 14 18
M  V30 18 1 14 19
M  V30 19 2 15 20
M  V30 20 2 16 21
M  V30 21 1 18 22
M  V30 22 2 18 23
M  V30 23 1 21 24
M  V30 24 1 22 25
M  V30 25 2 24 26
M  V30 26 1 24 27
M  V30 27 2 25 28
M  V30 28 1 25 29
M  V30 29 1 27 30
M  V30 30 1 27 31
M  V30 31 2 29 32
M  V30 32 1 29 33
M  V30 33 1 30 34
M  V30 34 1 31 35
M  V30 35 1 32 36
M  V30 36 2 33 37
M  V30 37 1 34 38
M  V30 38 2 36 39
M  V30 39 1 39 40
M  V30 40 1 40 41
M  V30 41 1 40 42
M  V30 42 1 40 43
M  V30 43 1 7 9
M  V30 44 1 17 21
M  V30 45 1 20 23
M  V30 46 1 35 38
M  V30 47 1 37 39
M  V30 END BOND
M  V30 END CTAB
M  END
>  <Compound ID>
135

>  <Name>
CGI1746

>  <Uniprot>
Q06187

>  <Target>
BTK

>  <Smiles>
CC1=C(NC(=O)C2=CC=C(C(C)(C)C)C=C2)C=CC=C1C1=CN(C)C(=O)C(NC2=CC=C(C(=O)N3CCOCC3)C=C2)=N1

>  <Kd (nM)>


>  <Assay (Kd)>


>  <Ki (nM)>


>  <Assay (Ki)>


>  <IC50 (nM)>
1.9

>  <Assay (IC50)>
IC50 of BTK was tested by the TR-FRET assay

>  <EC50 (nM)>


>  <Assay (EC50)>


>  <Article DOI>
10.1038/nchembio.481

>  <Molecular Weight>
579.701

>  <Exact Mass>
579.284554664

>  <XLogP3>
4.44

>  <Heavy Atom Count>
43

>  <Ring Count>
5

>  <Hydrogen Bond Acceptor Count>
7

>  <Hydrogen Bond Donor Count>
2

>  <Rotatable Bond Count>
6

>  <Topological Polar Surface Area>
105.56

>  <Molecular Formula>
C34H37N5O4

>  <InChI>
InChI=1S/C34H37N5O4/c1-22-27(7-6-8-28(22)37-31(40)23-9-13-25(14-10-23)34(2,3)4)29-21-38(5)33(42)30(36-29)35-26-15-11-24(12-16-26)32(41)39-17-19-43-20-18-39/h6-16,21H,17-20H2,1-5H3,(H,35,36)(H,37,40)

>  <InChI Key>
JIFCFQDXHMUPGP-UHFFFAOYSA-N

>  <BindingDB>
36516

>  <PubChem>
24857323

>  <ChEMBL>
CHEMBL1230541

$$$$
Compound 472
Actelion Java MolfileCreator 2.0

  0  0  0  0  0  0              0 V3000
M  V30 BEGIN CTAB
M  V30 COUNTS 26 29 0 0 0
M  V30 BEGIN ATOM
M  V30 1 F 0.0 0.0 0.0 0
M  V30 2 C 0.5231 1.4067 0.0 0
M  V30 3 C -0.4301 2.5809 0.0 0
M  V30 4 C 1.988 1.6509 0.0 0
M  V30 5 C 0.093 3.9877 0.0 0
M  V30 6 C -1.9183 2.3601 0.0 0
M  V30 7 C 2.5112 3.0576 0.0 0
M  V30 8 C 1.5579 4.2319 0.0 0
M  V30 9 C 2.081 5.6386 0.0 0
M  V30 10 C 1.1277 6.8129 0.0 0
M  V30 11 C 3.5459 5.8828 0.0 0
M  V30 12 N 1.6509 8.2196 0.0 0
M  V30 13 N -0.3604 6.592 0.0 0
M  V30 14 N 4.0691 7.2895 0.0 0
M  V30 15 C 3.1158 8.4638 0.0 0
M  V30 16 C -1.3137 7.7662 0.0 0
M  V30 17 C -0.9068 5.2085 0.0 0
M  V30 18 C -2.8018 7.5453 0.0 0
M  V30 19 C -2.3949 4.9876 0.0 0
M  V30 20 C -3.3483 6.1618 0.0 0
M  V30 21 C -4.8364 5.9409 0.0 0
M  V30 22 N -5.906 7.0105 0.0 0
M  V30 23 C -5.5224 4.6155 0.0 0
M  V30 24 C -7.243 6.3362 0.0 0
M  V30 25 N -7.0105 4.8597 0.0 0
M  V30 26 C -4.848 3.3018 0.0 0
M  V30 END ATOM
M  V30 BEGIN BOND
M  V30 1 1 1 2
M  V30 2 2 2 3
M  V30 3 1 2 4
M  V30 4 1 3 5
M  V30 5 1 3 6
M  V30 6 2 4 7
M  V30 7 2 5 8
M  V30 8 1 8 9
M  V30 9 2 9 10
M  V30 10 1 9 11
M  V30 11 1 10 12
M  V30 12 1 10 13
M  V30 13 2 11 14
M  V30 14 2 12 15
M  V30 15 1 13 16
M  V30 16 1 13 17
M  V30 17 1 16 18
M  V30 18 1 17 19
M  V30 19 1 18 20
M  V30 20 1 20 21
M  V30 21 1 21 22
M  V30 22 2 21 23
M  V30 23 1 22 24
M  V30 24 1 23 25
M  V30 25 1 23 26
M  V30 26 1 7 8
M  V30 27 1 14 15
M  V30 28 1 19 20
M  V30 29 2 24 25
M  V30 END BOND
M  V30 END CTAB
M  END
>  <Compound ID>
136

>  <Name>


>  <Uniprot>
P19634

>  <Target>
SLC9A1

>  <Smiles>
CC1=CC(C2=CN=CN=C2N2CCC(C3=C(C)N=C[NH]3)CC2)=CC=C1F

>  <Kd (nM)>


>  <Assay (Kd)>


>  <Ki (nM)>


>  <Assay (Ki)>


>  <IC50 (nM)>
21

>  <Assay (IC50)>
IC50 of SCL9A1

>  <EC50 (nM)>


>  <Assay (EC50)>


>  <Article DOI>
10.1016/j.bmcl.2006.06.077

>  <Molecular Weight>
351.429

>  <Exact Mass>
351.185923924

>  <XLogP3>
3.56

>  <Heavy Atom Count>
26

>  <Ring Count>
4

>  <Hydrogen Bond Acceptor Count>
4

>  <Hydrogen Bond Donor Count>
1

>  <Rotatable Bond Count>
3

>  <Topological Polar Surface Area>
57.7

>  <Molecular Formula>
C20H22FN5

>  <InChI>
InChI=1S/C20H22FN5/c1-13-9-16(3-4-18(13)21)17-10-22-11-25-20(17)26-7-5-15(6-8-26)19-14(2)23-12-24-19/h3-4,9-12,15H,5-8H2,1-2H3,(H,23,24)

>  <InChI Key>
NCYXZCBTHWJATE-UHFFFAOYSA-N

>  <BindingDB>
50191833

>  <PubChem>
20779104

>  <ChEMBL>
CHEMBL376979

$$$$
Compound 473
Actelion Java MolfileCreator 2.0

  0  0  0  0  0  0              0 V3000
M  V30 BEGIN CTAB
M  V30 COUNTS 45 51 0 0 0
M  V30 BEGIN ATOM
M  V30 1 F 0.0 0.0 0.0 0
M  V30 2 C 1.2715 -0.7534 0.0 0
M  V30 3 C 1.2362 -2.2369 0.0 0
M  V30 4 C 2.5665 -0.0117 0.0 0
M  V30 5 C -0.0824 -2.9551 0.0 0
M  V30 6 C 2.5077 -2.9904 0.0 0
M  V30 7 C 3.8381 -0.7652 0.0 0
M  V30 8 O -1.3774 -2.178 0.0 0
M  V30 9 N -0.1177 -4.4385 0.0 0
M  V30 10 C 3.8027 -2.2487 0.0 0
M  V30 11 C 2.4724 -4.4738 0.0 0
M  V30 12 C 5.1331 -0.0235 0.0 0
M  V30 13 C -1.4363 -5.1567 0.0 0
M  V30 14 C 1.1537 -5.192 0.0 0
M  V30 15 C 5.8866 1.2715 0.0 0
M  V30 16 C 6.6166 -0.0353 0.0 0
M  V30 17 C -2.7314 -4.3796 0.0 0
M  V30 18 C -1.4716 -6.6401 0.0 0
M  V30 19 C -4.05 -5.0978 0.0 0
M  V30 20 C -2.7196 -2.8726 0.0 0
M  V30 21 C -2.7902 -7.3583 0.0 0
M  V30 22 C -5.3451 -4.3208 0.0 0
M  V30 23 C -4.0853 -6.5813 0.0 0
M  V30 24 O -4.0147 -2.0956 0.0 0
M  V30 25 C -5.3333 -2.8138 0.0 0
M  V30 26 C -6.6637 -5.0389 0.0 0
M  V30 27 N -6.6283 -2.0367 0.0 0
M  V30 28 C -7.9587 -4.2619 0.0 0
M  V30 29 C -7.947 -2.7549 0.0 0
M  V30 30 C -6.6166 -0.5298 0.0 0
M  V30 31 N -9.2773 -4.9801 0.0 0
M  V30 32 O -9.242 -1.9779 0.0 0
M  V30 33 C -10.5724 -4.203 0.0 0
M  V30 34 N -10.5606 -2.696 0.0 0
M  V30 35 C -11.891 -4.9212 0.0 0
M  V30 36 C -11.8557 -1.919 0.0 0
M  V30 37 C -13.1861 -4.1442 0.0 0
M  V30 38 C -13.1743 -2.6372 0.0 0
M  V30 39 N -14.4694 -1.8601 0.0 0
M  V30 40 C -14.4576 -0.3532 0.0 0
M  V30 41 C -15.788 -2.5783 0.0 0
M  V30 42 C -15.7527 0.4238 0.0 0
M  V30 43 C -17.0831 -1.8013 0.0 0
M  V30 44 N -17.0713 -0.2943 0.0 0
M  V30 45 C -18.3664 0.4827 0.0 0
M  V30 END ATOM
M  V30 BEGIN BOND
M  V30 1 1 1 2
M  V30 2 2 2 3
M  V30 3 1 2 4
M  V30 4 1 3 5
M  V30 5 1 3 6
M  V30 6 2 4 7
M  V30 7 2 5 8
M  V30 8 1 5 9
M  V30 9 2 6 10
M  V30 10 1 6 11
M  V30 11 1 7 12
M  V30 12 1 9 13
M  V30 13 1 9 14
M  V30 14 1 12 15
M  V30 15 1 12 16
M  V30 16 2 13 17
M  V30 17 1 13 18
M  V30 18 1 17 19
M  V30 19 1 17 20
M  V30 20 2 18 21
M  V30 21 1 19 22
M  V30 22 2 19 23
M  V30 23 1 20 24
M  V30 24 2 22 25
M  V30 25 1 22 26
M  V30 26 1 25 27
M  V30 27 2 26 28
M  V30 28 1 27 29
M  V30 29 1 27 30
M  V30 30 1 28 31
M  V30 31 2 29 32
M  V30 32 1 31 33
M  V30 33 2 33 34
M  V30 34 1 33 35
M  V30 35 1 34 36
M  V30 36 2 35 37
M  V30 37 2 36 38
M  V30 38 1 38 39
M  V30 39 1 39 40
M  V30 40 1 39 41
M  V30 41 1 40 42
M  V30 42 1 41 43
M  V30 43 1 42 44
M  V30 44 1 44 45
M  V30 45 1 7 10
M  V30 46 2 11 14
M  V30 47 1 15 16
M  V30 48 1 21 23
M  V30 49 1 28 29
M  V30 50 1 37 38
M  V30 51 1 43 44
M  V30 END BOND
M  V30 END CTAB
M  END
>  <Compound ID>
137

>  <Name>
RN486

>  <Uniprot>
Q06187

>  <Target>
BTK

>  <Smiles>
CN1CCN(C2=CC=C(NC3=CC(C4=CC=CC(N5C=CC6=CC(C7CC7)=CC(F)=C6C5=O)=C4CO)=CN(C)C3=O)N=C2)CC1

>  <Kd (nM)>


>  <Assay (Kd)>


>  <Ki (nM)>


>  <Assay (Ki)>


>  <IC50 (nM)>
0.3

>  <Assay (IC50)>
IC50 of BTK was tested by the TR-FRET assay

>  <EC50 (nM)>


>  <Assay (EC50)>


>  <Article DOI>
10.1021/jm300035p

>  <Molecular Weight>
606.702

>  <Exact Mass>
606.2754672

>  <XLogP3>
3.79

>  <Heavy Atom Count>
45

>  <Ring Count>
7

>  <Hydrogen Bond Acceptor Count>
9

>  <Hydrogen Bond Donor Count>
2

>  <Rotatable Bond Count>
7

>  <Topological Polar Surface Area>
95.63

>  <Molecular Formula>
C35H35FN6O3

>  <InChI>
InChI=1S/C35H35FN6O3/c1-39-12-14-41(15-13-39)26-8-9-32(37-19-26)38-30-18-25(20-40(2)34(30)44)27-4-3-5-31(28(27)21-43)42-11-10-23-16-24(22-6-7-22)17-29(36)33(23)35(42)45/h3-5,8-11,16-20,22,43H,6-7,12-15,21H2,1-2H3,(H,37,38)

>  <InChI Key>
ZTUJNJAKTLHBEX-UHFFFAOYSA-N

>  <BindingDB>
50388189

>  <PubChem>
46908026

>  <ChEMBL>
CHEMBL2057918

$$$$
Compound 474
Actelion Java MolfileCreator 2.0

  0  0  0  0  0  0              0 V3000
M  V30 BEGIN CTAB
M  V30 COUNTS 37 41 0 0 0
M  V30 BEGIN ATOM
M  V30 1 O 0.0 0.0 0.0 0
M  V30 2 C -0.0236 1.5146 0.0 0
M  V30 3 N -1.2542 2.402 0.0 0
M  V30 4 C 1.1714 2.4257 0.0 0
M  V30 5 N -0.8164 3.8457 0.0 0
M  V30 6 C -2.686 1.9406 0.0 0
M  V30 7 C 0.6863 3.8575 0.0 0
M  V30 8 C 2.6269 2.1417 0.0 0
M  V30 9 C -1.7276 5.0645 0.0 0
M  V30 10 C -2.9937 0.4851 0.0 0
M  V30 11 N 1.6684 4.9935 0.0 0
M  V30 12 N 3.609 3.2777 0.0 0
M  V30 13 N -3.2304 4.8988 0.0 0
M  V30 14 C -1.1359 6.4608 0.0 0
M  V30 15 C -4.4255 0.0236 0.0 0
M  V30 16 C 3.1239 4.7095 0.0 0
M  V30 17 C -4.1415 6.1176 0.0 0
M  V30 18 C -2.0471 7.6796 0.0 0
M  V30 19 N 4.106 5.8455 0.0 0
M  V30 20 C -3.5499 7.5139 0.0 0
M  V30 21 C -5.6443 5.952 0.0 0
M  V30 22 C 5.5615 5.5615 0.0 0
M  V30 23 O -7.1471 5.7863 0.0 0
M  V30 24 C -5.4786 4.4728 0.0 0
M  V30 25 C -5.8336 7.4547 0.0 0
M  V30 26 C 6.0229 4.1533 0.0 0
M  V30 27 C 6.5436 6.6974 0.0 0
M  V30 28 C 7.4784 3.8693 0.0 0
M  V30 29 C 7.9991 6.4134 0.0 0
M  V30 30 C 8.4605 5.0053 0.0 0
M  V30 31 N 9.916 4.7213 0.0 0
M  V30 32 C 10.3775 3.3132 0.0 0
M  V30 33 C 10.8981 5.8573 0.0 0
M  V30 34 C 11.833 3.0292 0.0 0
M  V30 35 C 12.3536 5.5733 0.0 0
M  V30 36 N 12.8151 4.1652 0.0 0
M  V30 37 C 14.2706 3.8812 0.0 0
M  V30 END ATOM
M  V30 BEGIN BOND
M  V30 1 2 1 2
M  V30 2 1 2 3
M  V30 3 1 2 4
M  V30 4 1 3 5
M  V30 5 1 3 6
M  V30 6 2 4 7
M  V30 7 1 4 8
M  V30 8 1 5 9
M  V30 9 1 6 10
M  V30 10 1 7 11
M  V30 11 2 8 12
M  V30 12 2 9 13
M  V30 13 1 9 14
M  V30 14 2 10 15
M  V30 15 2 11 16
M  V30 16 1 13 17
M  V30 17 2 14 18
M  V30 18 1 16 19
M  V30 19 2 17 20
M  V30 20 1 17 21
M  V30 21 1 19 22
M  V30 22 1 21 23
M  V30 23 1 21 24
M  V30 24 1 21 25
M  V30 25 2 22 26
M  V30 26 1 22 27
M  V30 27 1 26 28
M  V30 28 2 27 29
M  V30 29 2 28 30
M  V30 30 1 30 31
M  V30 31 1 31 32
M  V30 32 1 31 33
M  V30 33 1 32 34
M  V30 34 1 33 35
M  V30 35 1 34 36
M  V30 36 1 36 37
M  V30 37 1 5 7
M  V30 38 1 12 16
M  V30 39 1 18 20
M  V30 40 1 29 30
M  V30 41 1 35 36
M  V30 END BOND
M  V30 END CTAB
M  END
>  <Compound ID>
138

>  <Name>
AZD1775

>  <Uniprot>
Q8NI60

>  <Target>
COQ8A

>  <Smiles>
C=CCN1C(=O)C2=CN=C(NC3=CC=C(N4CCN(C)CC4)C=C3)N=C2N1C1=CC=CC(C(C)(C)O)=N1

>  <Kd (nM)>
>30000

>  <Assay (Kd)>
Kd apparent of COQ8A

>  <Ki (nM)>


>  <Assay (Ki)>


>  <IC50 (nM)>


>  <Assay (IC50)>


>  <EC50 (nM)>


>  <Assay (EC50)>


>  <Article DOI>
10.1126/science.aan4368

>  <Molecular Weight>
500.607

>  <Exact Mass>
500.264822264

>  <XLogP3>
3.1

>  <Heavy Atom Count>
37

>  <Ring Count>
5

>  <Hydrogen Bond Acceptor Count>
10

>  <Hydrogen Bond Donor Count>
2

>  <Rotatable Bond Count>
7

>  <Topological Polar Surface Area>
104.34

>  <Molecular Formula>
C27H32N8O2

>  <InChI>
InChI=1S/C27H32N8O2/c1-5-13-34-25(36)21-18-28-26(29-19-9-11-20(12-10-19)33-16-14-32(4)15-17-33)31-24(21)35(34)23-8-6-7-22(30-23)27(2,3)37/h5-12,18,37H,1,13-17H2,2-4H3,(H,28,29,31)

>  <InChI Key>
BKWJAKQVGHWELA-UHFFFAOYSA-N

>  <BindingDB>
50240826

>  <PubChem>
24856436

>  <ChEMBL>
CHEMBL1976040

$$$$
Compound 475
Actelion Java MolfileCreator 2.0

  0  0  0  0  0  0              0 V3000
M  V30 BEGIN CTAB
M  V30 COUNTS 37 41 0 0 0
M  V30 BEGIN ATOM
M  V30 1 O 0.0 0.0 0.0 0
M  V30 2 C -0.0236 1.5146 0.0 0
M  V30 3 N -1.2542 2.402 0.0 0
M  V30 4 C 1.1714 2.4257 0.0 0
M  V30 5 N -0.8164 3.8457 0.0 0
M  V30 6 C -2.686 1.9406 0.0 0
M  V30 7 C 0.6863 3.8575 0.0 0
M  V30 8 C 2.6269 2.1417 0.0 0
M  V30 9 C -1.7276 5.0645 0.0 0
M  V30 10 C -2.9937 0.4851 0.0 0
M  V30 11 N 1.6684 4.9935 0.0 0
M  V30 12 N 3.609 3.2777 0.0 0
M  V30 13 N -3.2304 4.8988 0.0 0
M  V30 14 C -1.1359 6.4608 0.0 0
M  V30 15 C -4.4255 0.0236 0.0 0
M  V30 16 C 3.1239 4.7095 0.0 0
M  V30 17 C -4.1415 6.1176 0.0 0
M  V30 18 C -2.0471 7.6796 0.0 0
M  V30 19 N 4.106 5.8455 0.0 0
M  V30 20 C -3.5499 7.5139 0.0 0
M  V30 21 C -5.6443 5.952 0.0 0
M  V30 22 C 5.5615 5.5615 0.0 0
M  V30 23 O -7.1471 5.7863 0.0 0
M  V30 24 C -5.4786 4.4728 0.0 0
M  V30 25 C -5.8336 7.4547 0.0 0
M  V30 26 C 6.0229 4.1533 0.0 0
M  V30 27 C 6.5436 6.6974 0.0 0
M  V30 28 C 7.4784 3.8693 0.0 0
M  V30 29 C 7.9991 6.4134 0.0 0
M  V30 30 C 8.4605 5.0053 0.0 0
M  V30 31 N 9.916 4.7213 0.0 0
M  V30 32 C 10.3775 3.3132 0.0 0
M  V30 33 C 10.8981 5.8573 0.0 0
M  V30 34 C 11.833 3.0292 0.0 0
M  V30 35 C 12.3536 5.5733 0.0 0
M  V30 36 N 12.8151 4.1652 0.0 0
M  V30 37 C 14.2706 3.8812 0.0 0
M  V30 END ATOM
M  V30 BEGIN BOND
M  V30 1 2 1 2
M  V30 2 1 2 3
M  V30 3 1 2 4
M  V30 4 1 3 5
M  V30 5 1 3 6
M  V30 6 2 4 7
M  V30 7 1 4 8
M  V30 8 1 5 9
M  V30 9 1 6 10
M  V30 10 1 7 11
M  V30 11 2 8 12
M  V30 12 2 9 13
M  V30 13 1 9 14
M  V30 14 2 10 15
M  V30 15 2 11 16
M  V30 16 1 13 17
M  V30 17 2 14 18
M  V30 18 1 16 19
M  V30 19 2 17 20
M  V30 20 1 17 21
M  V30 21 1 19 22
M  V30 22 1 21 23
M  V30 23 1 21 24
M  V30 24 1 21 25
M  V30 25 2 22 26
M  V30 26 1 22 27
M  V30 27 1 26 28
M  V30 28 2 27 29
M  V30 29 2 28 30
M  V30 30 1 30 31
M  V30 31 1 31 32
M  V30 32 1 31 33
M  V30 33 1 32 34
M  V30 34 1 33 35
M  V30 35 1 34 36
M  V30 36 1 36 37
M  V30 37 1 5 7
M  V30 38 1 12 16
M  V30 39 1 18 20
M  V30 40 1 29 30
M  V30 41 1 35 36
M  V30 END BOND
M  V30 END CTAB
M  END
>  <Compound ID>
138

>  <Name>
AZD1775

>  <Uniprot>
Q9HBH9

>  <Target>
MKNK2

>  <Smiles>
C=CCN1C(=O)C2=CN=C(NC3=CC=C(N4CCN(C)CC4)C=C3)N=C2N1C1=CC=CC(C(C)(C)O)=N1

>  <Kd (nM)>


>  <Assay (Kd)>


>  <Ki (nM)>


>  <Assay (Ki)>


>  <IC50 (nM)>


>  <Assay (IC50)>


>  <EC50 (nM)>


>  <Assay (EC50)>


>  <Article DOI>
10.1016/j.cell.2020.10.038

>  <Molecular Weight>
500.607

>  <Exact Mass>
500.264822264

>  <XLogP3>
3.1

>  <Heavy Atom Count>
37

>  <Ring Count>
5

>  <Hydrogen Bond Acceptor Count>
10

>  <Hydrogen Bond Donor Count>
2

>  <Rotatable Bond Count>
7

>  <Topological Polar Surface Area>
104.34

>  <Molecular Formula>
C27H32N8O2

>  <InChI>
InChI=1S/C27H32N8O2/c1-5-13-34-25(36)21-18-28-26(29-19-9-11-20(12-10-19)33-16-14-32(4)15-17-33)31-24(21)35(34)23-8-6-7-22(30-23)27(2,3)37/h5-12,18,37H,1,13-17H2,2-4H3,(H,28,29,31)

>  <InChI Key>
BKWJAKQVGHWELA-UHFFFAOYSA-N

>  <BindingDB>
50240826

>  <PubChem>
24856436

>  <ChEMBL>
CHEMBL1976040

$$$$
Compound 476
Actelion Java MolfileCreator 2.0

  0  0  0  0  0  0              0 V3000
M  V30 BEGIN CTAB
M  V30 COUNTS 37 41 0 0 0
M  V30 BEGIN ATOM
M  V30 1 O 0.0 0.0 0.0 0
M  V30 2 C -0.0236 1.5146 0.0 0
M  V30 3 N -1.2542 2.402 0.0 0
M  V30 4 C 1.1714 2.4257 0.0 0
M  V30 5 N -0.8164 3.8457 0.0 0
M  V30 6 C -2.686 1.9406 0.0 0
M  V30 7 C 0.6863 3.8575 0.0 0
M  V30 8 C 2.6269 2.1417 0.0 0
M  V30 9 C -1.7276 5.0645 0.0 0
M  V30 10 C -2.9937 0.4851 0.0 0
M  V30 11 N 1.6684 4.9935 0.0 0
M  V30 12 N 3.609 3.2777 0.0 0
M  V30 13 N -3.2304 4.8988 0.0 0
M  V30 14 C -1.1359 6.4608 0.0 0
M  V30 15 C -4.4255 0.0236 0.0 0
M  V30 16 C 3.1239 4.7095 0.0 0
M  V30 17 C -4.1415 6.1176 0.0 0
M  V30 18 C -2.0471 7.6796 0.0 0
M  V30 19 N 4.106 5.8455 0.0 0
M  V30 20 C -3.5499 7.5139 0.0 0
M  V30 21 C -5.6443 5.952 0.0 0
M  V30 22 C 5.5615 5.5615 0.0 0
M  V30 23 O -7.1471 5.7863 0.0 0
M  V30 24 C -5.4786 4.4728 0.0 0
M  V30 25 C -5.8336 7.4547 0.0 0
M  V30 26 C 6.0229 4.1533 0.0 0
M  V30 27 C 6.5436 6.6974 0.0 0
M  V30 28 C 7.4784 3.8693 0.0 0
M  V30 29 C 7.9991 6.4134 0.0 0
M  V30 30 C 8.4605 5.0053 0.0 0
M  V30 31 N 9.916 4.7213 0.0 0
M  V30 32 C 10.3775 3.3132 0.0 0
M  V30 33 C 10.8981 5.8573 0.0 0
M  V30 34 C 11.833 3.0292 0.0 0
M  V30 35 C 12.3536 5.5733 0.0 0
M  V30 36 N 12.8151 4.1652 0.0 0
M  V30 37 C 14.2706 3.8812 0.0 0
M  V30 END ATOM
M  V30 BEGIN BOND
M  V30 1 2 1 2
M  V30 2 1 2 3
M  V30 3 1 2 4
M  V30 4 1 3 5
M  V30 5 1 3 6
M  V30 6 2 4 7
M  V30 7 1 4 8
M  V30 8 1 5 9
M  V30 9 1 6 10
M  V30 10 1 7 11
M  V30 11 2 8 12
M  V30 12 2 9 13
M  V30 13 1 9 14
M  V30 14 2 10 15
M  V30 15 2 11 16
M  V30 16 1 13 17
M  V30 17 2 14 18
M  V30 18 1 16 19
M  V30 19 2 17 20
M  V30 20 1 17 21
M  V30 21 1 19 22
M  V30 22 1 21 23
M  V30 23 1 21 24
M  V30 24 1 21 25
M  V30 25 2 22 26
M  V30 26 1 22 27
M  V30 27 1 26 28
M  V30 28 2 27 29
M  V30 29 2 28 30
M  V30 30 1 30 31
M  V30 31 1 31 32
M  V30 32 1 31 33
M  V30 33 1 32 34
M  V30 34 1 33 35
M  V30 35 1 34 36
M  V30 36 1 36 37
M  V30 37 1 5 7
M  V30 38 1 12 16
M  V30 39 1 18 20
M  V30 40 1 29 30
M  V30 41 1 35 36
M  V30 END BOND
M  V30 END CTAB
M  END
>  <Compound ID>
138

>  <Name>
AZD1775

>  <Uniprot>
O96013

>  <Target>
PAK4

>  <Smiles>
C=CCN1C(=O)C2=CN=C(NC3=CC=C(N4CCN(C)CC4)C=C3)N=C2N1C1=CC=CC(C(C)(C)O)=N1

>  <Kd (nM)>


>  <Assay (Kd)>


>  <Ki (nM)>
2511.89

>  <Assay (Ki)>
Ki of PAK4

>  <IC50 (nM)>


>  <Assay (IC50)>


>  <EC50 (nM)>


>  <Assay (EC50)>


>  <Article DOI>


>  <Molecular Weight>
500.607

>  <Exact Mass>
500.264822264

>  <XLogP3>
3.1

>  <Heavy Atom Count>
37

>  <Ring Count>
5

>  <Hydrogen Bond Acceptor Count>
10

>  <Hydrogen Bond Donor Count>
2

>  <Rotatable Bond Count>
7

>  <Topological Polar Surface Area>
104.34

>  <Molecular Formula>
C27H32N8O2

>  <InChI>
InChI=1S/C27H32N8O2/c1-5-13-34-25(36)21-18-28-26(29-19-9-11-20(12-10-19)33-16-14-32(4)15-17-33)31-24(21)35(34)23-8-6-7-22(30-23)27(2,3)37/h5-12,18,37H,1,13-17H2,2-4H3,(H,28,29,31)

>  <InChI Key>
BKWJAKQVGHWELA-UHFFFAOYSA-N

>  <BindingDB>
50240826

>  <PubChem>
24856436

>  <ChEMBL>
CHEMBL1976040

$$$$
Compound 477
Actelion Java MolfileCreator 2.0

  0  0  0  0  0  0              0 V3000
M  V30 BEGIN CTAB
M  V30 COUNTS 37 41 0 0 0
M  V30 BEGIN ATOM
M  V30 1 O 0.0 0.0 0.0 0
M  V30 2 C -0.0236 1.5146 0.0 0
M  V30 3 N -1.2542 2.402 0.0 0
M  V30 4 C 1.1714 2.4257 0.0 0
M  V30 5 N -0.8164 3.8457 0.0 0
M  V30 6 C -2.686 1.9406 0.0 0
M  V30 7 C 0.6863 3.8575 0.0 0
M  V30 8 C 2.6269 2.1417 0.0 0
M  V30 9 C -1.7276 5.0645 0.0 0
M  V30 10 C -2.9937 0.4851 0.0 0
M  V30 11 N 1.6684 4.9935 0.0 0
M  V30 12 N 3.609 3.2777 0.0 0
M  V30 13 N -3.2304 4.8988 0.0 0
M  V30 14 C -1.1359 6.4608 0.0 0
M  V30 15 C -4.4255 0.0236 0.0 0
M  V30 16 C 3.1239 4.7095 0.0 0
M  V30 17 C -4.1415 6.1176 0.0 0
M  V30 18 C -2.0471 7.6796 0.0 0
M  V30 19 N 4.106 5.8455 0.0 0
M  V30 20 C -3.5499 7.5139 0.0 0
M  V30 21 C -5.6443 5.952 0.0 0
M  V30 22 C 5.5615 5.5615 0.0 0
M  V30 23 O -7.1471 5.7863 0.0 0
M  V30 24 C -5.4786 4.4728 0.0 0
M  V30 25 C -5.8336 7.4547 0.0 0
M  V30 26 C 6.0229 4.1533 0.0 0
M  V30 27 C 6.5436 6.6974 0.0 0
M  V30 28 C 7.4784 3.8693 0.0 0
M  V30 29 C 7.9991 6.4134 0.0 0
M  V30 30 C 8.4605 5.0053 0.0 0
M  V30 31 N 9.916 4.7213 0.0 0
M  V30 32 C 10.3775 3.3132 0.0 0
M  V30 33 C 10.8981 5.8573 0.0 0
M  V30 34 C 11.833 3.0292 0.0 0
M  V30 35 C 12.3536 5.5733 0.0 0
M  V30 36 N 12.8151 4.1652 0.0 0
M  V30 37 C 14.2706 3.8812 0.0 0
M  V30 END ATOM
M  V30 BEGIN BOND
M  V30 1 2 1 2
M  V30 2 1 2 3
M  V30 3 1 2 4
M  V30 4 1 3 5
M  V30 5 1 3 6
M  V30 6 2 4 7
M  V30 7 1 4 8
M  V30 8 1 5 9
M  V30 9 1 6 10
M  V30 10 1 7 11
M  V30 11 2 8 12
M  V30 12 2 9 13
M  V30 13 1 9 14
M  V30 14 2 10 15
M  V30 15 2 11 16
M  V30 16 1 13 17
M  V30 17 2 14 18
M  V30 18 1 16 19
M  V30 19 2 17 20
M  V30 20 1 17 21
M  V30 21 1 19 22
M  V30 22 1 21 23
M  V30 23 1 21 24
M  V30 24 1 21 25
M  V30 25 2 22 26
M  V30 26 1 22 27
M  V30 27 1 26 28
M  V30 28 2 27 29
M  V30 29 2 28 30
M  V30 30 1 30 31
M  V30 31 1 31 32
M  V30 32 1 31 33
M  V30 33 1 32 34
M  V30 34 1 33 35
M  V30 35 1 34 36
M  V30 36 1 36 37
M  V30 37 1 5 7
M  V30 38 1 12 16
M  V30 39 1 18 20
M  V30 40 1 29 30
M  V30 41 1 35 36
M  V30 END BOND
M  V30 END CTAB
M  END
>  <Compound ID>
138

>  <Name>
AZD1775

>  <Uniprot>
Q15118

>  <Target>
PDK1

>  <Smiles>
C=CCN1C(=O)C2=CN=C(NC3=CC=C(N4CCN(C)CC4)C=C3)N=C2N1C1=CC=CC(C(C)(C)O)=N1

>  <Kd (nM)>


>  <Assay (Kd)>


>  <Ki (nM)>


>  <Assay (Ki)>


>  <IC50 (nM)>


>  <Assay (IC50)>


>  <EC50 (nM)>


>  <Assay (EC50)>


>  <Article DOI>
10.1016/j.cell.2020.10.038

>  <Molecular Weight>
500.607

>  <Exact Mass>
500.264822264

>  <XLogP3>
3.1

>  <Heavy Atom Count>
37

>  <Ring Count>
5

>  <Hydrogen Bond Acceptor Count>
10

>  <Hydrogen Bond Donor Count>
2

>  <Rotatable Bond Count>
7

>  <Topological Polar Surface Area>
104.34

>  <Molecular Formula>
C27H32N8O2

>  <InChI>
InChI=1S/C27H32N8O2/c1-5-13-34-25(36)21-18-28-26(29-19-9-11-20(12-10-19)33-16-14-32(4)15-17-33)31-24(21)35(34)23-8-6-7-22(30-23)27(2,3)37/h5-12,18,37H,1,13-17H2,2-4H3,(H,28,29,31)

>  <InChI Key>
BKWJAKQVGHWELA-UHFFFAOYSA-N

>  <BindingDB>
50240826

>  <PubChem>
24856436

>  <ChEMBL>
CHEMBL1976040

$$$$
Compound 478
Actelion Java MolfileCreator 2.0

  0  0  0  0  0  0              0 V3000
M  V30 BEGIN CTAB
M  V30 COUNTS 37 41 0 0 0
M  V30 BEGIN ATOM
M  V30 1 O 0.0 0.0 0.0 0
M  V30 2 C -0.0236 1.5146 0.0 0
M  V30 3 N -1.2542 2.402 0.0 0
M  V30 4 C 1.1714 2.4257 0.0 0
M  V30 5 N -0.8164 3.8457 0.0 0
M  V30 6 C -2.686 1.9406 0.0 0
M  V30 7 C 0.6863 3.8575 0.0 0
M  V30 8 C 2.6269 2.1417 0.0 0
M  V30 9 C -1.7276 5.0645 0.0 0
M  V30 10 C -2.9937 0.4851 0.0 0
M  V30 11 N 1.6684 4.9935 0.0 0
M  V30 12 N 3.609 3.2777 0.0 0
M  V30 13 N -3.2304 4.8988 0.0 0
M  V30 14 C -1.1359 6.4608 0.0 0
M  V30 15 C -4.4255 0.0236 0.0 0
M  V30 16 C 3.1239 4.7095 0.0 0
M  V30 17 C -4.1415 6.1176 0.0 0
M  V30 18 C -2.0471 7.6796 0.0 0
M  V30 19 N 4.106 5.8455 0.0 0
M  V30 20 C -3.5499 7.5139 0.0 0
M  V30 21 C -5.6443 5.952 0.0 0
M  V30 22 C 5.5615 5.5615 0.0 0
M  V30 23 O -7.1471 5.7863 0.0 0
M  V30 24 C -5.4786 4.4728 0.0 0
M  V30 25 C -5.8336 7.4547 0.0 0
M  V30 26 C 6.0229 4.1533 0.0 0
M  V30 27 C 6.5436 6.6974 0.0 0
M  V30 28 C 7.4784 3.8693 0.0 0
M  V30 29 C 7.9991 6.4134 0.0 0
M  V30 30 C 8.4605 5.0053 0.0 0
M  V30 31 N 9.916 4.7213 0.0 0
M  V30 32 C 10.3775 3.3132 0.0 0
M  V30 33 C 10.8981 5.8573 0.0 0
M  V30 34 C 11.833 3.0292 0.0 0
M  V30 35 C 12.3536 5.5733 0.0 0
M  V30 36 N 12.8151 4.1652 0.0 0
M  V30 37 C 14.2706 3.8812 0.0 0
M  V30 END ATOM
M  V30 BEGIN BOND
M  V30 1 2 1 2
M  V30 2 1 2 3
M  V30 3 1 2 4
M  V30 4 1 3 5
M  V30 5 1 3 6
M  V30 6 2 4 7
M  V30 7 1 4 8
M  V30 8 1 5 9
M  V30 9 1 6 10
M  V30 10 1 7 11
M  V30 11 2 8 12
M  V30 12 2 9 13
M  V30 13 1 9 14
M  V30 14 2 10 15
M  V30 15 2 11 16
M  V30 16 1 13 17
M  V30 17 2 14 18
M  V30 18 1 16 19
M  V30 19 2 17 20
M  V30 20 1 17 21
M  V30 21 1 19 22
M  V30 22 1 21 23
M  V30 23 1 21 24
M  V30 24 1 21 25
M  V30 25 2 22 26
M  V30 26 1 22 27
M  V30 27 1 26 28
M  V30 28 2 27 29
M  V30 29 2 28 30
M  V30 30 1 30 31
M  V30 31 1 31 32
M  V30 32 1 31 33
M  V30 33 1 32 34
M  V30 34 1 33 35
M  V30 35 1 34 36
M  V30 36 1 36 37
M  V30 37 1 5 7
M  V30 38 1 12 16
M  V30 39 1 18 20
M  V30 40 1 29 30
M  V30 41 1 35 36
M  V30 END BOND
M  V30 END CTAB
M  END
>  <Compound ID>
138

>  <Name>
AZD1775

>  <Uniprot>
Q15119

>  <Target>
PDK2

>  <Smiles>
C=CCN1C(=O)C2=CN=C(NC3=CC=C(N4CCN(C)CC4)C=C3)N=C2N1C1=CC=CC(C(C)(C)O)=N1

>  <Kd (nM)>


>  <Assay (Kd)>


>  <Ki (nM)>


>  <Assay (Ki)>


>  <IC50 (nM)>


>  <Assay (IC50)>


>  <EC50 (nM)>


>  <Assay (EC50)>


>  <Article DOI>
10.1016/j.cell.2020.10.038

>  <Molecular Weight>
500.607

>  <Exact Mass>
500.264822264

>  <XLogP3>
3.1

>  <Heavy Atom Count>
37

>  <Ring Count>
5

>  <Hydrogen Bond Acceptor Count>
10

>  <Hydrogen Bond Donor Count>
2

>  <Rotatable Bond Count>
7

>  <Topological Polar Surface Area>
104.34

>  <Molecular Formula>
C27H32N8O2

>  <InChI>
InChI=1S/C27H32N8O2/c1-5-13-34-25(36)21-18-28-26(29-19-9-11-20(12-10-19)33-16-14-32(4)15-17-33)31-24(21)35(34)23-8-6-7-22(30-23)27(2,3)37/h5-12,18,37H,1,13-17H2,2-4H3,(H,28,29,31)

>  <InChI Key>
BKWJAKQVGHWELA-UHFFFAOYSA-N

>  <BindingDB>
50240826

>  <PubChem>
24856436

>  <ChEMBL>
CHEMBL1976040

$$$$
Compound 479
Actelion Java MolfileCreator 2.0

  0  0  0  0  0  0              0 V3000
M  V30 BEGIN CTAB
M  V30 COUNTS 37 41 0 0 0
M  V30 BEGIN ATOM
M  V30 1 O 0.0 0.0 0.0 0
M  V30 2 C -0.0236 1.5146 0.0 0
M  V30 3 N -1.2542 2.402 0.0 0
M  V30 4 C 1.1714 2.4257 0.0 0
M  V30 5 N -0.8164 3.8457 0.0 0
M  V30 6 C -2.686 1.9406 0.0 0
M  V30 7 C 0.6863 3.8575 0.0 0
M  V30 8 C 2.6269 2.1417 0.0 0
M  V30 9 C -1.7276 5.0645 0.0 0
M  V30 10 C -2.9937 0.4851 0.0 0
M  V30 11 N 1.6684 4.9935 0.0 0
M  V30 12 N 3.609 3.2777 0.0 0
M  V30 13 N -3.2304 4.8988 0.0 0
M  V30 14 C -1.1359 6.4608 0.0 0
M  V30 15 C -4.4255 0.0236 0.0 0
M  V30 16 C 3.1239 4.7095 0.0 0
M  V30 17 C -4.1415 6.1176 0.0 0
M  V30 18 C -2.0471 7.6796 0.0 0
M  V30 19 N 4.106 5.8455 0.0 0
M  V30 20 C -3.5499 7.5139 0.0 0
M  V30 21 C -5.6443 5.952 0.0 0
M  V30 22 C 5.5615 5.5615 0.0 0
M  V30 23 O -7.1471 5.7863 0.0 0
M  V30 24 C -5.4786 4.4728 0.0 0
M  V30 25 C -5.8336 7.4547 0.0 0
M  V30 26 C 6.0229 4.1533 0.0 0
M  V30 27 C 6.5436 6.6974 0.0 0
M  V30 28 C 7.4784 3.8693 0.0 0
M  V30 29 C 7.9991 6.4134 0.0 0
M  V30 30 C 8.4605 5.0053 0.0 0
M  V30 31 N 9.916 4.7213 0.0 0
M  V30 32 C 10.3775 3.3132 0.0 0
M  V30 33 C 10.8981 5.8573 0.0 0
M  V30 34 C 11.833 3.0292 0.0 0
M  V30 35 C 12.3536 5.5733 0.0 0
M  V30 36 N 12.8151 4.1652 0.0 0
M  V30 37 C 14.2706 3.8812 0.0 0
M  V30 END ATOM
M  V30 BEGIN BOND
M  V30 1 2 1 2
M  V30 2 1 2 3
M  V30 3 1 2 4
M  V30 4 1 3 5
M  V30 5 1 3 6
M  V30 6 2 4 7
M  V30 7 1 4 8
M  V30 8 1 5 9
M  V30 9 1 6 10
M  V30 10 1 7 11
M  V30 11 2 8 12
M  V30 12 2 9 13
M  V30 13 1 9 14
M  V30 14 2 10 15
M  V30 15 2 11 16
M  V30 16 1 13 17
M  V30 17 2 14 18
M  V30 18 1 16 19
M  V30 19 2 17 20
M  V30 20 1 17 21
M  V30 21 1 19 22
M  V30 22 1 21 23
M  V30 23 1 21 24
M  V30 24 1 21 25
M  V30 25 2 22 26
M  V30 26 1 22 27
M  V30 27 1 26 28
M  V30 28 2 27 29
M  V30 29 2 28 30
M  V30 30 1 30 31
M  V30 31 1 31 32
M  V30 32 1 31 33
M  V30 33 1 32 34
M  V30 34 1 33 35
M  V30 35 1 34 36
M  V30 36 1 36 37
M  V30 37 1 5 7
M  V30 38 1 12 16
M  V30 39 1 18 20
M  V30 40 1 29 30
M  V30 41 1 35 36
M  V30 END BOND
M  V30 END CTAB
M  END
>  <Compound ID>
138

>  <Name>
AZD1775

>  <Uniprot>
Q15120

>  <Target>
PDK3

>  <Smiles>
C=CCN1C(=O)C2=CN=C(NC3=CC=C(N4CCN(C)CC4)C=C3)N=C2N1C1=CC=CC(C(C)(C)O)=N1

>  <Kd (nM)>


>  <Assay (Kd)>


>  <Ki (nM)>


>  <Assay (Ki)>


>  <IC50 (nM)>


>  <Assay (IC50)>


>  <EC50 (nM)>


>  <Assay (EC50)>


>  <Article DOI>
10.1016/j.cell.2020.10.038

>  <Molecular Weight>
500.607

>  <Exact Mass>
500.264822264

>  <XLogP3>
3.1

>  <Heavy Atom Count>
37

>  <Ring Count>
5

>  <Hydrogen Bond Acceptor Count>
10

>  <Hydrogen Bond Donor Count>
2

>  <Rotatable Bond Count>
7

>  <Topological Polar Surface Area>
104.34

>  <Molecular Formula>
C27H32N8O2

>  <InChI>
InChI=1S/C27H32N8O2/c1-5-13-34-25(36)21-18-28-26(29-19-9-11-20(12-10-19)33-16-14-32(4)15-17-33)31-24(21)35(34)23-8-6-7-22(30-23)27(2,3)37/h5-12,18,37H,1,13-17H2,2-4H3,(H,28,29,31)

>  <InChI Key>
BKWJAKQVGHWELA-UHFFFAOYSA-N

>  <BindingDB>
50240826

>  <PubChem>
24856436

>  <ChEMBL>
CHEMBL1976040

$$$$
Compound 480
Actelion Java MolfileCreator 2.0

  0  0  0  0  0  0              0 V3000
M  V30 BEGIN CTAB
M  V30 COUNTS 37 41 0 0 0
M  V30 BEGIN ATOM
M  V30 1 O 0.0 0.0 0.0 0
M  V30 2 C -0.0236 1.5146 0.0 0
M  V30 3 N -1.2542 2.402 0.0 0
M  V30 4 C 1.1714 2.4257 0.0 0
M  V30 5 N -0.8164 3.8457 0.0 0
M  V30 6 C -2.686 1.9406 0.0 0
M  V30 7 C 0.6863 3.8575 0.0 0
M  V30 8 C 2.6269 2.1417 0.0 0
M  V30 9 C -1.7276 5.0645 0.0 0
M  V30 10 C -2.9937 0.4851 0.0 0
M  V30 11 N 1.6684 4.9935 0.0 0
M  V30 12 N 3.609 3.2777 0.0 0
M  V30 13 N -3.2304 4.8988 0.0 0
M  V30 14 C -1.1359 6.4608 0.0 0
M  V30 15 C -4.4255 0.0236 0.0 0
M  V30 16 C 3.1239 4.7095 0.0 0
M  V30 17 C -4.1415 6.1176 0.0 0
M  V30 18 C -2.0471 7.6796 0.0 0
M  V30 19 N 4.106 5.8455 0.0 0
M  V30 20 C -3.5499 7.5139 0.0 0
M  V30 21 C -5.6443 5.952 0.0 0
M  V30 22 C 5.5615 5.5615 0.0 0
M  V30 23 O -7.1471 5.7863 0.0 0
M  V30 24 C -5.4786 4.4728 0.0 0
M  V30 25 C -5.8336 7.4547 0.0 0
M  V30 26 C 6.0229 4.1533 0.0 0
M  V30 27 C 6.5436 6.6974 0.0 0
M  V30 28 C 7.4784 3.8693 0.0 0
M  V30 29 C 7.9991 6.4134 0.0 0
M  V30 30 C 8.4605 5.0053 0.0 0
M  V30 31 N 9.916 4.7213 0.0 0
M  V30 32 C 10.3775 3.3132 0.0 0
M  V30 33 C 10.8981 5.8573 0.0 0
M  V30 34 C 11.833 3.0292 0.0 0
M  V30 35 C 12.3536 5.5733 0.0 0
M  V30 36 N 12.8151 4.1652 0.0 0
M  V30 37 C 14.2706 3.8812 0.0 0
M  V30 END ATOM
M  V30 BEGIN BOND
M  V30 1 2 1 2
M  V30 2 1 2 3
M  V30 3 1 2 4
M  V30 4 1 3 5
M  V30 5 1 3 6
M  V30 6 2 4 7
M  V30 7 1 4 8
M  V30 8 1 5 9
M  V30 9 1 6 10
M  V30 10 1 7 11
M  V30 11 2 8 12
M  V30 12 2 9 13
M  V30 13 1 9 14
M  V30 14 2 10 15
M  V30 15 2 11 16
M  V30 16 1 13 17
M  V30 17 2 14 18
M  V30 18 1 16 19
M  V30 19 2 17 20
M  V30 20 1 17 21
M  V30 21 1 19 22
M  V30 22 1 21 23
M  V30 23 1 21 24
M  V30 24 1 21 25
M  V30 25 2 22 26
M  V30 26 1 22 27
M  V30 27 1 26 28
M  V30 28 2 27 29
M  V30 29 2 28 30
M  V30 30 1 30 31
M  V30 31 1 31 32
M  V30 32 1 31 33
M  V30 33 1 32 34
M  V30 34 1 33 35
M  V30 35 1 34 36
M  V30 36 1 36 37
M  V30 37 1 5 7
M  V30 38 1 12 16
M  V30 39 1 18 20
M  V30 40 1 29 30
M  V30 41 1 35 36
M  V30 END BOND
M  V30 END CTAB
M  END
>  <Compound ID>
138

>  <Name>
AZD1775

>  <Uniprot>
P53350

>  <Target>
PLK1

>  <Smiles>
C=CCN1C(=O)C2=CN=C(NC3=CC=C(N4CCN(C)CC4)C=C3)N=C2N1C1=CC=CC(C(C)(C)O)=N1

>  <Kd (nM)>
3

>  <Assay (Kd)>
Kd was determined by qPCR based assay

>  <Ki (nM)>


>  <Assay (Ki)>


>  <IC50 (nM)>


>  <Assay (IC50)>


>  <EC50 (nM)>


>  <Assay (EC50)>


>  <Article DOI>
10.1021/acs.jmedchem.7b00996

>  <Molecular Weight>
500.607

>  <Exact Mass>
500.264822264

>  <XLogP3>
3.1

>  <Heavy Atom Count>
37

>  <Ring Count>
5

>  <Hydrogen Bond Acceptor Count>
10

>  <Hydrogen Bond Donor Count>
2

>  <Rotatable Bond Count>
7

>  <Topological Polar Surface Area>
104.34

>  <Molecular Formula>
C27H32N8O2

>  <InChI>
InChI=1S/C27H32N8O2/c1-5-13-34-25(36)21-18-28-26(29-19-9-11-20(12-10-19)33-16-14-32(4)15-17-33)31-24(21)35(34)23-8-6-7-22(30-23)27(2,3)37/h5-12,18,37H,1,13-17H2,2-4H3,(H,28,29,31)

>  <InChI Key>
BKWJAKQVGHWELA-UHFFFAOYSA-N

>  <BindingDB>
50240826

>  <PubChem>
24856436

>  <ChEMBL>
CHEMBL1976040

$$$$
Compound 481
Actelion Java MolfileCreator 2.0

  0  0  0  0  0  0              0 V3000
M  V30 BEGIN CTAB
M  V30 COUNTS 37 41 0 0 0
M  V30 BEGIN ATOM
M  V30 1 O 0.0 0.0 0.0 0
M  V30 2 C -0.0236 1.5146 0.0 0
M  V30 3 N -1.2542 2.402 0.0 0
M  V30 4 C 1.1714 2.4257 0.0 0
M  V30 5 N -0.8164 3.8457 0.0 0
M  V30 6 C -2.686 1.9406 0.0 0
M  V30 7 C 0.6863 3.8575 0.0 0
M  V30 8 C 2.6269 2.1417 0.0 0
M  V30 9 C -1.7276 5.0645 0.0 0
M  V30 10 C -2.9937 0.4851 0.0 0
M  V30 11 N 1.6684 4.9935 0.0 0
M  V30 12 N 3.609 3.2777 0.0 0
M  V30 13 N -3.2304 4.8988 0.0 0
M  V30 14 C -1.1359 6.4608 0.0 0
M  V30 15 C -4.4255 0.0236 0.0 0
M  V30 16 C 3.1239 4.7095 0.0 0
M  V30 17 C -4.1415 6.1176 0.0 0
M  V30 18 C -2.0471 7.6796 0.0 0
M  V30 19 N 4.106 5.8455 0.0 0
M  V30 20 C -3.5499 7.5139 0.0 0
M  V30 21 C -5.6443 5.952 0.0 0
M  V30 22 C 5.5615 5.5615 0.0 0
M  V30 23 O -7.1471 5.7863 0.0 0
M  V30 24 C -5.4786 4.4728 0.0 0
M  V30 25 C -5.8336 7.4547 0.0 0
M  V30 26 C 6.0229 4.1533 0.0 0
M  V30 27 C 6.5436 6.6974 0.0 0
M  V30 28 C 7.4784 3.8693 0.0 0
M  V30 29 C 7.9991 6.4134 0.0 0
M  V30 30 C 8.4605 5.0053 0.0 0
M  V30 31 N 9.916 4.7213 0.0 0
M  V30 32 C 10.3775 3.3132 0.0 0
M  V30 33 C 10.8981 5.8573 0.0 0
M  V30 34 C 11.833 3.0292 0.0 0
M  V30 35 C 12.3536 5.5733 0.0 0
M  V30 36 N 12.8151 4.1652 0.0 0
M  V30 37 C 14.2706 3.8812 0.0 0
M  V30 END ATOM
M  V30 BEGIN BOND
M  V30 1 2 1 2
M  V30 2 1 2 3
M  V30 3 1 2 4
M  V30 4 1 3 5
M  V30 5 1 3 6
M  V30 6 2 4 7
M  V30 7 1 4 8
M  V30 8 1 5 9
M  V30 9 1 6 10
M  V30 10 1 7 11
M  V30 11 2 8 12
M  V30 12 2 9 13
M  V30 13 1 9 14
M  V30 14 2 10 15
M  V30 15 2 11 16
M  V30 16 1 13 17
M  V30 17 2 14 18
M  V30 18 1 16 19
M  V30 19 2 17 20
M  V30 20 1 17 21
M  V30 21 1 19 22
M  V30 22 1 21 23
M  V30 23 1 21 24
M  V30 24 1 21 25
M  V30 25 2 22 26
M  V30 26 1 22 27
M  V30 27 1 26 28
M  V30 28 2 27 29
M  V30 29 2 28 30
M  V30 30 1 30 31
M  V30 31 1 31 32
M  V30 32 1 31 33
M  V30 33 1 32 34
M  V30 34 1 33 35
M  V30 35 1 34 36
M  V30 36 1 36 37
M  V30 37 1 5 7
M  V30 38 1 12 16
M  V30 39 1 18 20
M  V30 40 1 29 30
M  V30 41 1 35 36
M  V30 END BOND
M  V30 END CTAB
M  END
>  <Compound ID>
138

>  <Name>
AZD1775

>  <Uniprot>
P41743

>  <Target>
PRKCI

>  <Smiles>
C=CCN1C(=O)C2=CN=C(NC3=CC=C(N4CCN(C)CC4)C=C3)N=C2N1C1=CC=CC(C(C)(C)O)=N1

>  <Kd (nM)>
>30000

>  <Assay (Kd)>
Kd apparent of PRKCI

>  <Ki (nM)>


>  <Assay (Ki)>


>  <IC50 (nM)>


>  <Assay (IC50)>


>  <EC50 (nM)>


>  <Assay (EC50)>


>  <Article DOI>
10.1126/science.aan4368

>  <Molecular Weight>
500.607

>  <Exact Mass>
500.264822264

>  <XLogP3>
3.1

>  <Heavy Atom Count>
37

>  <Ring Count>
5

>  <Hydrogen Bond Acceptor Count>
10

>  <Hydrogen Bond Donor Count>
2

>  <Rotatable Bond Count>
7

>  <Topological Polar Surface Area>
104.34

>  <Molecular Formula>
C27H32N8O2

>  <InChI>
InChI=1S/C27H32N8O2/c1-5-13-34-25(36)21-18-28-26(29-19-9-11-20(12-10-19)33-16-14-32(4)15-17-33)31-24(21)35(34)23-8-6-7-22(30-23)27(2,3)37/h5-12,18,37H,1,13-17H2,2-4H3,(H,28,29,31)

>  <InChI Key>
BKWJAKQVGHWELA-UHFFFAOYSA-N

>  <BindingDB>
50240826

>  <PubChem>
24856436

>  <ChEMBL>
CHEMBL1976040

$$$$
Compound 482
Actelion Java MolfileCreator 2.0

  0  0  0  0  0  0              0 V3000
M  V30 BEGIN CTAB
M  V30 COUNTS 37 41 0 0 0
M  V30 BEGIN ATOM
M  V30 1 O 0.0 0.0 0.0 0
M  V30 2 C -0.0236 1.5146 0.0 0
M  V30 3 N -1.2542 2.402 0.0 0
M  V30 4 C 1.1714 2.4257 0.0 0
M  V30 5 N -0.8164 3.8457 0.0 0
M  V30 6 C -2.686 1.9406 0.0 0
M  V30 7 C 0.6863 3.8575 0.0 0
M  V30 8 C 2.6269 2.1417 0.0 0
M  V30 9 C -1.7276 5.0645 0.0 0
M  V30 10 C -2.9937 0.4851 0.0 0
M  V30 11 N 1.6684 4.9935 0.0 0
M  V30 12 N 3.609 3.2777 0.0 0
M  V30 13 N -3.2304 4.8988 0.0 0
M  V30 14 C -1.1359 6.4608 0.0 0
M  V30 15 C -4.4255 0.0236 0.0 0
M  V30 16 C 3.1239 4.7095 0.0 0
M  V30 17 C -4.1415 6.1176 0.0 0
M  V30 18 C -2.0471 7.6796 0.0 0
M  V30 19 N 4.106 5.8455 0.0 0
M  V30 20 C -3.5499 7.5139 0.0 0
M  V30 21 C -5.6443 5.952 0.0 0
M  V30 22 C 5.5615 5.5615 0.0 0
M  V30 23 O -7.1471 5.7863 0.0 0
M  V30 24 C -5.4786 4.4728 0.0 0
M  V30 25 C -5.8336 7.4547 0.0 0
M  V30 26 C 6.0229 4.1533 0.0 0
M  V30 27 C 6.5436 6.6974 0.0 0
M  V30 28 C 7.4784 3.8693 0.0 0
M  V30 29 C 7.9991 6.4134 0.0 0
M  V30 30 C 8.4605 5.0053 0.0 0
M  V30 31 N 9.916 4.7213 0.0 0
M  V30 32 C 10.3775 3.3132 0.0 0
M  V30 33 C 10.8981 5.8573 0.0 0
M  V30 34 C 11.833 3.0292 0.0 0
M  V30 35 C 12.3536 5.5733 0.0 0
M  V30 36 N 12.8151 4.1652 0.0 0
M  V30 37 C 14.2706 3.8812 0.0 0
M  V30 END ATOM
M  V30 BEGIN BOND
M  V30 1 2 1 2
M  V30 2 1 2 3
M  V30 3 1 2 4
M  V30 4 1 3 5
M  V30 5 1 3 6
M  V30 6 2 4 7
M  V30 7 1 4 8
M  V30 8 1 5 9
M  V30 9 1 6 10
M  V30 10 1 7 11
M  V30 11 2 8 12
M  V30 12 2 9 13
M  V30 13 1 9 14
M  V30 14 2 10 15
M  V30 15 2 11 16
M  V30 16 1 13 17
M  V30 17 2 14 18
M  V30 18 1 16 19
M  V30 19 2 17 20
M  V30 20 1 17 21
M  V30 21 1 19 22
M  V30 22 1 21 23
M  V30 23 1 21 24
M  V30 24 1 21 25
M  V30 25 2 22 26
M  V30 26 1 22 27
M  V30 27 1 26 28
M  V30 28 2 27 29
M  V30 29 2 28 30
M  V30 30 1 30 31
M  V30 31 1 31 32
M  V30 32 1 31 33
M  V30 33 1 32 34
M  V30 34 1 33 35
M  V30 35 1 34 36
M  V30 36 1 36 37
M  V30 37 1 5 7
M  V30 38 1 12 16
M  V30 39 1 18 20
M  V30 40 1 29 30
M  V30 41 1 35 36
M  V30 END BOND
M  V30 END CTAB
M  END
>  <Compound ID>
138

>  <Name>
AZD1775

>  <Uniprot>
Q8TEA7

>  <Target>
TBCK

>  <Smiles>
C=CCN1C(=O)C2=CN=C(NC3=CC=C(N4CCN(C)CC4)C=C3)N=C2N1C1=CC=CC(C(C)(C)O)=N1

>  <Kd (nM)>


>  <Assay (Kd)>


>  <Ki (nM)>


>  <Assay (Ki)>


>  <IC50 (nM)>


>  <Assay (IC50)>


>  <EC50 (nM)>


>  <Assay (EC50)>


>  <Article DOI>
10.1016/j.cell.2020.10.038

>  <Molecular Weight>
500.607

>  <Exact Mass>
500.264822264

>  <XLogP3>
3.1

>  <Heavy Atom Count>
37

>  <Ring Count>
5

>  <Hydrogen Bond Acceptor Count>
10

>  <Hydrogen Bond Donor Count>
2

>  <Rotatable Bond Count>
7

>  <Topological Polar Surface Area>
104.34

>  <Molecular Formula>
C27H32N8O2

>  <InChI>
InChI=1S/C27H32N8O2/c1-5-13-34-25(36)21-18-28-26(29-19-9-11-20(12-10-19)33-16-14-32(4)15-17-33)31-24(21)35(34)23-8-6-7-22(30-23)27(2,3)37/h5-12,18,37H,1,13-17H2,2-4H3,(H,28,29,31)

>  <InChI Key>
BKWJAKQVGHWELA-UHFFFAOYSA-N

>  <BindingDB>
50240826

>  <PubChem>
24856436

>  <ChEMBL>
CHEMBL1976040

$$$$
Compound 483
Actelion Java MolfileCreator 2.0

  0  0  0  0  0  0              0 V3000
M  V30 BEGIN CTAB
M  V30 COUNTS 37 41 0 0 0
M  V30 BEGIN ATOM
M  V30 1 O 0.0 0.0 0.0 0
M  V30 2 C -0.0236 1.5146 0.0 0
M  V30 3 N -1.2542 2.402 0.0 0
M  V30 4 C 1.1714 2.4257 0.0 0
M  V30 5 N -0.8164 3.8457 0.0 0
M  V30 6 C -2.686 1.9406 0.0 0
M  V30 7 C 0.6863 3.8575 0.0 0
M  V30 8 C 2.6269 2.1417 0.0 0
M  V30 9 C -1.7276 5.0645 0.0 0
M  V30 10 C -2.9937 0.4851 0.0 0
M  V30 11 N 1.6684 4.9935 0.0 0
M  V30 12 N 3.609 3.2777 0.0 0
M  V30 13 N -3.2304 4.8988 0.0 0
M  V30 14 C -1.1359 6.4608 0.0 0
M  V30 15 C -4.4255 0.0236 0.0 0
M  V30 16 C 3.1239 4.7095 0.0 0
M  V30 17 C -4.1415 6.1176 0.0 0
M  V30 18 C -2.0471 7.6796 0.0 0
M  V30 19 N 4.106 5.8455 0.0 0
M  V30 20 C -3.5499 7.5139 0.0 0
M  V30 21 C -5.6443 5.952 0.0 0
M  V30 22 C 5.5615 5.5615 0.0 0
M  V30 23 O -7.1471 5.7863 0.0 0
M  V30 24 C -5.4786 4.4728 0.0 0
M  V30 25 C -5.8336 7.4547 0.0 0
M  V30 26 C 6.0229 4.1533 0.0 0
M  V30 27 C 6.5436 6.6974 0.0 0
M  V30 28 C 7.4784 3.8693 0.0 0
M  V30 29 C 7.9991 6.4134 0.0 0
M  V30 30 C 8.4605 5.0053 0.0 0
M  V30 31 N 9.916 4.7213 0.0 0
M  V30 32 C 10.3775 3.3132 0.0 0
M  V30 33 C 10.8981 5.8573 0.0 0
M  V30 34 C 11.833 3.0292 0.0 0
M  V30 35 C 12.3536 5.5733 0.0 0
M  V30 36 N 12.8151 4.1652 0.0 0
M  V30 37 C 14.2706 3.8812 0.0 0
M  V30 END ATOM
M  V30 BEGIN BOND
M  V30 1 2 1 2
M  V30 2 1 2 3
M  V30 3 1 2 4
M  V30 4 1 3 5
M  V30 5 1 3 6
M  V30 6 2 4 7
M  V30 7 1 4 8
M  V30 8 1 5 9
M  V30 9 1 6 10
M  V30 10 1 7 11
M  V30 11 2 8 12
M  V30 12 2 9 13
M  V30 13 1 9 14
M  V30 14 2 10 15
M  V30 15 2 11 16
M  V30 16 1 13 17
M  V30 17 2 14 18
M  V30 18 1 16 19
M  V30 19 2 17 20
M  V30 20 1 17 21
M  V30 21 1 19 22
M  V30 22 1 21 23
M  V30 23 1 21 24
M  V30 24 1 21 25
M  V30 25 2 22 26
M  V30 26 1 22 27
M  V30 27 1 26 28
M  V30 28 2 27 29
M  V30 29 2 28 30
M  V30 30 1 30 31
M  V30 31 1 31 32
M  V30 32 1 31 33
M  V30 33 1 32 34
M  V30 34 1 33 35
M  V30 35 1 34 36
M  V30 36 1 36 37
M  V30 37 1 5 7
M  V30 38 1 12 16
M  V30 39 1 18 20
M  V30 40 1 29 30
M  V30 41 1 35 36
M  V30 END BOND
M  V30 END CTAB
M  END
>  <Compound ID>
138

>  <Name>
AZD1775

>  <Uniprot>
P30291

>  <Target>
Wee1

>  <Smiles>
C=CCN1C(=O)C2=CN=C(NC3=CC=C(N4CCN(C)CC4)C=C3)N=C2N1C1=CC=CC(C(C)(C)O)=N1

>  <Kd (nM)>
3.2

>  <Assay (Kd)>
Kd was determined by qPCR based assay

>  <Ki (nM)>


>  <Assay (Ki)>


>  <IC50 (nM)>


>  <Assay (IC50)>


>  <EC50 (nM)>


>  <Assay (EC50)>


>  <Article DOI>
10.1021/acs.jmedchem.7b00996

>  <Molecular Weight>
500.607

>  <Exact Mass>
500.264822264

>  <XLogP3>
3.1

>  <Heavy Atom Count>
37

>  <Ring Count>
5

>  <Hydrogen Bond Acceptor Count>
10

>  <Hydrogen Bond Donor Count>
2

>  <Rotatable Bond Count>
7

>  <Topological Polar Surface Area>
104.34

>  <Molecular Formula>
C27H32N8O2

>  <InChI>
InChI=1S/C27H32N8O2/c1-5-13-34-25(36)21-18-28-26(29-19-9-11-20(12-10-19)33-16-14-32(4)15-17-33)31-24(21)35(34)23-8-6-7-22(30-23)27(2,3)37/h5-12,18,37H,1,13-17H2,2-4H3,(H,28,29,31)

>  <InChI Key>
BKWJAKQVGHWELA-UHFFFAOYSA-N

>  <BindingDB>
50240826

>  <PubChem>
24856436

>  <ChEMBL>
CHEMBL1976040

$$$$
Compound 484
Actelion Java MolfileCreator 2.0

  0  0  0  0  0  0              0 V3000
M  V30 BEGIN CTAB
M  V30 COUNTS 32 35 0 0 0
M  V30 BEGIN ATOM
M  V30 1 Br 0.0 0.0 0.0 0
M  V30 2 C -1.193 0.9357 0.0 0
M  V30 3 C -1.0059 2.4328 0.0 0
M  V30 4 C -2.5966 0.3859 0.0 0
M  V30 5 O 0.3742 3.006 0.0 0
M  V30 6 C -2.1989 3.3686 0.0 0
M  V30 7 C -3.7896 1.3217 0.0 0
M  V30 8 C 1.5439 2.0936 0.0 0
M  V30 9 C -3.6025 2.8188 0.0 0
M  V30 10 C -5.1932 0.7719 0.0 0
M  V30 11 C 2.9241 2.6668 0.0 0
M  V30 12 N -6.3863 1.7076 0.0 0
M  V30 13 C 4.0937 1.7544 0.0 0
M  V30 14 C 3.1112 4.1639 0.0 0
M  V30 15 C -7.7898 1.1579 0.0 0 CFG=2
M  V30 16 C -6.1991 3.2048 0.0 0
M  V30 17 C 5.4739 2.3276 0.0 0
M  V30 18 C 3.8832 0.2807 0.0 0
M  V30 19 C 4.4914 4.7371 0.0 0
M  V30 20 C -8.0004 -0.3158 0.0 0
M  V30 21 C -8.9829 2.0936 0.0 0
M  V30 22 C -7.3922 4.1405 0.0 0
M  V30 23 C 6.6436 1.4152 0.0 0
M  V30 24 C 5.6611 3.8247 0.0 0
M  V30 25 O -6.8307 -1.2281 0.0 0
M  V30 26 O -9.404 -0.8655 0.0 0
M  V30 27 C -8.7958 3.5908 0.0 0
M  V30 28 C 6.433 -0.0584 0.0 0
M  V30 29 C 8.0238 1.9884 0.0 0
M  V30 30 C 7.6027 -0.9708 0.0 0
M  V30 31 C 9.1934 1.076 0.0 0
M  V30 32 C 8.9829 -0.3976 0.0 0
M  V30 END ATOM
M  V30 BEGIN BOND
M  V30 1 1 1 2
M  V30 2 2 2 3
M  V30 3 1 2 4
M  V30 4 1 3 5
M  V30 5 1 3 6
M  V30 6 2 4 7
M  V30 7 1 5 8
M  V30 8 2 6 9
M  V30 9 1 7 10
M  V30 10 1 8 11
M  V30 11 1 10 12
M  V30 12 2 11 13
M  V30 13 1 11 14
M  V30 14 1 12 15
M  V30 15 1 12 16
M  V30 16 1 13 17
M  V30 17 1 13 18
M  V30 18 2 14 19
M  V30 19 1 15 20 CFG=3
M  V30 20 1 15 21
M  V30 21 1 16 22
M  V30 22 1 17 23
M  V30 23 2 17 24
M  V30 24 2 20 25
M  V30 25 1 20 26
M  V30 26 1 21 27
M  V30 27 2 23 28
M  V30 28 1 23 29
M  V30 29 1 28 30
M  V30 30 2 29 31
M  V30 31 2 30 32
M  V30 32 1 7 9
M  V30 33 1 19 24
M  V30 34 1 22 27
M  V30 35 1 31 32
M  V30 END BOND
M  V30 BEGIN COLLECTION
M  V30 MDLV30/STERAC1 ATOMS=(1 15)
M  V30 END COLLECTION
M  V30 END CTAB
M  END
>  <Compound ID>
139

>  <Name>
BMS-8

>  <Uniprot>
Q9NZQ7

>  <Target>
PD-L1

>  <Smiles>
CC1=C(COC2=CC=C(CN3CCCCC3C(=O)O)C=C2Br)C=CC=C1C1=CC=CC=C1

>  <Kd (nM)>


>  <Assay (Kd)>


>  <Ki (nM)>


>  <Assay (Ki)>


>  <IC50 (nM)>
146

>  <Assay (IC50)>
IC50 was tested by the HTRF binding assay

>  <EC50 (nM)>


>  <Assay (EC50)>


>  <Article DOI>
10.1021/acs.jmedchem.7b00293

>  <Molecular Weight>
494.429

>  <Exact Mass>
493.125255856

>  <XLogP3>
4.1

>  <Heavy Atom Count>
32

>  <Ring Count>
4

>  <Hydrogen Bond Acceptor Count>
3

>  <Hydrogen Bond Donor Count>
1

>  <Rotatable Bond Count>
7

>  <Topological Polar Surface Area>
49.77

>  <Molecular Formula>
C27H28BrNO3

>  <InChI>
InChI=1S/C27H28BrNO3/c1-19-22(10-7-11-23(19)21-8-3-2-4-9-21)18-32-26-14-13-20(16-24(26)28)17-29-15-6-5-12-25(29)27(30)31/h2-4,7-11,13-14,16,25H,5-6,12,15,17-18H2,1H3,(H,30,31)

>  <InChI Key>
QRXBPPWUGITQLE-UHFFFAOYSA-N

>  <BindingDB>
50239943

>  <PubChem>
117941742

>  <ChEMBL>
CHEMBL4099869

$$$$
Compound 485
Actelion Java MolfileCreator 2.0

  0  0  0  0  0  0              0 V3000
M  V30 BEGIN CTAB
M  V30 COUNTS 42 46 0 0 0
M  V30 BEGIN ATOM
M  V30 1 Cl 0.0 0.0 0.0 0
M  V30 2 C -1.3101 0.7671 0.0 0
M  V30 3 C -1.3219 2.2779 0.0 0
M  V30 4 C -2.6202 0.0354 0.0 0
M  V30 5 O -0.0354 3.0333 0.0 0
M  V30 6 C -2.632 3.0451 0.0 0
M  V30 7 C -3.9303 0.8025 0.0 0
M  V30 8 C 1.251 2.2897 0.0 0
M  V30 9 C -3.9421 2.3133 0.0 0
M  V30 10 C -5.2404 0.0708 0.0 0
M  V30 11 C 2.5375 3.0451 0.0 0
M  V30 12 O -5.2522 3.0805 0.0 0
M  V30 13 N -5.2522 -1.4163 0.0 0
M  V30 14 C 3.824 2.3015 0.0 0
M  V30 15 C 2.5257 4.5558 0.0 0
M  V30 16 C -5.264 4.5912 0.0 0
M  V30 17 C -6.5623 -2.148 0.0 0 CFG=2
M  V30 18 C -3.9657 -2.1599 0.0 0
M  V30 19 C 5.1105 3.0569 0.0 0
M  V30 20 C 3.8122 0.8143 0.0 0
M  V30 21 C 3.8122 5.3112 0.0 0
M  V30 22 C -6.5741 5.3584 0.0 0
M  V30 23 C -7.8724 -1.3809 0.0 0
M  V30 24 C -6.5741 -3.6352 0.0 0
M  V30 25 C -3.9775 -3.647 0.0 0
M  V30 26 C 6.397 2.3133 0.0 0
M  V30 27 C 5.0987 4.5676 0.0 0
M  V30 28 C -7.8842 4.6266 0.0 0
M  V30 29 C -6.5859 6.8691 0.0 0
M  V30 30 O -7.8842 0.1298 0.0 0
M  V30 31 O -9.1825 -2.1126 0.0 0
M  V30 32 C -5.2876 -4.3788 0.0 0
M  V30 33 C 6.3852 0.8261 0.0 0
M  V30 34 C 7.6835 3.0687 0.0 0
M  V30 35 C -9.1943 5.3938 0.0 0
M  V30 36 C -7.896 7.6363 0.0 0
M  V30 37 C 7.6717 0.0826 0.0 0
M  V30 38 C 8.97 2.3251 0.0 0
M  V30 39 C -10.5044 4.662 0.0 0
M  V30 40 C -9.2061 6.9046 0.0 0
M  V30 41 C 8.9582 0.8379 0.0 0
M  V30 42 N -11.8145 3.9303 0.0 0
M  V30 END ATOM
M  V30 BEGIN BOND
M  V30 1 1 1 2
M  V30 2 2 2 3
M  V30 3 1 2 4
M  V30 4 1 3 5
M  V30 5 1 3 6
M  V30 6 2 4 7
M  V30 7 1 5 8
M  V30 8 2 6 9
M  V30 9 1 7 10
M  V30 10 1 8 11
M  V30 11 1 9 12
M  V30 12 1 10 13
M  V30 13 2 11 14
M  V30 14 1 11 15
M  V30 15 1 12 16
M  V30 16 1 13 17
M  V30 17 1 13 18
M  V30 18 1 14 19
M  V30 19 1 14 20
M  V30 20 2 15 21
M  V30 21 1 16 22
M  V30 22 1 17 23 CFG=1
M  V30 23 1 17 24
M  V30 24 1 18 25
M  V30 25 1 19 26
M  V30 26 2 19 27
M  V30 27 2 22 28
M  V30 28 1 22 29
M  V30 29 2 23 30
M  V30 30 1 23 31
M  V30 31 1 24 32
M  V30 32 2 26 33
M  V30 33 1 26 34
M  V30 34 1 28 35
M  V30 35 2 29 36
M  V30 36 1 33 37
M  V30 37 2 34 38
M  V30 38 1 35 39
M  V30 39 2 35 40
M  V30 40 2 37 41
M  V30 41 3 39 42
M  V30 42 1 7 9
M  V30 43 1 21 27
M  V30 44 1 25 32
M  V30 45 1 36 40
M  V30 46 1 38 41
M  V30 END BOND
M  V30 BEGIN COLLECTION
M  V30 MDLV30/STERAC1 ATOMS=(1 17)
M  V30 END COLLECTION
M  V30 END CTAB
M  END
>  <Compound ID>
140

>  <Name>
BMS-1233

>  <Uniprot>
Q9NZQ7

>  <Target>
PD-L1

>  <Smiles>
CC1=C(COC2=CC(OCC3=CC=CC(C#N)=C3)=C(CN3CCCCC3C(=O)O)C=C2Cl)C=CC=C1C1=CC=CC=C1

>  <Kd (nM)>


>  <Assay (Kd)>


>  <Ki (nM)>


>  <Assay (Ki)>


>  <IC50 (nM)>


>  <Assay (IC50)>


>  <EC50 (nM)>


>  <Assay (EC50)>


>  <Article DOI>


>  <Molecular Weight>
581.112

>  <Exact Mass>
580.212885216

>  <XLogP3>
5.22

>  <Heavy Atom Count>
42

>  <Ring Count>
5

>  <Hydrogen Bond Acceptor Count>
5

>  <Hydrogen Bond Donor Count>
1

>  <Rotatable Bond Count>
10

>  <Topological Polar Surface Area>
82.79

>  <Molecular Formula>
C35H33ClN2O4

>  <InChI>
InChI=1S/C35H33ClN2O4/c1-24-28(13-8-14-30(24)27-11-3-2-4-12-27)23-42-34-19-33(41-22-26-10-7-9-25(17-26)20-37)29(18-31(34)36)21-38-16-6-5-15-32(38)35(39)40/h2-4,7-14,17-19,32H,5-6,15-16,21-23H2,1H3,(H,39,40)

>  <InChI Key>
TZOWKIMGKWZTKR-UHFFFAOYSA-N

>  <BindingDB>


>  <PubChem>


>  <ChEMBL>


$$$$
Compound 486
Actelion Java MolfileCreator 2.0

  0  0  0  0  0  0              0 V3000
M  V30 BEGIN CTAB
M  V30 COUNTS 24 27 0 0 0
M  V30 BEGIN ATOM
M  V30 1 F 0.0 0.0 0.0 0
M  V30 2 C 1.2829 -0.7721 0.0 0
M  V30 3 C 1.2354 -2.2689 0.0 0
M  V30 4 C 2.5896 -0.0356 0.0 0
M  V30 5 C 2.5184 -3.0411 0.0 0
M  V30 6 C 3.8726 -0.8077 0.0 0
M  V30 7 C 2.257 -4.5141 0.0 0
M  V30 8 C 3.8251 -2.3045 0.0 0
M  V30 9 N 5.3219 -0.4038 0.0 0
M  V30 10 O 0.7959 -4.918 0.0 0
M  V30 11 N 3.2549 -5.6308 0.0 0
M  V30 12 C 5.2031 -2.8747 0.0 0
M  V30 13 C 6.1297 -1.6512 0.0 0
M  V30 14 C 4.7517 -5.5357 0.0 0
M  V30 15 C 5.607 -4.3121 0.0 0
M  V30 16 C 7.6265 -1.7106 0.0 0
M  V30 17 C 8.3036 -3.0411 0.0 0
M  V30 18 C 8.4343 -0.4276 0.0 0
M  V30 19 C 9.8004 -3.1005 0.0 0
M  V30 20 C 9.9311 -0.487 0.0 0
M  V30 21 C 10.6082 -1.8175 0.0 0
M  V30 22 C 12.105 -1.8769 0.0 0
M  V30 23 N 12.7821 -3.2074 0.0 0
M  V30 24 C 14.2789 -3.2668 0.0 0
M  V30 END ATOM
M  V30 BEGIN BOND
M  V30 1 1 1 2
M  V30 2 2 2 3
M  V30 3 1 2 4
M  V30 4 1 3 5
M  V30 5 2 4 6
M  V30 6 1 5 7
M  V30 7 2 5 8
M  V30 8 1 6 9
M  V30 9 2 7 10
M  V30 10 1 7 11
M  V30 11 1 8 12
M  V30 12 1 9 13
M  V30 13 1 11 14
M  V30 14 1 12 15
M  V30 15 1 13 16
M  V30 16 2 16 17
M  V30 17 1 16 18
M  V30 18 1 17 19
M  V30 19 2 18 20
M  V30 20 2 19 21
M  V30 21 1 21 22
M  V30 22 1 22 23
M  V30 23 1 23 24
M  V30 24 1 6 8
M  V30 25 2 12 13
M  V30 26 1 14 15
M  V30 27 1 20 21
M  V30 END BOND
M  V30 END CTAB
M  END
>  <Compound ID>
141

>  <Name>
Rucaparib

>  <Uniprot>
P09874

>  <Target>
PARP1

>  <Smiles>
CNCC1=CC=C(C2=C3CCNC(=O)C4=C3C(=CC(F)=C4)[NH]2)C=C1

>  <Kd (nM)>


>  <Assay (Kd)>


>  <Ki (nM)>


>  <Assay (Ki)>


>  <IC50 (nM)>
3.2

>  <Assay (IC50)>
IC50 of PARP1

>  <EC50 (nM)>


>  <Assay (EC50)>


>  <Article DOI>
10.1021/acs.jmedchem.6b00990

>  <Molecular Weight>
323.371

>  <Exact Mass>
323.143390416

>  <XLogP3>
2.49

>  <Heavy Atom Count>
24

>  <Ring Count>
4

>  <Hydrogen Bond Acceptor Count>
2

>  <Hydrogen Bond Donor Count>
3

>  <Rotatable Bond Count>
3

>  <Topological Polar Surface Area>
56.92

>  <Molecular Formula>
C19H18FN3O

>  <InChI>
InChI=1S/C19H18FN3O/c1-21-10-11-2-4-12(5-3-11)18-14-6-7-22-19(24)15-8-13(20)9-16(23-18)17(14)15/h2-5,8-9,21,23H,6-7,10H2,1H3,(H,22,24)

>  <InChI Key>
HMABYWSNWIZPAG-UHFFFAOYSA-N

>  <BindingDB>
50446130

>  <PubChem>
9931954

>  <ChEMBL>
CHEMBL1173055

$$$$
Compound 487
Actelion Java MolfileCreator 2.0

  0  0  0  0  0  0              0 V3000
M  V30 BEGIN CTAB
M  V30 COUNTS 24 27 0 0 0
M  V30 BEGIN ATOM
M  V30 1 F 0.0 0.0 0.0 0
M  V30 2 C 1.2829 -0.7721 0.0 0
M  V30 3 C 1.2354 -2.2689 0.0 0
M  V30 4 C 2.5896 -0.0356 0.0 0
M  V30 5 C 2.5184 -3.0411 0.0 0
M  V30 6 C 3.8726 -0.8077 0.0 0
M  V30 7 C 2.257 -4.5141 0.0 0
M  V30 8 C 3.8251 -2.3045 0.0 0
M  V30 9 N 5.3219 -0.4038 0.0 0
M  V30 10 O 0.7959 -4.918 0.0 0
M  V30 11 N 3.2549 -5.6308 0.0 0
M  V30 12 C 5.2031 -2.8747 0.0 0
M  V30 13 C 6.1297 -1.6512 0.0 0
M  V30 14 C 4.7517 -5.5357 0.0 0
M  V30 15 C 5.607 -4.3121 0.0 0
M  V30 16 C 7.6265 -1.7106 0.0 0
M  V30 17 C 8.3036 -3.0411 0.0 0
M  V30 18 C 8.4343 -0.4276 0.0 0
M  V30 19 C 9.8004 -3.1005 0.0 0
M  V30 20 C 9.9311 -0.487 0.0 0
M  V30 21 C 10.6082 -1.8175 0.0 0
M  V30 22 C 12.105 -1.8769 0.0 0
M  V30 23 N 12.7821 -3.2074 0.0 0
M  V30 24 C 14.2789 -3.2668 0.0 0
M  V30 END ATOM
M  V30 BEGIN BOND
M  V30 1 1 1 2
M  V30 2 2 2 3
M  V30 3 1 2 4
M  V30 4 1 3 5
M  V30 5 2 4 6
M  V30 6 1 5 7
M  V30 7 2 5 8
M  V30 8 1 6 9
M  V30 9 2 7 10
M  V30 10 1 7 11
M  V30 11 1 8 12
M  V30 12 1 9 13
M  V30 13 1 11 14
M  V30 14 1 12 15
M  V30 15 1 13 16
M  V30 16 2 16 17
M  V30 17 1 16 18
M  V30 18 1 17 19
M  V30 19 2 18 20
M  V30 20 2 19 21
M  V30 21 1 21 22
M  V30 22 1 22 23
M  V30 23 1 23 24
M  V30 24 1 6 8
M  V30 25 2 12 13
M  V30 26 1 14 15
M  V30 27 1 20 21
M  V30 END BOND
M  V30 END CTAB
M  END
>  <Compound ID>
141

>  <Name>
Rucaparib

>  <Uniprot>
Q9Y6F1

>  <Target>
PARP3

>  <Smiles>
CNCC1=CC=C(C2=C3CCNC(=O)C4=C3C(=CC(F)=C4)[NH]2)C=C1

>  <Kd (nM)>


>  <Assay (Kd)>


>  <Ki (nM)>


>  <Assay (Ki)>


>  <IC50 (nM)>
512

>  <Assay (IC50)>
IC50 of PARP3

>  <EC50 (nM)>


>  <Assay (EC50)>


>  <Article DOI>
10.1021/acs.jmedchem.6b00990

>  <Molecular Weight>
323.371

>  <Exact Mass>
323.143390416

>  <XLogP3>
2.49

>  <Heavy Atom Count>
24

>  <Ring Count>
4

>  <Hydrogen Bond Acceptor Count>
2

>  <Hydrogen Bond Donor Count>
3

>  <Rotatable Bond Count>
3

>  <Topological Polar Surface Area>
56.92

>  <Molecular Formula>
C19H18FN3O

>  <InChI>
InChI=1S/C19H18FN3O/c1-21-10-11-2-4-12(5-3-11)18-14-6-7-22-19(24)15-8-13(20)9-16(23-18)17(14)15/h2-5,8-9,21,23H,6-7,10H2,1H3,(H,22,24)

>  <InChI Key>
HMABYWSNWIZPAG-UHFFFAOYSA-N

>  <BindingDB>
50446130

>  <PubChem>
9931954

>  <ChEMBL>
CHEMBL1173055

$$$$
Compound 488
Actelion Java MolfileCreator 2.0

  0  0  0  0  0  0              0 V3000
M  V30 BEGIN CTAB
M  V30 COUNTS 18 20 0 0 0
M  V30 BEGIN ATOM
M  V30 1 O 0.0 0.0 0.0 0
M  V30 2 C 0.9406 1.164 0.0 0
M  V30 3 N 2.3985 0.9288 0.0 0
M  V30 4 C 0.4115 2.5749 0.0 0
M  V30 5 C -1.0699 2.8336 0.0 0
M  V30 6 C 1.3521 3.7389 0.0 0
M  V30 7 N -2.2575 1.9165 0.0 0
M  V30 8 C -1.599 4.2445 0.0 0
M  V30 9 C 0.823 5.1499 0.0 0
M  V30 10 C -3.5155 2.763 0.0 0
M  V30 11 N -3.104 4.1975 0.0 0
M  V30 12 C -0.6584 5.4085 0.0 0
M  V30 13 C -4.9265 2.2575 0.0 0 CFG=2
M  V30 14 N -5.3027 3.7154 0.0 0
M  V30 15 C -6.1963 1.4697 0.0 0
M  V30 16 C -4.2798 0.9288 0.0 0
M  V30 17 C -6.8077 3.8212 0.0 0
M  V30 18 C -7.3603 2.4338 0.0 0
M  V30 END ATOM
M  V30 BEGIN BOND
M  V30 1 2 1 2
M  V30 2 1 2 3
M  V30 3 1 2 4
M  V30 4 2 4 5
M  V30 5 1 4 6
M  V30 6 1 5 7
M  V30 7 1 5 8
M  V30 8 2 6 9
M  V30 9 2 7 10
M  V30 10 1 8 11
M  V30 11 2 8 12
M  V30 12 1 10 13
M  V30 13 1 13 14
M  V30 14 1 13 15
M  V30 15 1 13 16 CFG=3
M  V30 16 1 14 17
M  V30 17 1 15 18
M  V30 18 1 9 12
M  V30 19 1 10 11
M  V30 20 1 17 18
M  V30 END BOND
M  V30 BEGIN COLLECTION
M  V30 MDLV30/STEABS ATOMS=(1 13)
M  V30 END COLLECTION
M  V30 END CTAB
M  END
>  <Compound ID>
142

>  <Name>
Veliparib

>  <Uniprot>
P09874

>  <Target>
PARP1

>  <Smiles>
C[C@]1(C2=NC3=C(C(N)=O)C=CC=C3[NH]2)CCCN1

>  <Kd (nM)>


>  <Assay (Kd)>


>  <Ki (nM)>


>  <Assay (Ki)>


>  <IC50 (nM)>
3.3

>  <Assay (IC50)>
IC50 of PARP1

>  <EC50 (nM)>


>  <Assay (EC50)>


>  <Article DOI>
10.1021/acs.jmedchem.6b00990

>  <Molecular Weight>
244.298

>  <Exact Mass>
244.132411132

>  <XLogP3>
0.48

>  <Heavy Atom Count>
18

>  <Ring Count>
3

>  <Hydrogen Bond Acceptor Count>
3

>  <Hydrogen Bond Donor Count>
3

>  <Rotatable Bond Count>
2

>  <Topological Polar Surface Area>
83.8

>  <Molecular Formula>
C13H16N4O

>  <InChI>
InChI=1S/C13H16N4O/c1-13(6-3-7-15-13)12-16-9-5-2-4-8(11(14)18)10(9)17-12/h2,4-5,15H,3,6-7H2,1H3,(H2,14,18)(H,16,17)/t13-/m1/s1

>  <InChI Key>
JNAHVYVRKWKWKQ-CYBMUJFWSA-N

>  <BindingDB>
209932

>  <PubChem>
11960529

>  <ChEMBL>
CHEMBL506871

$$$$
Compound 489
Actelion Java MolfileCreator 2.0

  0  0  0  0  0  0              0 V3000
M  V30 BEGIN CTAB
M  V30 COUNTS 18 20 0 0 0
M  V30 BEGIN ATOM
M  V30 1 O 0.0 0.0 0.0 0
M  V30 2 C 0.9406 1.164 0.0 0
M  V30 3 N 2.3985 0.9288 0.0 0
M  V30 4 C 0.4115 2.5749 0.0 0
M  V30 5 C -1.0699 2.8336 0.0 0
M  V30 6 C 1.3521 3.7389 0.0 0
M  V30 7 N -2.2575 1.9165 0.0 0
M  V30 8 C -1.599 4.2445 0.0 0
M  V30 9 C 0.823 5.1499 0.0 0
M  V30 10 C -3.5155 2.763 0.0 0
M  V30 11 N -3.104 4.1975 0.0 0
M  V30 12 C -0.6584 5.4085 0.0 0
M  V30 13 C -4.9265 2.2575 0.0 0 CFG=2
M  V30 14 N -5.3027 3.7154 0.0 0
M  V30 15 C -6.1963 1.4697 0.0 0
M  V30 16 C -4.2798 0.9288 0.0 0
M  V30 17 C -6.8077 3.8212 0.0 0
M  V30 18 C -7.3603 2.4338 0.0 0
M  V30 END ATOM
M  V30 BEGIN BOND
M  V30 1 2 1 2
M  V30 2 1 2 3
M  V30 3 1 2 4
M  V30 4 2 4 5
M  V30 5 1 4 6
M  V30 6 1 5 7
M  V30 7 1 5 8
M  V30 8 2 6 9
M  V30 9 2 7 10
M  V30 10 1 8 11
M  V30 11 2 8 12
M  V30 12 1 10 13
M  V30 13 1 13 14
M  V30 14 1 13 15
M  V30 15 1 13 16 CFG=3
M  V30 16 1 14 17
M  V30 17 1 15 18
M  V30 18 1 9 12
M  V30 19 1 10 11
M  V30 20 1 17 18
M  V30 END BOND
M  V30 BEGIN COLLECTION
M  V30 MDLV30/STEABS ATOMS=(1 13)
M  V30 END COLLECTION
M  V30 END CTAB
M  END
>  <Compound ID>
142

>  <Name>
Veliparib

>  <Uniprot>
Q9UGN5

>  <Target>
PARP2

>  <Smiles>
C[C@]1(C2=NC3=C(C(N)=O)C=CC=C3[NH]2)CCCN1

>  <Kd (nM)>


>  <Assay (Kd)>


>  <Ki (nM)>


>  <Assay (Ki)>


>  <IC50 (nM)>
17.5

>  <Assay (IC50)>
IC50 of PARP2

>  <EC50 (nM)>


>  <Assay (EC50)>


>  <Article DOI>
10.1021/acs.jmedchem.6b00990

>  <Molecular Weight>
244.298

>  <Exact Mass>
244.132411132

>  <XLogP3>
0.48

>  <Heavy Atom Count>
18

>  <Ring Count>
3

>  <Hydrogen Bond Acceptor Count>
3

>  <Hydrogen Bond Donor Count>
3

>  <Rotatable Bond Count>
2

>  <Topological Polar Surface Area>
83.8

>  <Molecular Formula>
C13H16N4O

>  <InChI>
InChI=1S/C13H16N4O/c1-13(6-3-7-15-13)12-16-9-5-2-4-8(11(14)18)10(9)17-12/h2,4-5,15H,3,6-7H2,1H3,(H2,14,18)(H,16,17)/t13-/m1/s1

>  <InChI Key>
JNAHVYVRKWKWKQ-CYBMUJFWSA-N

>  <BindingDB>
209932

>  <PubChem>
11960529

>  <ChEMBL>
CHEMBL506871

$$$$
Compound 490
Actelion Java MolfileCreator 2.0

  0  0  0  0  0  0              0 V3000
M  V30 BEGIN CTAB
M  V30 COUNTS 37 40 0 0 0
M  V30 BEGIN ATOM
M  V30 1 S 0.0 0.0 0.0 0
M  V30 2 O 0.341 1.47 0.0 0
M  V30 3 O -0.3645 -1.4464 0.0 0
M  V30 4 N 1.4464 -0.341 0.0 0
M  V30 5 C -1.47 0.3645 0.0 0
M  V30 6 C 2.4696 0.7644 0.0 0
M  V30 7 C -2.5166 -0.7173 0.0 0
M  V30 8 C -1.9051 1.811 0.0 0
M  V30 9 C 3.916 0.4233 0.0 0
M  V30 10 C 2.0344 2.2108 0.0 0
M  V30 11 C -3.9866 -0.3528 0.0 0
M  V30 12 C -3.3751 2.1756 0.0 0
M  V30 13 O 4.3276 -0.9996 0.0 0
M  V30 14 C 4.9392 1.5288 0.0 0
M  V30 15 C 3.0576 3.3163 0.0 0
M  V30 16 O -5.0332 -1.4347 0.0 0
M  V30 17 C -4.4217 1.0936 0.0 0
M  V30 18 C 5.7741 -1.3406 0.0 0
M  V30 19 C 4.504 2.9752 0.0 0
M  V30 20 N 2.9282 4.8216 0.0 0
M  V30 21 C -4.6216 -2.8576 0.0 0
M  V30 22 O -5.8917 1.4582 0.0 0
M  V30 23 C 6.7972 -0.2352 0.0 0
M  V30 24 C 6.1857 -2.7636 0.0 0
M  V30 25 N 5.2684 4.2688 0.0 0
M  V30 26 C 4.3041 5.4096 0.0 0
M  V30 27 C 1.6346 5.6095 0.0 0
M  V30 28 C -6.3268 2.9047 0.0 0
M  V30 29 C 8.2437 -0.5762 0.0 0
M  V30 30 C 7.6322 -3.1046 0.0 0
M  V30 31 C 6.7502 4.3982 0.0 0
M  V30 32 O 4.6452 6.8796 0.0 0
M  V30 33 O 9.2668 0.5292 0.0 0
M  V30 34 C 8.6553 -1.9992 0.0 0
M  V30 35 C 10.7133 0.1881 0.0 0
M  V30 36 C 11.7364 1.2936 0.0 0
M  V30 37 C 13.1829 0.9525 0.0 0
M  V30 END ATOM
M  V30 BEGIN BOND
M  V30 1 2 1 2
M  V30 2 2 1 3
M  V30 3 1 1 4
M  V30 4 1 1 5
M  V30 5 1 4 6
M  V30 6 2 5 7
M  V30 7 1 5 8
M  V30 8 2 6 9
M  V30 9 1 6 10
M  V30 10 1 7 11
M  V30 11 2 8 12
M  V30 12 1 9 13
M  V30 13 1 9 14
M  V30 14 2 10 15
M  V30 15 1 11 16
M  V30 16 2 11 17
M  V30 17 1 13 18
M  V30 18 2 14 19
M  V30 19 1 15 20
M  V30 20 1 16 21
M  V30 21 1 17 22
M  V30 22 2 18 23
M  V30 23 1 18 24
M  V30 24 1 19 25
M  V30 25 1 20 26
M  V30 26 1 20 27
M  V30 27 1 22 28
M  V30 28 1 23 29
M  V30 29 2 24 30
M  V30 30 1 25 31
M  V30 31 2 26 32
M  V30 32 1 29 33
M  V30 33 2 29 34
M  V30 34 1 33 35
M  V30 35 1 35 36
M  V30 36 1 36 37
M  V30 37 1 12 17
M  V30 38 1 15 19
M  V30 39 1 25 26
M  V30 40 1 30 34
M  V30 END BOND
M  V30 END CTAB
M  END
>  <Compound ID>
143

>  <Name>
IACS-7e

>  <Uniprot>
O15164

>  <Target>
TRIM24

>  <Smiles>
CCCOC1=CC=CC(OC2=CC3=C(C=C2NS(=O)(=O)C2=CC=C(OC)C(OC)=C2)N(C)C(=O)N3C)=C1

>  <Kd (nM)>


>  <Assay (Kd)>


>  <Ki (nM)>


>  <Assay (Ki)>


>  <IC50 (nM)>
43

>  <Assay (IC50)>
IC50 was tested by the TRIM24 AlphaScreen Assay

>  <EC50 (nM)>


>  <Assay (EC50)>


>  <Article DOI>
10.1021/acs.jmedchem.5b00405

>  <Molecular Weight>
527.599

>  <Exact Mass>
527.172621268

>  <XLogP3>
3.79

>  <Heavy Atom Count>
37

>  <Ring Count>
4

>  <Hydrogen Bond Acceptor Count>
9

>  <Hydrogen Bond Donor Count>
1

>  <Rotatable Bond Count>
10

>  <Topological Polar Surface Area>
110.02

>  <Molecular Formula>
C26H29N3O7S

>  <InChI>
InChI=1S/C26H29N3O7S/c1-6-12-35-17-8-7-9-18(13-17)36-24-16-22-21(28(2)26(30)29(22)3)15-20(24)27-37(31,32)19-10-11-23(33-4)25(14-19)34-5/h7-11,13-16,27H,6,12H2,1-5H3

>  <InChI Key>
DYNNLYLIKZTWRT-UHFFFAOYSA-N

>  <BindingDB>
50150812

>  <PubChem>
118896778

>  <ChEMBL>
CHEMBL3775853

$$$$
Compound 491
Actelion Java MolfileCreator 2.0

  0  0  0  0  0  0              0 V3000
M  V30 BEGIN CTAB
M  V30 COUNTS 45 48 0 0 0
M  V30 BEGIN ATOM
M  V30 1 S 0.0 0.0 0.0 0
M  V30 2 O 0.4831 -1.4023 0.0 0
M  V30 3 O -0.5067 1.4259 0.0 0
M  V30 4 N -1.4259 -0.4831 0.0 0
M  V30 5 C 1.4023 0.5067 0.0 0
M  V30 6 C -1.7087 -1.9444 0.0 0
M  V30 7 C 1.6616 1.9915 0.0 0
M  V30 8 C 2.5336 -0.4595 0.0 0
M  V30 9 C -3.1346 -2.4276 0.0 0
M  V30 10 C -0.5774 -2.9107 0.0 0
M  V30 11 C 3.0639 2.4983 0.0 0
M  V30 12 C 3.936 0.0471 0.0 0
M  V30 13 O -4.2895 -1.4377 0.0 0
M  V30 14 C -3.4175 -3.8889 0.0 0
M  V30 15 C -0.8602 -4.372 0.0 0
M  V30 16 O 3.3232 3.9831 0.0 0
M  V30 17 C 4.1953 1.5319 0.0 0
M  V30 18 C -5.7155 -1.9208 0.0 0
M  V30 19 C -2.2862 -4.8552 0.0 0
M  V30 20 N 0.0353 -5.5505 0.0 0
M  V30 21 C 2.1683 4.973 0.0 0
M  V30 22 O 5.5976 2.0387 0.0 0
M  V30 23 C -6.8703 -0.9309 0.0 0
M  V30 24 C -5.9983 -3.3821 0.0 0
M  V30 25 N -2.2626 -6.34 0.0 0
M  V30 26 C -0.8249 -6.7761 0.0 0
M  V30 27 C 1.5202 -5.5033 0.0 0
M  V30 28 C 6.7289 1.0723 0.0 0
M  V30 29 C -8.2963 -1.4141 0.0 0
M  V30 30 C -7.4242 -3.8653 0.0 0
M  V30 31 C -3.4646 -7.2357 0.0 0
M  V30 32 O -0.3417 -8.1784 0.0 0
M  V30 33 O -9.4512 -0.4242 0.0 0
M  V30 34 C -8.5791 -2.8754 0.0 0
M  V30 35 O -7.707 -5.3266 0.0 0
M  V30 36 C -9.1919 1.0606 0.0 0
M  V30 37 C -9.133 -5.8097 0.0 0
M  V30 38 C -10.3468 2.0505 0.0 0
M  V30 39 C -9.4158 -7.271 0.0 0
M  V30 40 C -10.0875 3.5353 0.0 0
M  V30 41 C -10.8417 -7.7542 0.0 0
M  V30 42 C -11.2424 4.5252 0.0 0
M  V30 43 N -10.9832 6.0101 0.0 0
M  V30 44 C -12.138 7.0 0.0 0
M  V30 45 C -9.5808 6.5168 0.0 0
M  V30 END ATOM
M  V30 BEGIN BOND
M  V30 1 2 1 2
M  V30 2 2 1 3
M  V30 3 1 1 4
M  V30 4 1 1 5
M  V30 5 1 4 6
M  V30 6 2 5 7
M  V30 7 1 5 8
M  V30 8 2 6 9
M  V30 9 1 6 10
M  V30 10 1 7 11
M  V30 11 2 8 12
M  V30 12 1 9 13
M  V30 13 1 9 14
M  V30 14 2 10 15
M  V30 15 1 11 16
M  V30 16 2 11 17
M  V30 17 1 13 18
M  V30 18 2 14 19
M  V30 19 1 15 20
M  V30 20 1 16 21
M  V30 21 1 17 22
M  V30 22 2 18 23
M  V30 23 1 18 24
M  V30 24 1 19 25
M  V30 25 1 20 26
M  V30 26 1 20 27
M  V30 27 1 22 28
M  V30 28 1 23 29
M  V30 29 2 24 30
M  V30 30 1 25 31
M  V30 31 2 26 32
M  V30 32 1 29 33
M  V30 33 2 29 34
M  V30 34 1 30 35
M  V30 35 1 33 36
M  V30 36 1 35 37
M  V30 37 1 36 38
M  V30 38 1 37 39
M  V30 39 1 38 40
M  V30 40 1 39 41
M  V30 41 1 40 42
M  V30 42 1 42 43
M  V30 43 1 43 44
M  V30 44 1 43 45
M  V30 45 1 12 17
M  V30 46 1 15 19
M  V30 47 1 25 26
M  V30 48 1 30 34
M  V30 END BOND
M  V30 END CTAB
M  END
>  <Compound ID>
144

>  <Name>
IACS-9571

>  <Uniprot>
O15164

>  <Target>
TRIM24

>  <Smiles>
CCCOC1=CC(OCCCCN(C)C)=CC(OC2=CC3=C(C=C2NS(=O)(=O)C2=CC=C(OC)C(OC)=C2)N(C)C(=O)N3C)=C1

>  <Kd (nM)>
31

>  <Assay (Kd)>
ITC

>  <Ki (nM)>


>  <Assay (Ki)>


>  <IC50 (nM)>
8

>  <Assay (IC50)>
IC50 was tested by the TRIM24 AlphaScreen Assay

>  <EC50 (nM)>


>  <Assay (EC50)>


>  <Article DOI>
10.1021/acs.jmedchem.5b00405

>  <Molecular Weight>
642.775

>  <Exact Mass>
642.272335304

>  <XLogP3>
4.51

>  <Heavy Atom Count>
45

>  <Ring Count>
4

>  <Hydrogen Bond Acceptor Count>
11

>  <Hydrogen Bond Donor Count>
1

>  <Rotatable Bond Count>
16

>  <Topological Polar Surface Area>
122.49

>  <Molecular Formula>
C32H42N4O8S

>  <InChI>
InChI=1S/C32H42N4O8S/c1-8-14-42-22-16-23(43-15-10-9-13-34(2)3)18-24(17-22)44-30-21-28-27(35(4)32(37)36(28)5)20-26(30)33-45(38,39)25-11-12-29(40-6)31(19-25)41-7/h11-12,16-21,33H,8-10,13-15H2,1-7H3

>  <InChI Key>
HYQBRUSSCIAOOD-UHFFFAOYSA-N

>  <BindingDB>
50150818

>  <PubChem>
91808039

>  <ChEMBL>
CHEMBL3774575

$$$$
Compound 492
Actelion Java MolfileCreator 2.0

  0  0  0  0  0  0              0 V3000
M  V30 BEGIN CTAB
M  V30 COUNTS 50 53 0 0 0
M  V30 BEGIN ATOM
M  V30 1 O 0.0 0.0 0.0 0
M  V30 2 C -0.1993 1.5013 0.0 0
M  V30 3 O -1.5951 2.0995 0.0 0
M  V30 4 C 0.9852 2.4162 0.0 0 CFG=1
M  V30 5 C -2.8032 1.2081 0.0 0 CFG=1
M  V30 6 N 2.3575 1.8414 0.0 0
M  V30 7 C 0.7858 3.9175 0.0 0
M  V30 8 C -2.6273 -0.2697 0.0 0
M  V30 9 C -4.199 1.8063 0.0 0
M  V30 10 C 2.5335 0.3636 0.0 0
M  V30 11 C 3.5422 2.7563 0.0 0
M  V30 12 C 1.9705 4.8324 0.0 0
M  V30 13 C -1.255 -0.8445 0.0 0
M  V30 14 C -3.8354 -1.1611 0.0 0
M  V30 15 C -5.4071 0.9148 0.0 0
M  V30 16 O 1.3254 -0.5278 0.0 0
M  V30 17 C 3.9058 -0.2111 0.0 0 CFG=2
M  V30 18 C 3.3428 4.2577 0.0 0
M  V30 19 C -1.079 -2.3223 0.0 0
M  V30 20 C -3.6595 -2.639 0.0 0
M  V30 21 C -6.8029 1.513 0.0 0
M  V30 22 C 5.0905 0.7037 0.0 0
M  V30 23 C 4.0817 -1.689 0.0 0
M  V30 24 O 0.2932 -2.8971 0.0 0
M  V30 25 C -2.2872 -3.2138 0.0 0
M  V30 26 C -8.011 0.6216 0.0 0
M  V30 27 C -7.0023 3.0144 0.0 0
M  V30 28 C 6.4628 0.129 0.0 0
M  V30 29 C 4.8911 2.2051 0.0 0
M  V30 30 C 5.4541 -2.2637 0.0 0
M  V30 31 C 0.4691 -4.375 0.0 0
M  V30 32 C -9.4068 1.2198 0.0 0
M  V30 33 C -8.3981 3.6126 0.0 0
M  V30 34 C 7.6474 1.0439 0.0 0
M  V30 35 C 6.0757 3.1199 0.0 0
M  V30 36 C 1.8414 -4.9497 0.0 0
M  V30 37 O -10.6149 0.3284 0.0 0
M  V30 38 C -9.6062 2.7211 0.0 0
M  V30 39 O 9.0198 0.4691 0.0 0
M  V30 40 C 7.448 2.5452 0.0 0
M  V30 41 O 5.8763 4.6213 0.0 0
M  V30 42 O 3.0261 -4.0348 0.0 0
M  V30 43 O 2.0174 -6.4276 0.0 0
M  V30 44 C -10.439 -1.1494 0.0 0
M  V30 45 O -11.002 3.3193 0.0 0
M  V30 46 C 9.1957 -1.0087 0.0 0
M  V30 47 O 8.6327 3.4601 0.0 0
M  V30 48 C 7.061 5.5362 0.0 0
M  V30 49 C -11.2014 4.8207 0.0 0
M  V30 50 C 8.4333 4.9614 0.0 0
M  V30 END ATOM
M  V30 BEGIN BOND
M  V30 1 2 1 2
M  V30 2 1 2 3
M  V30 3 1 4 2 CFG=3
M  V30 4 1 5 3 CFG=1
M  V30 5 1 4 6
M  V30 6 1 4 7
M  V30 7 1 5 8
M  V30 8 1 5 9
M  V30 9 1 6 10
M  V30 10 1 6 11
M  V30 11 1 7 12
M  V30 12 2 8 13
M  V30 13 1 8 14
M  V30 14 1 9 15
M  V30 15 2 10 16
M  V30 16 1 10 17
M  V30 17 1 11 18
M  V30 18 1 13 19
M  V30 19 2 14 20
M  V30 20 1 15 21
M  V30 21 1 17 22
M  V30 22 1 17 23 CFG=3
M  V30 23 1 19 24
M  V30 24 2 19 25
M  V30 25 2 21 26
M  V30 26 1 21 27
M  V30 27 2 22 28
M  V30 28 1 22 29
M  V30 29 1 23 30
M  V30 30 1 24 31
M  V30 31 1 26 32
M  V30 32 2 27 33
M  V30 33 1 28 34
M  V30 34 2 29 35
M  V30 35 1 31 36
M  V30 36 1 32 37
M  V30 37 2 32 38
M  V30 38 1 34 39
M  V30 39 2 34 40
M  V30 40 1 35 41
M  V30 41 2 36 42
M  V30 42 1 36 43
M  V30 43 1 37 44
M  V30 44 1 38 45
M  V30 45 1 39 46
M  V30 46 1 40 47
M  V30 47 1 41 48
M  V30 48 1 45 49
M  V30 49 1 47 50
M  V30 50 1 12 18
M  V30 51 1 20 25
M  V30 52 1 33 38
M  V30 53 1 35 40
M  V30 END BOND
M  V30 BEGIN COLLECTION
M  V30 MDLV30/STEABS ATOMS=(3 4 5 17)
M  V30 END COLLECTION
M  V30 END CTAB
M  END
>  <Compound ID>
145

>  <Name>
AP1867

>  <Uniprot>
P62942

>  <Target>
FKBP12 F36V

>  <Smiles>
CC[C@H](C(=O)N1CCCC[C@H]1C(=O)O[C@H](CCC1=CC=C(OC)C(OC)=C1)C1=CC=CC(OCC(=O)O)=C1)C1=CC(OC)=C(OC)C(OC)=C1

>  <Kd (nM)>


>  <Assay (Kd)>


>  <Ki (nM)>


>  <Assay (Ki)>


>  <IC50 (nM)>
2.38

>  <Assay (IC50)>
IC50 was tested by the ligand displacement AlphaScreen experiments

>  <EC50 (nM)>


>  <Assay (EC50)>


>  <Article DOI>
10.1038/s41589-018-0021-8

>  <Molecular Weight>
693.79

>  <Exact Mass>
693.314911324

>  <XLogP3>
6.31

>  <Heavy Atom Count>
50

>  <Ring Count>
4

>  <Hydrogen Bond Acceptor Count>
10

>  <Hydrogen Bond Donor Count>
1

>  <Rotatable Bond Count>
17

>  <Topological Polar Surface Area>
139.29

>  <Molecular Formula>
C38H47NO11

>  <InChI>
InChI=1S/C38H47NO11/c1-7-28(26-21-33(46-4)36(48-6)34(22-26)47-5)37(42)39-18-9-8-13-29(39)38(43)50-30(25-11-10-12-27(20-25)49-23-35(40)41)16-14-24-15-17-31(44-2)32(19-24)45-3/h10-12,15,17,19-22,28-30H,7-9,13-14,16,18,23H2,1-6H3,(H,40,41)/t28-,29-,30+/m0/s1

>  <InChI Key>
XCCRAOPQCACRFC-OIFRRMEBSA-N

>  <BindingDB>
50132541

>  <PubChem>
444590

>  <ChEMBL>
CHEMBL110674

$$$$
Compound 493
Actelion Java MolfileCreator 2.0

  0  0  0  0  0  0              0 V3000
M  V30 BEGIN CTAB
M  V30 COUNTS 50 53 0 0 0
M  V30 BEGIN ATOM
M  V30 1 O 0.0 0.0 0.0 0
M  V30 2 C -0.059 1.5112 0.0 0
M  V30 3 O -1.3931 2.2313 0.0 0
M  V30 4 C 1.2042 2.314 0.0 0 CFG=1
M  V30 5 C -2.68 1.4521 0.0 0 CFG=1
M  V30 6 N 2.5147 1.6174 0.0 0
M  V30 7 C 1.1452 3.8252 0.0 0
M  V30 8 C -2.6446 -0.0354 0.0 0
M  V30 9 C -4.0141 2.1723 0.0 0
M  V30 10 C 2.5501 0.1298 0.0 0
M  V30 11 C 3.778 2.4202 0.0 0
M  V30 12 C 2.4084 4.628 0.0 0
M  V30 13 C -3.9314 -0.8146 0.0 0
M  V30 14 C -1.3341 -0.7319 0.0 0
M  V30 15 C -5.301 1.3931 0.0 0
M  V30 16 O 1.2632 -0.6493 0.0 0
M  V30 17 C 3.8606 -0.5667 0.0 0 CFG=2
M  V30 18 C 3.7189 3.9314 0.0 0
M  V30 19 O -5.2656 -0.0944 0.0 0
M  V30 20 C -3.896 -2.3022 0.0 0
M  V30 21 C -1.2986 -2.2195 0.0 0
M  V30 22 C -6.6351 2.1133 0.0 0
M  V30 23 C 5.1239 0.2361 0.0 0
M  V30 24 C 3.896 -2.0542 0.0 0
M  V30 25 C -6.5524 -0.8736 0.0 0
M  V30 26 C -2.5855 -2.9987 0.0 0
M  V30 27 C -7.922 1.3341 0.0 0
M  V30 28 C -6.6941 3.6245 0.0 0
M  V30 29 C 6.4344 -0.4604 0.0 0
M  V30 30 C 5.0649 1.7473 0.0 0
M  V30 31 C 5.2065 -2.7508 0.0 0
M  V30 32 C -6.517 -2.3612 0.0 0
M  V30 33 C -9.2561 2.0542 0.0 0
M  V30 34 C -8.0282 4.3447 0.0 0
M  V30 35 C 7.6977 0.3423 0.0 0
M  V30 36 C 6.3281 2.5501 0.0 0
M  V30 37 O -5.2065 -3.0578 0.0 0
M  V30 38 O -7.8039 -3.1404 0.0 0
M  V30 39 O -10.543 1.275 0.0 0
M  V30 40 C -9.3151 3.5655 0.0 0
M  V30 41 O 9.0082 -0.3541 0.0 0
M  V30 42 C 7.6386 1.8535 0.0 0
M  V30 43 O 6.2691 4.0613 0.0 0
M  V30 44 C -10.5076 -0.2125 0.0 0
M  V30 45 O -10.6492 4.2856 0.0 0
M  V30 46 C 9.0436 -1.8417 0.0 0
M  V30 47 O 8.9019 2.6564 0.0 0
M  V30 48 C 7.5324 4.8641 0.0 0
M  V30 49 C -10.7083 5.7968 0.0 0
M  V30 50 C 8.8429 4.1676 0.0 0
M  V30 END ATOM
M  V30 BEGIN BOND
M  V30 1 2 1 2
M  V30 2 1 2 3
M  V30 3 1 4 2 CFG=3
M  V30 4 1 5 3 CFG=1
M  V30 5 1 4 6
M  V30 6 1 4 7
M  V30 7 1 5 8
M  V30 8 1 5 9
M  V30 9 1 6 10
M  V30 10 1 6 11
M  V30 11 1 7 12
M  V30 12 2 8 13
M  V30 13 1 8 14
M  V30 14 1 9 15
M  V30 15 2 10 16
M  V30 16 1 10 17
M  V30 17 1 11 18
M  V30 18 1 13 19
M  V30 19 1 13 20
M  V30 20 2 14 21
M  V30 21 1 15 22
M  V30 22 1 17 23
M  V30 23 1 17 24 CFG=3
M  V30 24 1 19 25
M  V30 25 2 20 26
M  V30 26 2 22 27
M  V30 27 1 22 28
M  V30 28 2 23 29
M  V30 29 1 23 30
M  V30 30 1 24 31
M  V30 31 1 25 32
M  V30 32 1 27 33
M  V30 33 2 28 34
M  V30 34 1 29 35
M  V30 35 2 30 36
M  V30 36 2 32 37
M  V30 37 1 32 38
M  V30 38 1 33 39
M  V30 39 2 33 40
M  V30 40 1 35 41
M  V30 41 2 35 42
M  V30 42 1 36 43
M  V30 43 1 39 44
M  V30 44 1 40 45
M  V30 45 1 41 46
M  V30 46 1 42 47
M  V30 47 1 43 48
M  V30 48 1 45 49
M  V30 49 1 47 50
M  V30 50 1 12 18
M  V30 51 1 21 26
M  V30 52 1 34 40
M  V30 53 1 36 42
M  V30 END BOND
M  V30 BEGIN COLLECTION
M  V30 MDLV30/STEABS ATOMS=(3 4 5 17)
M  V30 END COLLECTION
M  V30 END CTAB
M  END
>  <Compound ID>
146

>  <Name>
ortho-AP1867

>  <Uniprot>
P62942

>  <Target>
FKBP12 F36V

>  <Smiles>
CC[C@H](C(=O)N1CCCC[C@H]1C(=O)O[C@H](CCC1=CC=C(OC)C(OC)=C1)C1=CC=CC=C1OCC(=O)O)C1=CC(OC)=C(OC)C(OC)=C1

>  <Kd (nM)>


>  <Assay (Kd)>


>  <Ki (nM)>


>  <Assay (Ki)>


>  <IC50 (nM)>
204.4

>  <Assay (IC50)>
IC50 was tested by the ligand displacement AlphaScreen experiments

>  <EC50 (nM)>


>  <Assay (EC50)>


>  <Article DOI>
10.1038/s41589-018-0021-8

>  <Molecular Weight>
693.79

>  <Exact Mass>
693.314911324

>  <XLogP3>
6.31

>  <Heavy Atom Count>
50

>  <Ring Count>
4

>  <Hydrogen Bond Acceptor Count>
10

>  <Hydrogen Bond Donor Count>
1

>  <Rotatable Bond Count>
17

>  <Topological Polar Surface Area>
139.29

>  <Molecular Formula>
C38H47NO11

>  <InChI>
InChI=1S/C38H47NO11/c1-7-26(25-21-33(46-4)36(48-6)34(22-25)47-5)37(42)39-19-11-10-13-28(39)38(43)50-30(27-12-8-9-14-29(27)49-23-35(40)41)17-15-24-16-18-31(44-2)32(20-24)45-3/h8-9,12,14,16,18,20-22,26,28,30H,7,10-11,13,15,17,19,23H2,1-6H3,(H,40,41)/t26-,28-,30+/m0/s1

>  <InChI Key>
UYXSZUBFOQLRNQ-BTIIJPOSSA-N

>  <BindingDB>


>  <PubChem>
133080821

>  <ChEMBL>


$$$$
Compound 494
Actelion Java MolfileCreator 2.0

  0  0  0  0  0  0              0 V3000
M  V30 BEGIN CTAB
M  V30 COUNTS 51 52 0 0 0
M  V30 BEGIN ATOM
M  V30 1 O 0.0 0.0 0.0 0
M  V30 2 C 1.3208 -0.6722 0.0 0
M  V30 3 N 1.3798 -2.1582 0.0 0
M  V30 4 C 2.571 0.1533 0.0 0 CFG=1
M  V30 5 C 0.1061 -2.9602 0.0 0 CFG=2
M  V30 6 C 2.7007 -2.8304 0.0 0
M  V30 7 N 3.8919 -0.5189 0.0 0
M  V30 8 C 2.4884 1.6629 0.0 0
M  V30 9 C -1.2383 -2.2643 0.0 0 CFG=2
M  V30 10 C 0.1651 -4.4462 0.0 0 CFG=2
M  V30 11 C 5.142 0.3066 0.0 0
M  V30 12 C 3.7386 2.4884 0.0 0
M  V30 13 C 1.1439 2.3587 0.0 0
M  V30 14 O -2.512 -3.0663 0.0 0
M  V30 15 C -1.3208 -0.7547 0.0 0
M  V30 16 C -1.1086 -5.2482 0.0 0
M  V30 17 C 1.486 -5.1184 0.0 0
M  V30 18 O 5.0595 1.8162 0.0 0
M  V30 19 C 6.4629 -0.3656 0.0 0 CFG=1
M  V30 20 C -2.453 -4.5523 0.0 0
M  V30 21 C -2.6653 -0.0589 0.0 0
M  V30 22 C -1.0496 -6.7342 0.0 0
M  V30 23 N 6.5219 -1.8516 0.0 0
M  V30 24 C 7.7131 0.4599 0.0 0
M  V30 25 O -3.9391 -0.8609 0.0 0
M  V30 26 N -2.7479 1.4506 0.0 0
M  V30 27 C 7.8428 -2.5238 0.0 0
M  V30 28 C 9.0339 -0.2122 0.0 0
M  V30 29 C 7.6305 1.9695 0.0 0
M  V30 30 C -4.0216 2.2761 0.0 0 CFG=2
M  V30 31 C -1.5921 2.4059 0.0 0
M  V30 32 C -5.4369 1.7572 0.0 0 CFG=2
M  V30 33 C -3.6442 3.7386 0.0 0
M  V30 34 C -2.1346 3.8211 0.0 0
M  V30 35 O -5.6845 0.283 0.0 0
M  V30 36 C -6.6162 2.7125 0.0 0 CFG=2
M  V30 37 C -7.0998 -0.2358 0.0 0
M  V30 38 C -8.0315 2.1936 0.0 0
M  V30 39 C -6.3922 4.2103 0.0 0
M  V30 40 O -9.2109 3.1489 0.0 0
M  V30 41 N -8.2791 0.7194 0.0 0
M  V30 42 C -9.6944 0.2004 0.0 0 CFG=1
M  V30 43 C -9.9421 -1.2737 0.0 0 CFG=1
M  V30 44 C -10.8738 1.1557 0.0 0
M  V30 45 O -11.3573 -1.7926 0.0 0
M  V30 46 C -8.7863 -2.2054 0.0 0
M  V30 47 C -9.0339 -3.6796 0.0 0
M  V30 48 C -7.3946 -1.6629 0.0 0
M  V30 49 C -7.8782 -4.6113 0.0 0
M  V30 50 C -6.2388 -2.5946 0.0 0
M  V30 51 C -6.4865 -4.0688 0.0 0
M  V30 END ATOM
M  V30 BEGIN BOND
M  V30 1 2 1 2
M  V30 2 1 2 3
M  V30 3 1 2 4
M  V30 4 1 5 3 CFG=1
M  V30 5 1 3 6
M  V30 6 1 4 7 CFG=3
M  V30 7 1 4 8
M  V30 8 1 5 9
M  V30 9 1 5 10
M  V30 10 1 7 11
M  V30 11 1 8 12
M  V30 12 1 8 13
M  V30 13 1 9 14 CFG=3
M  V30 14 1 9 15
M  V30 15 1 10 16
M  V30 16 1 10 17 CFG=1
M  V30 17 2 11 18
M  V30 18 1 11 19
M  V30 19 1 14 20
M  V30 20 1 15 21
M  V30 21 1 16 22
M  V30 22 1 19 23 CFG=3
M  V30 23 1 19 24
M  V30 24 2 21 25
M  V30 25 1 21 26
M  V30 26 1 23 27
M  V30 27 1 24 28
M  V30 28 1 24 29
M  V30 29 1 30 26 CFG=3
M  V30 30 1 26 31
M  V30 31 1 30 32
M  V30 32 1 30 33
M  V30 33 1 31 34
M  V30 34 1 32 35 CFG=3
M  V30 35 1 32 36
M  V30 36 1 35 37
M  V30 37 1 36 38
M  V30 38 1 36 39 CFG=3
M  V30 39 2 38 40
M  V30 40 1 38 41
M  V30 41 1 42 41 CFG=1
M  V30 42 1 42 43
M  V30 43 1 42 44
M  V30 44 1 43 45 CFG=3
M  V30 45 1 43 46
M  V30 46 2 46 47
M  V30 47 1 46 48
M  V30 48 1 47 49
M  V30 49 2 48 50
M  V30 50 2 49 51
M  V30 51 1 33 34
M  V30 52 1 50 51
M  V30 END BOND
M  V30 BEGIN COLLECTION
M  V30 MDLV30/STEABS ATOMS=(10 4 5 9 10 19 30 32 36 42 43)
M  V30 END COLLECTION
M  V30 END CTAB
M  END
>  <Compound ID>
147

>  <Name>
MMAE

>  <Uniprot>


>  <Target>
Tubulin

>  <Smiles>
CC[C@H](C)[C@@H]([C@@H](CC(=O)N1CCC[C@H]1[C@H](OC)[C@@H](C)C(=O)N[C@H](C)[C@@H](O)C1=CC=CC=C1)OC)N(C)C(=O)[C@@H](NC(=O)[C@@H](NC)C(C)C)C(C)C

>  <Kd (nM)>


>  <Assay (Kd)>


>  <Ki (nM)>


>  <Assay (Ki)>


>  <IC50 (nM)>


>  <Assay (IC50)>


>  <EC50 (nM)>


>  <Assay (EC50)>


>  <Article DOI>
10.3390/cells9051083

>  <Molecular Weight>
717.993

>  <Exact Mass>
717.504049484

>  <XLogP3>
4.08

>  <Heavy Atom Count>
51

>  <Ring Count>
2

>  <Hydrogen Bond Acceptor Count>
8

>  <Hydrogen Bond Donor Count>
4

>  <Rotatable Bond Count>
20

>  <Topological Polar Surface Area>
149.54

>  <Molecular Formula>
C39H67N5O7

>  <InChI>
InChI=1S/C39H67N5O7/c1-13-25(6)34(43(10)39(49)33(24(4)5)42-38(48)32(40-9)23(2)3)30(50-11)22-31(45)44-21-17-20-29(44)36(51-12)26(7)37(47)41-27(8)35(46)28-18-15-14-16-19-28/h14-16,18-19,23-27,29-30,32-36,40,46H,13,17,20-22H2,1-12H3,(H,41,47)(H,42,48)/t25-,26+,27+,29-,30+,32-,33-,34-,35+,36+/m0/s1

>  <InChI Key>
DASWEROEPLKSEI-UIJRFTGLSA-N

>  <BindingDB>


>  <PubChem>
11542188

>  <ChEMBL>
CHEMBL2103835

$$$$
Compound 495
Actelion Java MolfileCreator 2.0

  0  0  0  0  0  0              0 V3000
M  V30 BEGIN CTAB
M  V30 COUNTS 23 24 0 0 0
M  V30 BEGIN ATOM
M  V30 1 O 0.0 0.0 0.0 0
M  V30 2 C -0.6709 1.3535 0.0 0
M  V30 3 C 1.483 -0.0823 0.0 0
M  V30 4 C -2.1775 1.4595 0.0 0
M  V30 5 C 0.153 2.613 0.0 0
M  V30 6 O -3.0249 0.2236 0.0 0
M  V30 7 C -2.8484 2.813 0.0 0
M  V30 8 O 1.636 2.5306 0.0 0
M  V30 9 C -0.5178 3.9665 0.0 0
M  V30 10 C -2.3775 -1.1064 0.0 0
M  V30 11 C -2.0244 4.0725 0.0 0
M  V30 12 C 2.4599 3.79 0.0 0
M  V30 13 C -2.6953 5.4261 0.0 0
M  V30 14 C -4.2019 5.532 0.0 0
M  V30 15 C -5.0494 4.2961 0.0 0
M  V30 16 C -4.402 2.9661 0.0 0
M  V30 17 C -6.556 4.402 0.0 0
M  V30 18 C -5.2495 1.7302 0.0 0
M  V30 19 C -7.4035 3.1662 0.0 0
M  V30 20 O -4.6021 0.4001 0.0 0
M  V30 21 C -6.7561 1.8361 0.0 0
M  V30 22 O -7.6036 0.6002 0.0 0
M  V30 23 C -9.1102 0.7062 0.0 0
M  V30 END ATOM
M  V30 BEGIN BOND
M  V30 1 1 1 2
M  V30 2 1 1 3
M  V30 3 2 2 4
M  V30 4 1 2 5
M  V30 5 1 4 6
M  V30 6 1 4 7
M  V30 7 1 5 8
M  V30 8 2 5 9
M  V30 9 1 6 10
M  V30 10 2 7 11
M  V30 11 1 8 12
M  V30 12 1 11 13
M  V30 13 2 13 14
M  V30 14 1 14 15
M  V30 15 2 15 16
M  V30 16 1 15 17
M  V30 17 1 16 18
M  V30 18 2 17 19
M  V30 19 1 18 20
M  V30 20 2 18 21
M  V30 21 1 21 22
M  V30 22 1 22 23
M  V30 23 1 9 11
M  V30 24 1 19 21
M  V30 END BOND
M  V30 END CTAB
M  END
>  <Compound ID>
148

>  <Name>
combretastatin A-4

>  <Uniprot>


>  <Target>
Tubulin

>  <Smiles>
COC1=CC=C(/C=C\C2=CC(OC)=C(OC)C(OC)=C2)C=C1O

>  <Kd (nM)>


>  <Assay (Kd)>


>  <Ki (nM)>


>  <Assay (Ki)>


>  <IC50 (nM)>
1200

>  <Assay (IC50)>
Inhibition of tubulin polymerization

>  <EC50 (nM)>


>  <Assay (EC50)>


>  <Article DOI>
10.1021/jm0205797

>  <Molecular Weight>
316.353

>  <Exact Mass>
316.13107374

>  <XLogP3>
3.72

>  <Heavy Atom Count>
23

>  <Ring Count>
2

>  <Hydrogen Bond Acceptor Count>
5

>  <Hydrogen Bond Donor Count>
1

>  <Rotatable Bond Count>
6

>  <Topological Polar Surface Area>
57.15

>  <Molecular Formula>
C18H20O5

>  <InChI>
InChI=1S/C18H20O5/c1-20-15-8-7-12(9-14(15)19)5-6-13-10-16(21-2)18(23-4)17(11-13)22-3/h5-11,19H,1-4H3/b6-5-

>  <InChI Key>
HVXBOLULGPECHP-WAYWQWQTSA-N

>  <BindingDB>
50005480

>  <PubChem>
5351344

>  <ChEMBL>


$$$$
Compound 496
Actelion Java MolfileCreator 2.0

  0  0  0  0  0  0              0 V3000
M  V30 BEGIN CTAB
M  V30 COUNTS 20 23 0 0 0
M  V30 BEGIN ATOM
M  V30 1 F 0.0 0.0 0.0 0 MASS=18
M  V30 2 C 1.4865 0.1769 0.0 0
M  V30 3 N 2.3595 -1.0263 0.0 0
M  V30 4 C 2.0881 1.569 0.0 0
M  V30 5 C 3.846 -0.8494 0.0 0
M  V30 6 C 3.5746 1.746 0.0 0
M  V30 7 C 4.4477 0.5426 0.0 0
M  V30 8 C 5.9342 0.7196 0.0 0
M  V30 9 C 6.8072 -0.4837 0.0 0
M  V30 10 C 6.5358 2.1117 0.0 0
M  V30 11 C 8.2937 -0.3067 0.0 0
M  V30 12 C 8.0224 2.2887 0.0 0
M  V30 13 N 9.4027 -1.2977 0.0 0
M  V30 14 C 8.8954 1.0853 0.0 0
M  V30 15 C 10.6886 -0.5308 0.0 0
M  V30 16 C 10.3819 0.9438 0.0 0
M  V30 17 C 12.1161 -0.9792 0.0 0
M  V30 18 C 11.4909 1.9702 0.0 0
M  V30 19 C 13.2251 0.0471 0.0 0
M  V30 20 N 12.9184 1.5218 0.0 0
M  V30 END ATOM
M  V30 BEGIN BOND
M  V30 1 1 1 2
M  V30 2 2 2 3
M  V30 3 1 2 4
M  V30 4 1 3 5
M  V30 5 2 4 6
M  V30 6 2 5 7
M  V30 7 1 7 8
M  V30 8 2 8 9
M  V30 9 1 8 10
M  V30 10 1 9 11
M  V30 11 2 10 12
M  V30 12 1 11 13
M  V30 13 2 11 14
M  V30 14 1 13 15
M  V30 15 1 14 16
M  V30 16 1 15 17
M  V30 17 1 16 18
M  V30 18 2 17 19
M  V30 19 2 18 20
M  V30 20 1 6 7
M  V30 21 1 12 14
M  V30 22 2 15 16
M  V30 23 1 19 20
M  V30 END BOND
M  V30 END CTAB
M  END
>  <Compound ID>
149

>  <Name>
18F-T807

>  <Uniprot>
P10636

>  <Target>
Tau

>  <Smiles>
[18F]C1=CC=C(C2=CC=C3C(=C2)[NH]C2=CC=NC=C23)C=N1

>  <Kd (nM)>
1800/2100/1700

>  <Assay (Kd)>
Kd of Tau WT/A152T/P301L was tested using the BLI assay

>  <Ki (nM)>


>  <Assay (Ki)>


>  <IC50 (nM)>


>  <Assay (IC50)>


>  <EC50 (nM)>


>  <Assay (EC50)>


>  <Article DOI>
10.7554/eLife.45457

>  <Molecular Weight>
262.277938

>  <Exact Mass>
262.08841032

>  <XLogP3>
3.31

>  <Heavy Atom Count>
20

>  <Ring Count>
4

>  <Hydrogen Bond Acceptor Count>
2

>  <Hydrogen Bond Donor Count>
1

>  <Rotatable Bond Count>
1

>  <Topological Polar Surface Area>
41.57

>  <Molecular Formula>
C16H10FN3

>  <InChI>
InChI=1S/C16H10FN3/c17-16-4-2-11(8-19-16)10-1-3-12-13-9-18-6-5-14(13)20-15(12)7-10/h1-9,20H/i17-1

>  <InChI Key>
GETAAWDSFUCLBS-SJPDSGJFSA-N

>  <BindingDB>


>  <PubChem>
70957463

>  <ChEMBL>
CHEMBL3545253

$$$$
Compound 497
Actelion Java MolfileCreator 2.0

  0  0  0  0  0  0              0 V3000
M  V30 BEGIN CTAB
M  V30 COUNTS 36 39 0 0 0
M  V30 BEGIN ATOM
M  V30 1 Cl 0.0 0.0 0.0 0
M  V30 2 C -1.074 -1.0512 0.0 0
M  V30 3 C -0.697 -2.4909 0.0 0
M  V30 4 C -2.5366 -0.6513 0.0 0
M  V30 5 Cl 0.7427 -2.868 0.0 0
M  V30 6 C -1.7711 -3.5422 0.0 0
M  V30 7 C -3.6107 -1.7025 0.0 0
M  V30 8 C -3.2336 -3.1422 0.0 0
M  V30 9 C -5.0733 -1.3026 0.0 0
M  V30 10 C -6.1474 -2.3538 0.0 0
M  V30 11 C -7.61 -1.9539 0.0 0
M  V30 12 C -5.7703 -3.7935 0.0 0
M  V30 13 O -8.0099 -0.4913 0.0 0
M  V30 14 C -8.6841 -3.0051 0.0 0
M  V30 15 N -6.8444 -4.8448 0.0 0
M  V30 16 C -10.1466 -2.6052 0.0 0
M  V30 17 C -8.307 -4.4448 0.0 0
M  V30 18 C -6.4673 -6.2845 0.0 0
M  V30 19 C -11.2207 -3.6564 0.0 0
M  V30 20 O -7.5414 -7.3357 0.0 0
M  V30 21 C -5.0276 -6.6616 0.0 0 CFG=1
M  V30 22 C -10.8437 -5.0961 0.0 0
M  V30 23 C -12.6833 -3.2565 0.0 0
M  V30 24 N -3.9764 -5.5875 0.0 0
M  V30 25 C -4.6505 -8.1013 0.0 0
M  V30 26 C -11.9177 -6.1474 0.0 0
M  V30 27 C -13.7574 -4.3077 0.0 0
M  V30 28 C -3.2108 -8.4784 0.0 0
M  V30 29 Cl -11.5407 -7.5871 0.0 0
M  V30 30 C -13.3803 -5.7475 0.0 0
M  V30 31 C -2.8337 -9.9181 0.0 0
M  V30 32 C -2.1595 -7.4043 0.0 0
M  V30 33 Cl -14.4544 -6.7987 0.0 0
M  V30 34 C -1.394 -10.2952 0.0 0
M  V30 35 C -0.7198 -7.7814 0.0 0
M  V30 36 C -0.3427 -9.2211 0.0 0
M  V30 END ATOM
M  V30 BEGIN BOND
M  V30 1 1 1 2
M  V30 2 2 2 3
M  V30 3 1 2 4
M  V30 4 1 3 5
M  V30 5 1 3 6
M  V30 6 2 4 7
M  V30 7 2 6 8
M  V30 8 1 7 9
M  V30 9 2 9 10
M  V30 10 1 10 11
M  V30 11 1 10 12
M  V30 12 2 11 13
M  V30 13 1 11 14
M  V30 14 1 12 15
M  V30 15 2 14 16
M  V30 16 1 14 17
M  V30 17 1 15 18
M  V30 18 1 16 19
M  V30 19 2 18 20
M  V30 20 1 18 21
M  V30 21 2 19 22
M  V30 22 1 19 23
M  V30 23 1 21 24 CFG=1
M  V30 24 1 21 25
M  V30 25 1 22 26
M  V30 26 2 23 27
M  V30 27 1 25 28
M  V30 28 1 26 29
M  V30 29 2 26 30
M  V30 30 2 28 31
M  V30 31 1 28 32
M  V30 32 1 30 33
M  V30 33 1 31 34
M  V30 34 2 32 35
M  V30 35 2 34 36
M  V30 36 1 7 8
M  V30 37 1 15 17
M  V30 38 1 27 30
M  V30 39 1 35 36
M  V30 END BOND
M  V30 BEGIN COLLECTION
M  V30 MDLV30/STEABS ATOMS=(1 21)
M  V30 END COLLECTION
M  V30 END CTAB
M  END
>  <Compound ID>
150

>  <Name>
RA190

>  <Uniprot>
Q16186

>  <Target>
Rpn13

>  <Smiles>
N[C@@H](CC1=CC=CC=C1)C(=O)N1C/C(=C\C2=CC=C(Cl)C(Cl)=C2)C(=O)/C(=C/C2=CC=C(Cl)C(Cl)=C2)C1

>  <Kd (nM)>


>  <Assay (Kd)>


>  <Ki (nM)>


>  <Assay (Ki)>


>  <IC50 (nM)>
35

>  <Assay (IC50)>
Inhibit proliferation of MM.1S cells

>  <EC50 (nM)>


>  <Assay (EC50)>


>  <Article DOI>
10.1016/j.ccr.2013.11.001

>  <Molecular Weight>
560.308

>  <Exact Mass>
558.043538664

>  <XLogP3>
6.69

>  <Heavy Atom Count>
36

>  <Ring Count>
4

>  <Hydrogen Bond Acceptor Count>
3

>  <Hydrogen Bond Donor Count>
1

>  <Rotatable Bond Count>
5

>  <Topological Polar Surface Area>
63.4

>  <Molecular Formula>
C28H22Cl4N2O2

>  <InChI>
InChI=1S/C28H22Cl4N2O2/c29-22-8-6-18(12-24(22)31)10-20-15-34(28(36)26(33)14-17-4-2-1-3-5-17)16-21(27(20)35)11-19-7-9-23(30)25(32)13-19/h1-13,26H,14-16,33H2/b20-10+,21-11+/t26-/m0/s1

>  <InChI Key>
IYJSFPQYTFFTKN-KJRZKRENSA-N

>  <BindingDB>


>  <PubChem>
86302131

>  <ChEMBL>


$$$$
Compound 498
Actelion Java MolfileCreator 2.0

  0  0  0  0  0  0              0 V3000
M  V30 BEGIN CTAB
M  V30 COUNTS 26 29 0 0 0
M  V30 BEGIN ATOM
M  V30 1 O 0.0 0.0 0.0 0
M  V30 2 C -1.4918 0.268 0.0 0
M  V30 3 C 0.944 1.1655 0.0 0
M  V30 4 C -2.4592 -0.8741 0.0 0
M  V30 5 C -2.028 1.69 0.0 0
M  V30 6 C -3.9511 -0.606 0.0 0
M  V30 7 C -3.5199 1.958 0.0 0
M  V30 8 C -4.4872 0.8158 0.0 0
M  V30 9 N -5.9791 1.0839 0.0 0
M  V30 10 C -6.9465 -0.0582 0.0 0
M  V30 11 N -6.4337 -1.4569 0.0 0
M  V30 12 N -8.4384 0.2097 0.0 0
M  V30 13 C -7.4011 -2.5991 0.0 0
M  V30 14 C -9.4058 -0.9324 0.0 0
M  V30 15 N -6.8882 -3.9977 0.0 0
M  V30 16 C -8.8929 -2.331 0.0 0
M  V30 17 C -5.4197 -4.2425 0.0 0
M  V30 18 C -4.9068 -5.6411 0.0 0
M  V30 19 C -4.4756 -3.077 0.0 0
M  V30 20 N -3.4383 -5.8859 0.0 0
M  V30 21 C -3.007 -3.3217 0.0 0
M  V30 22 C -2.4942 -4.7203 0.0 0
M  V30 23 C -2.0629 -2.1562 0.0 0
M  V30 24 C -1.0256 -4.9651 0.0 0
M  V30 25 C -0.5944 -2.4009 0.0 0
M  V30 26 C -0.0815 -3.7996 0.0 0
M  V30 END ATOM
M  V30 BEGIN BOND
M  V30 1 1 1 2
M  V30 2 1 1 3
M  V30 3 2 2 4
M  V30 4 1 2 5
M  V30 5 1 4 6
M  V30 6 2 5 7
M  V30 7 2 6 8
M  V30 8 1 8 9
M  V30 9 1 9 10
M  V30 10 2 10 11
M  V30 11 1 10 12
M  V30 12 1 11 13
M  V30 13 2 12 14
M  V30 14 1 13 15
M  V30 15 2 13 16
M  V30 16 1 15 17
M  V30 17 1 17 18
M  V30 18 2 17 19
M  V30 19 2 18 20
M  V30 20 1 19 21
M  V30 21 1 20 22
M  V30 22 2 21 23
M  V30 23 2 22 24
M  V30 24 1 23 25
M  V30 25 1 24 26
M  V30 26 1 7 8
M  V30 27 1 14 16
M  V30 28 1 21 22
M  V30 29 2 25 26
M  V30 END BOND
M  V30 END CTAB
M  END
>  <Compound ID>
151

>  <Name>


>  <Uniprot>
P08069

>  <Target>
IGF-1R

>  <Smiles>
COC1=CC=C(NC2=NC=CC(NC3=CN=C4C=CC=CC4=C3)=N2)C=C1

>  <Kd (nM)>


>  <Assay (Kd)>


>  <Ki (nM)>


>  <Assay (Ki)>


>  <IC50 (nM)>
55

>  <Assay (IC50)>
Inhibition of IGF-1R

>  <EC50 (nM)>


>  <Assay (EC50)>


>  <Article DOI>
10.1016/j.bmcl.2011.02.075

>  <Molecular Weight>
343.39

>  <Exact Mass>
343.143310164

>  <XLogP3>
4.19

>  <Heavy Atom Count>
26

>  <Ring Count>
4

>  <Hydrogen Bond Acceptor Count>
6

>  <Hydrogen Bond Donor Count>
2

>  <Rotatable Bond Count>
5

>  <Topological Polar Surface Area>
71.96

>  <Molecular Formula>
C20H17N5O

>  <InChI>
InChI=1S/C20H17N5O/c1-26-17-8-6-15(7-9-17)24-20-21-11-10-19(25-20)23-16-12-14-4-2-3-5-18(14)22-13-16/h2-13H,1H3,(H2,21,23,24,25)

>  <InChI Key>
AFGXLUJVZOJZCS-UHFFFAOYSA-N

>  <BindingDB>
50340137

>  <PubChem>
9967928

>  <ChEMBL>
CHEMBL1760051

$$$$
Compound 499
Actelion Java MolfileCreator 2.0

  0  0  0  0  0  0              0 V3000
M  V30 BEGIN CTAB
M  V30 COUNTS 21 23 0 0 0
M  V30 BEGIN ATOM
M  V30 1 Cl 0.0 0.0 0.0 0
M  V30 2 C 1.4943 -0.083 0.0 0
M  V30 3 C 2.3126 1.1859 0.0 0
M  V30 4 C 2.1584 -1.4231 0.0 0
M  V30 5 C 3.8069 1.1029 0.0 0
M  V30 6 C 3.6528 -1.5061 0.0 0
M  V30 7 C 4.4711 -0.2371 0.0 0
M  V30 8 C 5.9654 -0.3202 0.0 0
M  V30 9 N 6.9142 0.8539 0.0 0
M  V30 10 C 6.76 -1.5773 0.0 0
M  V30 11 N 8.3018 0.3083 0.0 0
M  V30 12 C 6.3449 -3.0242 0.0 0
M  V30 13 C 8.2069 -1.1859 0.0 0
M  V30 14 C 9.5589 1.1266 0.0 0
M  V30 15 N 7.3886 -4.0916 0.0 0
M  V30 16 N 4.8743 -3.3918 0.0 0
M  V30 17 N 9.2506 -2.2533 0.0 0
M  V30 18 C 8.7406 2.4075 0.0 0
M  V30 19 C 10.3535 -0.1304 0.0 0
M  V30 20 C 10.8161 1.945 0.0 0
M  V30 21 C 8.8355 -3.7002 0.0 0
M  V30 END ATOM
M  V30 BEGIN BOND
M  V30 1 1 1 2
M  V30 2 2 2 3
M  V30 3 1 2 4
M  V30 4 1 3 5
M  V30 5 2 4 6
M  V30 6 2 5 7
M  V30 7 1 7 8
M  V30 8 2 8 9
M  V30 9 1 8 10
M  V30 10 1 9 11
M  V30 11 2 10 12
M  V30 12 1 10 13
M  V30 13 1 11 14
M  V30 14 1 12 15
M  V30 15 1 12 16
M  V30 16 2 13 17
M  V30 17 1 14 18
M  V30 18 1 14 19
M  V30 19 1 14 20
M  V30 20 2 15 21
M  V30 21 1 6 7
M  V30 22 1 11 13
M  V30 23 1 17 21
M  V30 END BOND
M  V30 END CTAB
M  END
>  <Compound ID>
152

>  <Name>
PP2

>  <Uniprot>
P12931

>  <Target>
Src

>  <Smiles>
CC(C)(C)N1N=C(C2=CC=C(Cl)C=C2)C2=C(N)N=CN=C21

>  <Kd (nM)>


>  <Assay (Kd)>


>  <Ki (nM)>


>  <Assay (Ki)>


>  <IC50 (nM)>
2.8

>  <Assay (IC50)>
IC50 of Src was determined by HTScan Src Kinase Assay Kit

>  <EC50 (nM)>


>  <Assay (EC50)>


>  <Article DOI>
10.1016/j.bmcl.2011.01.047

>  <Molecular Weight>
301.781

>  <Exact Mass>
301.109423192

>  <XLogP3>
3.02

>  <Heavy Atom Count>
21

>  <Ring Count>
3

>  <Hydrogen Bond Acceptor Count>
5

>  <Hydrogen Bond Donor Count>
1

>  <Rotatable Bond Count>
1

>  <Topological Polar Surface Area>
69.62

>  <Molecular Formula>
C15H16ClN5

>  <InChI>
InChI=1S/C15H16ClN5/c1-15(2,3)21-14-11(13(17)18-8-19-14)12(20-21)9-4-6-10(16)7-5-9/h4-8H,1-3H3,(H2,17,18,19)

>  <InChI Key>
PBBRWFOVCUAONR-UHFFFAOYSA-N

>  <BindingDB>
50142887

>  <PubChem>
4878

>  <ChEMBL>
CHEMBL406845

$$$$
Compound 500
Actelion Java MolfileCreator 2.0

  0  0  0  0  0  0              0 V3000
M  V30 BEGIN CTAB
M  V30 COUNTS 29 33 0 0 0
M  V30 BEGIN ATOM
M  V30 1 F 0.0 0.0 0.0 0
M  V30 2 C 1.3978 0.533 0.0 0
M  V30 3 C 2.5469 -0.4146 0.0 0
M  V30 4 C 1.6466 2.0256 0.0 0
M  V30 5 N 3.9447 0.1184 0.0 0
M  V30 6 N 2.2744 -1.8835 0.0 0
M  V30 7 N 3.0444 2.5587 0.0 0
M  V30 8 C 4.1935 1.611 0.0 0
M  V30 9 C 0.8529 -2.3929 0.0 0
M  V30 10 N 5.5914 2.1441 0.0 0
M  V30 11 N 0.4264 -3.8263 0.0 0
M  V30 12 C -0.4146 -1.54 0.0 0
M  V30 13 C 6.7404 1.1964 0.0 0
M  V30 14 N -1.0898 -3.8737 0.0 0
M  V30 15 C -1.611 -2.464 0.0 0
M  V30 16 C 6.468 -0.2724 0.0 0
M  V30 17 C 8.1383 1.7295 0.0 0
M  V30 18 C -3.0681 -2.0375 0.0 0
M  V30 19 C 7.6171 -1.2201 0.0 0
M  V30 20 C 9.2874 0.7818 0.0 0
M  V30 21 C -4.537 -2.3929 0.0 0
M  V30 22 C -4.1343 -0.9476 0.0 0
M  V30 23 C 9.0149 -0.687 0.0 0
M  V30 24 N 10.164 -1.6347 0.0 0
M  V30 25 C 9.8915 -3.1037 0.0 0
M  V30 26 C 11.5618 -1.1016 0.0 0
M  V30 27 C 11.0406 -4.0513 0.0 0
M  V30 28 C 12.7109 -2.0493 0.0 0
M  V30 29 N 12.4385 -3.5183 0.0 0
M  V30 END ATOM
M  V30 BEGIN BOND
M  V30 1 1 1 2
M  V30 2 2 2 3
M  V30 3 1 2 4
M  V30 4 1 3 5
M  V30 5 1 3 6
M  V30 6 2 4 7
M  V30 7 2 5 8
M  V30 8 1 6 9
M  V30 9 1 8 10
M  V30 10 2 9 11
M  V30 11 1 9 12
M  V30 12 1 10 13
M  V30 13 1 11 14
M  V30 14 2 12 15
M  V30 15 2 13 16
M  V30 16 1 13 17
M  V30 17 1 15 18
M  V30 18 1 16 19
M  V30 19 2 17 20
M  V30 20 1 18 21
M  V30 21 1 18 22
M  V30 22 2 19 23
M  V30 23 1 23 24
M  V30 24 1 24 25
M  V30 25 1 24 26
M  V30 26 1 25 27
M  V30 27 1 26 28
M  V30 28 1 27 29
M  V30 29 1 7 8
M  V30 30 1 14 15
M  V30 31 1 20 23
M  V30 32 1 21 22
M  V30 33 1 28 29
M  V30 END BOND
M  V30 END CTAB
M  END
>  <Compound ID>
153

>  <Name>
RBx10080307

>  <Uniprot>
P08069

>  <Target>
IGF-1R

>  <Smiles>
FC1=CN=C(NC2=CC=C(N3CCNCC3)C=C2)N=C1NC1=N[NH]C(C2CC2)=C1

>  <Kd (nM)>


>  <Assay (Kd)>


>  <Ki (nM)>


>  <Assay (Ki)>


>  <IC50 (nM)>
277

>  <Assay (IC50)>
IC50 of IGF-1R was tested using fluorescence based assay

>  <EC50 (nM)>


>  <Assay (EC50)>


>  <Article DOI>
10.1016/j.ejphar.2013.04.016

>  <Molecular Weight>
394.458

>  <Exact Mass>
394.202970956

>  <XLogP3>
2.72

>  <Heavy Atom Count>
29

>  <Ring Count>
5

>  <Hydrogen Bond Acceptor Count>
7

>  <Hydrogen Bond Donor Count>
4

>  <Rotatable Bond Count>
6

>  <Topological Polar Surface Area>
93.79

>  <Molecular Formula>
C20H23FN8

>  <InChI>
InChI=1S/C20H23FN8/c21-16-12-23-20(26-19(16)25-18-11-17(27-28-18)13-1-2-13)24-14-3-5-15(6-4-14)29-9-7-22-8-10-29/h3-6,11-13,22H,1-2,7-10H2,(H3,23,24,25,26,27,28)

>  <InChI Key>
BCKLNFVPSHTXDQ-UHFFFAOYSA-N

>  <BindingDB>


>  <PubChem>
71533699

>  <ChEMBL>


$$$$
Compound 501
Actelion Java MolfileCreator 2.0

  0  0  0  0  0  0              0 V3000
M  V30 BEGIN CTAB
M  V30 COUNTS 49 53 0 0 0
M  V30 BEGIN ATOM
M  V30 1 O 0.0 0.0 0.0 0
M  V30 2 C 1.2649 -0.7802 0.0 0
M  V30 3 N 2.5772 -0.0591 0.0 0
M  V30 4 C 1.2176 -2.2698 0.0 0
M  V30 5 C 2.6008 1.4541 0.0 0 CFG=2
M  V30 6 N 2.4826 -3.0501 0.0 0
M  V30 7 C -0.1182 -2.9673 0.0 0
M  V30 8 C 3.9131 2.1752 0.0 0
M  V30 9 C 1.3122 2.258 0.0 0
M  V30 10 C 2.4353 -4.5397 0.0 0
M  V30 11 N -0.1655 -4.4569 0.0 0
M  V30 12 O 3.9367 3.6885 0.0 0
M  V30 13 N 5.1781 1.395 0.0 0
M  V30 14 C 1.3359 3.7712 0.0 0
M  V30 15 C -0.0236 1.5605 0.0 0
M  V30 16 C 1.0994 -5.2372 0.0 0
M  V30 17 C 6.4903 2.1161 0.0 0 CFG=2
M  V30 18 C 0.0472 4.5751 0.0 0
M  V30 19 C -1.3122 2.3644 0.0 0
M  V30 20 C 7.7553 1.3359 0.0 0
M  V30 21 C 6.514 3.6294 0.0 0
M  V30 22 C -1.2886 3.8776 0.0 0
M  V30 23 O 9.0676 2.057 0.0 0
M  V30 24 N 7.708 -0.1536 0.0 0
M  V30 25 C 5.0007 3.6766 0.0 0
M  V30 26 C 8.0036 3.6057 0.0 0
M  V30 27 C 6.5376 5.1426 0.0 0
M  V30 28 C 8.8902 -1.0521 0.0 0 CFG=2
M  V30 29 C 6.4549 -0.993 0.0 0
M  V30 30 C 10.3207 -0.6147 0.0 0
M  V30 31 C 8.37 -2.459 0.0 0 CFG=2
M  V30 32 C 6.8686 -2.4235 0.0 0 CFG=1
M  V30 33 O 10.6635 0.8511 0.0 0
M  V30 34 N 11.3965 -1.6432 0.0 0
M  V30 35 C 8.7838 -3.8894 0.0 0
M  V30 36 C 6.3485 -3.8303 0.0 0
M  V30 37 C 12.827 -1.2058 0.0 0 CFG=2
M  V30 38 C 7.5307 -4.7288 0.0 0
M  V30 39 C 13.1698 0.2719 0.0 0
M  V30 40 C 13.9028 -2.2343 0.0 0
M  V30 41 O 12.0704 1.324 0.0 0
M  V30 42 C 14.6003 0.7093 0.0 0
M  V30 43 C 15.3333 -1.7969 0.0 0
M  V30 44 O 15.6761 -0.3191 0.0 0
M  V30 45 N 14.9432 2.1871 0.0 0
M  V30 46 C 16.4091 -2.8254 0.0 0
M  V30 47 C 16.3737 2.6245 0.0 0
M  V30 48 C 17.4022 3.7239 0.0 0
M  V30 49 C 17.816 2.2816 0.0 0
M  V30 END ATOM
M  V30 BEGIN BOND
M  V30 1 2 1 2
M  V30 2 1 2 3
M  V30 3 1 2 4
M  V30 4 1 5 3 CFG=1
M  V30 5 2 4 6
M  V30 6 1 4 7
M  V30 7 1 5 8
M  V30 8 1 5 9
M  V30 9 1 6 10
M  V30 10 2 7 11
M  V30 11 2 8 12
M  V30 12 1 8 13
M  V30 13 1 9 14
M  V30 14 1 9 15
M  V30 15 2 10 16
M  V30 16 1 17 13 CFG=1
M  V30 17 1 14 18
M  V30 18 1 15 19
M  V30 19 1 17 20
M  V30 20 1 17 21
M  V30 21 1 18 22
M  V30 22 2 20 23
M  V30 23 1 20 24
M  V30 24 1 21 25
M  V30 25 1 21 26
M  V30 26 1 21 27
M  V30 27 1 24 28
M  V30 28 1 24 29
M  V30 29 1 28 30 CFG=3
M  V30 30 1 28 31
M  V30 31 1 32 29 CFG=1
M  V30 32 2 30 33
M  V30 33 1 30 34
M  V30 34 1 31 35 CFG=1
M  V30 35 1 32 36
M  V30 36 1 37 34 CFG=3
M  V30 37 1 35 38
M  V30 38 1 37 39
M  V30 39 1 37 40
M  V30 40 2 39 41
M  V30 41 1 39 42
M  V30 42 1 40 43
M  V30 43 2 42 44
M  V30 44 1 42 45
M  V30 45 1 43 46
M  V30 46 1 45 47
M  V30 47 1 47 48
M  V30 48 1 47 49
M  V30 49 1 11 16
M  V30 50 1 19 22
M  V30 51 1 31 32
M  V30 52 1 36 38
M  V30 53 1 48 49
M  V30 END BOND
M  V30 BEGIN COLLECTION
M  V30 MDLV30/STEABS ATOMS=(6 5 17 28 31 32 37)
M  V30 END COLLECTION
M  V30 END CTAB
M  END
>  <Compound ID>
154

>  <Name>
Telaprevir

>  <Uniprot>


>  <Target>
NS3

>  <Smiles>
CCC[C@H](NC(=O)[C@@H]1[C@H]2CCC[C@H]2CN1C(=O)[C@@H](NC(=O)[C@@H](NC(=O)C1=CN=CC=N1)C1CCCCC1)C(C)(C)C)C(=O)C(=O)NC1CC1

>  <Kd (nM)>


>  <Assay (Kd)>


>  <Ki (nM)>


>  <Assay (Ki)>


>  <IC50 (nM)>
34

>  <Assay (IC50)>
Inhibition of NS3

>  <EC50 (nM)>


>  <Assay (EC50)>


>  <Article DOI>
10.1038/s41467-019-11429-w

>  <Molecular Weight>
679.863

>  <Exact Mass>
679.405732416

>  <XLogP3>
4.2

>  <Heavy Atom Count>
49

>  <Ring Count>
5

>  <Hydrogen Bond Acceptor Count>
8

>  <Hydrogen Bond Donor Count>
4

>  <Rotatable Bond Count>
13

>  <Topological Polar Surface Area>
179.56

>  <Molecular Formula>
C36H53N7O6

>  <InChI>
InChI=1S/C36H53N7O6/c1-5-10-25(29(44)34(48)39-23-15-16-23)40-33(47)28-24-14-9-13-22(24)20-43(28)35(49)30(36(2,3)4)42-32(46)27(21-11-7-6-8-12-21)41-31(45)26-19-37-17-18-38-26/h17-19,21-25,27-28,30H,5-16,20H2,1-4H3,(H,39,48)(H,40,47)(H,41,45)(H,42,46)/t22-,24-,25-,27-,28-,30+/m0/s1

>  <InChI Key>
BBAWEDCPNXPBQM-GDEBMMAJSA-N

>  <BindingDB>
50326056

>  <PubChem>
3010818

>  <ChEMBL>
CHEMBL231813

$$$$
Compound 502
Actelion Java MolfileCreator 2.0

  0  0  0  0  0  0              0 V3000
M  V30 BEGIN CTAB
M  V30 COUNTS 35 39 0 0 0
M  V30 BEGIN ATOM
M  V30 1 O 0.0 0.0 0.0 0
M  V30 2 C 0.8356 -1.2239 0.0 0
M  V30 3 N 0.1765 -2.5656 0.0 0
M  V30 4 C 2.3185 -1.1063 0.0 0
M  V30 5 C 0.8709 -3.872 0.0 0 CFG=2
M  V30 6 C -1.3063 -2.8246 0.0 0
M  V30 7 C 2.954 0.2589 0.0 0
M  V30 8 C 2.342 -4.0603 0.0 0
M  V30 9 C -0.1765 -4.943 0.0 0
M  V30 10 C -1.5182 -4.2957 0.0 0 CFG=2
M  V30 11 O 3.2483 -2.8599 0.0 0
M  V30 12 O 2.8952 -5.4373 0.0 0
M  V30 13 N -2.8481 -4.9901 0.0 0
M  V30 14 N -4.2133 -4.331 0.0 0
M  V30 15 C -3.0599 -6.4612 0.0 0
M  V30 16 C -5.2608 -5.402 0.0 0
M  V30 17 N -2.1066 -7.5911 0.0 0
M  V30 18 C -4.5429 -6.7202 0.0 0
M  V30 19 C -6.7555 -5.1902 0.0 0
M  V30 20 C -2.6245 -8.9916 0.0 0
M  V30 21 C -5.0607 -8.1207 0.0 0
M  V30 22 C -7.3322 -3.7896 0.0 0
M  V30 23 C -7.6852 -6.3671 0.0 0
M  V30 24 N -4.1074 -9.2506 0.0 0
M  V30 25 N -6.5436 -8.3796 0.0 0
M  V30 26 C -8.8269 -3.5778 0.0 0
M  V30 27 C -9.1799 -6.1552 0.0 0
M  V30 28 C -9.7566 -4.7547 0.0 0
M  V30 29 O -11.2513 -4.5429 0.0 0
M  V30 30 C -11.828 -3.1423 0.0 0
M  V30 31 C -10.9218 -1.9419 0.0 0
M  V30 32 C -13.3227 -2.9305 0.0 0
M  V30 33 C -11.4985 -0.5413 0.0 0
M  V30 34 C -13.8994 -1.5299 0.0 0
M  V30 35 C -12.9932 -0.3295 0.0 0
M  V30 END ATOM
M  V30 BEGIN BOND
M  V30 1 2 1 2
M  V30 2 1 2 3
M  V30 3 1 2 4
M  V30 4 1 3 5
M  V30 5 1 3 6
M  V30 6 2 4 7
M  V30 7 1 5 8 CFG=3
M  V30 8 1 5 9
M  V30 9 1 6 10
M  V30 10 2 8 11
M  V30 11 1 8 12
M  V30 12 1 10 13 CFG=3
M  V30 13 1 13 14
M  V30 14 1 13 15
M  V30 15 2 14 16
M  V30 16 2 15 17
M  V30 17 1 15 18
M  V30 18 1 16 19
M  V30 19 1 17 20
M  V30 20 2 18 21
M  V30 21 2 19 22
M  V30 22 1 19 23
M  V30 23 2 20 24
M  V30 24 1 21 25
M  V30 25 1 22 26
M  V30 26 2 23 27
M  V30 27 2 26 28
M  V30 28 1 28 29
M  V30 29 1 29 30
M  V30 30 2 30 31
M  V30 31 1 30 32
M  V30 32 1 31 33
M  V30 33 2 32 34
M  V30 34 2 33 35
M  V30 35 1 9 10
M  V30 36 1 16 18
M  V30 37 1 21 24
M  V30 38 1 27 28
M  V30 39 1 34 35
M  V30 END BOND
M  V30 BEGIN COLLECTION
M  V30 MDLV30/STEABS ATOMS=(2 5 10)
M  V30 END COLLECTION
M  V30 END CTAB
M  END
>  <Compound ID>
155

>  <Name>


>  <Uniprot>
Q06187

>  <Target>
BTK

>  <Smiles>
C=CC(=O)N1C[C@@H](N2N=C(C3=CC=C(OC4=CC=CC=C4)C=C3)C3=C(N)N=CN=C32)C[C@H]1C(=O)O

>  <Kd (nM)>


>  <Assay (Kd)>


>  <Ki (nM)>


>  <Assay (Ki)>


>  <IC50 (nM)>


>  <Assay (IC50)>


>  <EC50 (nM)>


>  <Assay (EC50)>


>  <Article DOI>
10.1039/c9cc08238g

>  <Molecular Weight>
470.489

>  <Exact Mass>
470.170253184

>  <XLogP3>
2.84

>  <Heavy Atom Count>
35

>  <Ring Count>
5

>  <Hydrogen Bond Acceptor Count>
8

>  <Hydrogen Bond Donor Count>
2

>  <Rotatable Bond Count>
6

>  <Topological Polar Surface Area>
136.46

>  <Molecular Formula>
C25H22N6O4

>  <InChI>
InChI=1S/C25H22N6O4/c1-2-20(32)30-13-16(12-19(30)25(33)34)31-24-21(23(26)27-14-28-24)22(29-31)15-8-10-18(11-9-15)35-17-6-4-3-5-7-17/h2-11,14,16,19H,1,12-13H2,(H,33,34)(H2,26,27,28)/t16-,19-/m0/s1

>  <InChI Key>
OEBKBBXJRZYDJA-LPHOPBHVSA-N

>  <BindingDB>


>  <PubChem>


>  <ChEMBL>


$$$$
Compound 503
Actelion Java MolfileCreator 2.0

  0  0  0  0  0  0              0 V3000
M  V30 BEGIN CTAB
M  V30 COUNTS 50 53 0 0 0
M  V30 BEGIN ATOM
M  V30 1 F 0.0 0.0 0.0 0
M  V30 2 C -1.5086 0.0 0.0 0
M  V30 3 F -1.5086 -1.4851 0.0 0
M  V30 4 F -1.5322 1.5086 0.0 0
M  V30 5 C -3.0173 0.0 0.0 0
M  V30 6 C -3.7952 1.2965 0.0 0
M  V30 7 C -3.7599 -1.2965 0.0 0
M  V30 8 C -5.3039 1.2965 0.0 0
M  V30 9 C -5.2686 -1.2965 0.0 0
M  V30 10 C -6.0818 2.593 0.0 0
M  V30 11 C -6.0465 0.0 0.0 0
M  V30 12 O -7.5905 2.593 0.0 0
M  V30 13 N -5.3629 3.9131 0.0 0
M  V30 14 C -6.1408 5.2096 0.0 0
M  V30 15 C -7.6495 5.2096 0.0 0
M  V30 16 C -5.4218 6.5297 0.0 0
M  V30 17 C -8.4274 6.5062 0.0 0
M  V30 18 C -6.1997 7.8263 0.0 0
M  V30 19 C -7.7084 7.8263 0.0 0
M  V30 20 C -9.9361 6.5062 0.0 0
M  V30 21 C -8.4863 9.1228 0.0 0
M  V30 22 O -10.6786 5.2096 0.0 0
M  V30 23 N -10.714 7.8027 0.0 0
M  V30 24 C -12.2227 7.8027 0.0 0
M  V30 25 C -12.9652 6.5062 0.0 0
M  V30 26 C -13.0006 9.0992 0.0 0
M  V30 27 N -14.4739 6.5062 0.0 0
M  V30 28 N -14.5093 9.0992 0.0 0
M  V30 29 C -15.2518 7.8027 0.0 0
M  V30 30 N -16.7605 7.8027 0.0 0
M  V30 31 C -17.5031 6.5062 0.0 0
M  V30 32 C -16.7487 5.2332 0.0 0
M  V30 33 C -19.0118 6.5062 0.0 0
M  V30 34 C -17.4913 3.9367 0.0 0
M  V30 35 C -19.7543 5.2096 0.0 0
M  V30 36 N -16.737 2.6637 0.0 0
M  V30 37 C -19.0 3.9367 0.0 0
M  V30 38 C -17.4795 1.3672 0.0 0
M  V30 39 O -18.9882 1.3672 0.0 0
M  V30 40 C -16.7252 0.0942 0.0 0 CFG=1
M  V30 41 N -15.2401 0.1178 0.0 0
M  V30 42 C -17.4677 -1.2022 0.0 0
M  V30 43 C -14.4857 -1.155 0.0 0
M  V30 44 C -16.7134 -2.4751 0.0 0
M  V30 45 O -15.2283 -2.4516 0.0 0
M  V30 46 C -13.0006 -1.1315 0.0 0
M  V30 47 C -17.4559 -3.7717 0.0 0
M  V30 48 C -12.2463 -2.4044 0.0 0
M  V30 49 O -18.9646 -3.7717 0.0 0
M  V30 50 O -16.7016 -5.0446 0.0 0
M  V30 END ATOM
M  V30 BEGIN BOND
M  V30 1 1 1 2
M  V30 2 1 2 3
M  V30 3 1 2 4
M  V30 4 1 2 5
M  V30 5 2 5 6
M  V30 6 1 5 7
M  V30 7 1 6 8
M  V30 8 2 7 9
M  V30 9 1 8 10
M  V30 10 2 8 11
M  V30 11 2 10 12
M  V30 12 1 10 13
M  V30 13 1 13 14
M  V30 14 2 14 15
M  V30 15 1 14 16
M  V30 16 1 15 17
M  V30 17 2 16 18
M  V30 18 2 17 19
M  V30 19 1 17 20
M  V30 20 1 19 21
M  V30 21 2 20 22
M  V30 22 1 20 23
M  V30 23 1 23 24
M  V30 24 2 24 25
M  V30 25 1 24 26
M  V30 26 1 25 27
M  V30 27 2 26 28
M  V30 28 2 27 29
M  V30 29 1 29 30
M  V30 30 1 30 31
M  V30 31 2 31 32
M  V30 32 1 31 33
M  V30 33 1 32 34
M  V30 34 2 33 35
M  V30 35 1 34 36
M  V30 36 2 34 37
M  V30 37 1 36 38
M  V30 38 2 38 39
M  V30 39 1 38 40
M  V30 40 1 40 41 CFG=1
M  V30 41 1 40 42
M  V30 42 1 41 43
M  V30 43 1 42 44
M  V30 44 2 43 45
M  V30 45 1 43 46
M  V30 46 1 44 47
M  V30 47 2 46 48
M  V30 48 2 47 49
M  V30 49 1 47 50
M  V30 50 1 9 11
M  V30 51 1 18 19
M  V30 52 1 28 29
M  V30 53 1 35 37
M  V30 END BOND
M  V30 BEGIN COLLECTION
M  V30 MDLV30/STEABS ATOMS=(1 40)
M  V30 END COLLECTION
M  V30 END CTAB
M  END
>  <Compound ID>
156

>  <Name>


>  <Uniprot>
Q06187

>  <Target>
BTK

>  <Smiles>
C=CC(=O)N[C@@H](CCC(=O)O)C(=O)NC1=CC=CC(NC2=NC=C(NC(=O)C3=CC(NC(=O)C4=CC=CC(C(F)(F)F)=C4)=CC=C3C)C=N2)=C1

>  <Kd (nM)>


>  <Assay (Kd)>


>  <Ki (nM)>


>  <Assay (Ki)>


>  <IC50 (nM)>


>  <Assay (IC50)>


>  <EC50 (nM)>


>  <Assay (EC50)>


>  <Article DOI>
10.1039/c9cc08238g

>  <Molecular Weight>
689.651

>  <Exact Mass>
689.22096634

>  <XLogP3>
4.0

>  <Heavy Atom Count>
50

>  <Ring Count>
4

>  <Hydrogen Bond Acceptor Count>
8

>  <Hydrogen Bond Donor Count>
6

>  <Rotatable Bond Count>
13

>  <Topological Polar Surface Area>
191.51

>  <Molecular Formula>
C34H30F3N7O6

>  <InChI>
InChI=1S/C34H30F3N7O6/c1-3-28(45)44-27(12-13-29(46)47)32(50)41-22-8-5-9-23(15-22)43-33-38-17-25(18-39-33)42-31(49)26-16-24(11-10-19(26)2)40-30(48)20-6-4-7-21(14-20)34(35,36)37/h3-11,14-18,27H,1,12-13H2,2H3,(H,40,48)(H,41,50)(H,42,49)(H,44,45)(H,46,47)(H,38,39,43)/t27-/m0/s1

>  <InChI Key>
PFELOLLEKCUTGE-MHZLTWQESA-N

>  <BindingDB>


>  <PubChem>
141726751

>  <ChEMBL>


$$$$
Compound 504
Actelion Java MolfileCreator 2.0

  0  0  0  0  0  0              0 V3000
M  V30 BEGIN CTAB
M  V30 COUNTS 35 39 0 0 0
M  V30 BEGIN ATOM
M  V30 1 O 0.0 0.0 0.0 0
M  V30 2 C -0.9276 -1.1741 0.0 0
M  V30 3 O -0.3757 -2.548 0.0 0
M  V30 4 C -2.4188 -0.9628 0.0 0 CFG=1
M  V30 5 N -3.135 0.364 0.0 0
M  V30 6 C -3.4638 -2.0313 0.0 0
M  V30 7 C -2.501 1.726 0.0 0
M  V30 8 C -4.6145 0.1056 0.0 0
M  V30 9 C -4.8259 -1.3738 0.0 0 CFG=1
M  V30 10 O -3.3581 2.9707 0.0 0
M  V30 11 C -1.0215 1.8434 0.0 0
M  V30 12 N -6.1527 -2.0665 0.0 0
M  V30 13 C -0.3874 3.2055 0.0 0
M  V30 14 N -7.5148 -1.409 0.0 0
M  V30 15 C -6.3641 -3.5343 0.0 0
M  V30 16 C -8.5598 -2.4775 0.0 0
M  V30 17 N -5.413 -4.6615 0.0 0
M  V30 18 C -7.8436 -3.7926 0.0 0
M  V30 19 C -10.0511 -2.2661 0.0 0
M  V30 20 C -5.9296 -6.0588 0.0 0
M  V30 21 C -8.3602 -5.1899 0.0 0
M  V30 22 C -10.6264 -0.8689 0.0 0
M  V30 23 C -10.9787 -3.4403 0.0 0
M  V30 24 N -7.4091 -6.3171 0.0 0
M  V30 25 N -9.8397 -5.4482 0.0 0
M  V30 26 C -12.1176 -0.6575 0.0 0
M  V30 27 C -12.4699 -3.229 0.0 0
M  V30 28 C -13.0452 -1.8317 0.0 0
M  V30 29 O -14.5365 -1.6203 0.0 0
M  V30 30 C -15.1118 -0.223 0.0 0
M  V30 31 C -14.2077 0.9745 0.0 0
M  V30 32 C -16.6031 -0.0117 0.0 0
M  V30 33 C -14.7831 2.3718 0.0 0
M  V30 34 C -17.1784 1.3855 0.0 0
M  V30 35 C -16.2743 2.5832 0.0 0
M  V30 END ATOM
M  V30 BEGIN BOND
M  V30 1 2 1 2
M  V30 2 1 2 3
M  V30 3 1 4 2 CFG=3
M  V30 4 1 4 5
M  V30 5 1 4 6
M  V30 6 1 5 7
M  V30 7 1 5 8
M  V30 8 1 6 9
M  V30 9 2 7 10
M  V30 10 1 7 11
M  V30 11 1 9 12 CFG=3
M  V30 12 1 11 13
M  V30 13 1 12 14
M  V30 14 1 12 15
M  V30 15 2 14 16
M  V30 16 2 15 17
M  V30 17 1 15 18
M  V30 18 1 16 19
M  V30 19 1 17 20
M  V30 20 2 18 21
M  V30 21 2 19 22
M  V30 22 1 19 23
M  V30 23 2 20 24
M  V30 24 1 21 25
M  V30 25 1 22 26
M  V30 26 2 23 27
M  V30 27 2 26 28
M  V30 28 1 28 29
M  V30 29 1 29 30
M  V30 30 2 30 31
M  V30 31 1 30 32
M  V30 32 1 31 33
M  V30 33 2 32 34
M  V30 34 2 33 35
M  V30 35 1 8 9
M  V30 36 1 16 18
M  V30 37 1 21 24
M  V30 38 1 27 28
M  V30 39 1 34 35
M  V30 END BOND
M  V30 BEGIN COLLECTION
M  V30 MDLV30/STEABS ATOMS=(2 4 9)
M  V30 END COLLECTION
M  V30 END CTAB
M  END
>  <Compound ID>
157

>  <Name>


>  <Uniprot>
Q06187

>  <Target>
BTK

>  <Smiles>
CCC(=O)N1C[C@@H](N2N=C(C3=CC=C(OC4=CC=CC=C4)C=C3)C3=C(N)N=CN=C32)C[C@H]1C(=O)O

>  <Kd (nM)>


>  <Assay (Kd)>


>  <Ki (nM)>


>  <Assay (Ki)>


>  <IC50 (nM)>


>  <Assay (IC50)>


>  <EC50 (nM)>


>  <Assay (EC50)>


>  <Article DOI>
10.1039/c9cc08238g

>  <Molecular Weight>
472.505

>  <Exact Mass>
472.185903248

>  <XLogP3>
2.72

>  <Heavy Atom Count>
35

>  <Ring Count>
5

>  <Hydrogen Bond Acceptor Count>
8

>  <Hydrogen Bond Donor Count>
2

>  <Rotatable Bond Count>
6

>  <Topological Polar Surface Area>
136.46

>  <Molecular Formula>
C25H24N6O4

>  <InChI>
InChI=1S/C25H24N6O4/c1-2-20(32)30-13-16(12-19(30)25(33)34)31-24-21(23(26)27-14-28-24)22(29-31)15-8-10-18(11-9-15)35-17-6-4-3-5-7-17/h3-11,14,16,19H,2,12-13H2,1H3,(H,33,34)(H2,26,27,28)/t16-,19-/m0/s1

>  <InChI Key>
KKJMQWAXKZUNIS-LPHOPBHVSA-N

>  <BindingDB>


>  <PubChem>


>  <ChEMBL>


$$$$
Compound 505
Actelion Java MolfileCreator 2.0

  0  0  0  0  0  0              0 V3000
M  V30 BEGIN CTAB
M  V30 COUNTS 50 53 0 0 0
M  V30 BEGIN ATOM
M  V30 1 F 0.0 0.0 0.0 0
M  V30 2 C -1.5086 0.0 0.0 0
M  V30 3 F -1.5086 -1.4851 0.0 0
M  V30 4 F -1.5322 1.5086 0.0 0
M  V30 5 C -3.0173 0.0 0.0 0
M  V30 6 C -3.7952 1.2965 0.0 0
M  V30 7 C -3.7599 -1.2965 0.0 0
M  V30 8 C -5.3039 1.2965 0.0 0
M  V30 9 C -5.2686 -1.2965 0.0 0
M  V30 10 C -6.0818 2.593 0.0 0
M  V30 11 C -6.0465 0.0 0.0 0
M  V30 12 O -7.5905 2.593 0.0 0
M  V30 13 N -5.3629 3.9131 0.0 0
M  V30 14 C -6.1408 5.2096 0.0 0
M  V30 15 C -7.6495 5.2096 0.0 0
M  V30 16 C -5.4218 6.5297 0.0 0
M  V30 17 C -8.4274 6.5062 0.0 0
M  V30 18 C -6.1997 7.8263 0.0 0
M  V30 19 C -7.7084 7.8263 0.0 0
M  V30 20 C -9.9361 6.5062 0.0 0
M  V30 21 C -8.4863 9.1228 0.0 0
M  V30 22 O -10.6786 5.2096 0.0 0
M  V30 23 N -10.714 7.8027 0.0 0
M  V30 24 C -12.2227 7.8027 0.0 0
M  V30 25 C -12.9652 6.5062 0.0 0
M  V30 26 C -13.0006 9.0992 0.0 0
M  V30 27 N -14.4739 6.5062 0.0 0
M  V30 28 N -14.5093 9.0992 0.0 0
M  V30 29 C -15.2518 7.8027 0.0 0
M  V30 30 N -16.7605 7.8027 0.0 0
M  V30 31 C -17.5031 6.5062 0.0 0
M  V30 32 C -16.7487 5.2332 0.0 0
M  V30 33 C -19.0118 6.5062 0.0 0
M  V30 34 C -17.4913 3.9367 0.0 0
M  V30 35 C -19.7543 5.2096 0.0 0
M  V30 36 N -16.737 2.6637 0.0 0
M  V30 37 C -19.0 3.9367 0.0 0
M  V30 38 C -17.4795 1.3672 0.0 0
M  V30 39 O -18.9882 1.3672 0.0 0
M  V30 40 C -16.7252 0.0942 0.0 0 CFG=1
M  V30 41 N -15.2401 0.1178 0.0 0
M  V30 42 C -17.4677 -1.2022 0.0 0
M  V30 43 C -14.4857 -1.155 0.0 0
M  V30 44 C -16.7134 -2.4751 0.0 0
M  V30 45 O -15.2283 -2.4516 0.0 0
M  V30 46 C -13.0006 -1.1315 0.0 0
M  V30 47 C -17.4559 -3.7717 0.0 0
M  V30 48 C -12.2463 -2.4044 0.0 0
M  V30 49 O -18.9646 -3.7717 0.0 0
M  V30 50 O -16.7016 -5.0446 0.0 0
M  V30 END ATOM
M  V30 BEGIN BOND
M  V30 1 1 1 2
M  V30 2 1 2 3
M  V30 3 1 2 4
M  V30 4 1 2 5
M  V30 5 2 5 6
M  V30 6 1 5 7
M  V30 7 1 6 8
M  V30 8 2 7 9
M  V30 9 1 8 10
M  V30 10 2 8 11
M  V30 11 2 10 12
M  V30 12 1 10 13
M  V30 13 1 13 14
M  V30 14 2 14 15
M  V30 15 1 14 16
M  V30 16 1 15 17
M  V30 17 2 16 18
M  V30 18 2 17 19
M  V30 19 1 17 20
M  V30 20 1 19 21
M  V30 21 2 20 22
M  V30 22 1 20 23
M  V30 23 1 23 24
M  V30 24 2 24 25
M  V30 25 1 24 26
M  V30 26 1 25 27
M  V30 27 2 26 28
M  V30 28 2 27 29
M  V30 29 1 29 30
M  V30 30 1 30 31
M  V30 31 2 31 32
M  V30 32 1 31 33
M  V30 33 1 32 34
M  V30 34 2 33 35
M  V30 35 1 34 36
M  V30 36 2 34 37
M  V30 37 1 36 38
M  V30 38 2 38 39
M  V30 39 1 38 40
M  V30 40 1 40 41 CFG=1
M  V30 41 1 40 42
M  V30 42 1 41 43
M  V30 43 1 42 44
M  V30 44 2 43 45
M  V30 45 1 43 46
M  V30 46 1 44 47
M  V30 47 1 46 48
M  V30 48 2 47 49
M  V30 49 1 47 50
M  V30 50 1 9 11
M  V30 51 1 18 19
M  V30 52 1 28 29
M  V30 53 1 35 37
M  V30 END BOND
M  V30 BEGIN COLLECTION
M  V30 MDLV30/STEABS ATOMS=(1 40)
M  V30 END COLLECTION
M  V30 END CTAB
M  END
>  <Compound ID>
158

>  <Name>


>  <Uniprot>
Q06187

>  <Target>
BTK

>  <Smiles>
CCC(=O)N[C@@H](CCC(=O)O)C(=O)NC1=CC=CC(NC2=NC=C(NC(=O)C3=CC(NC(=O)C4=CC=CC(C(F)(F)F)=C4)=CC=C3C)C=N2)=C1

>  <Kd (nM)>


>  <Assay (Kd)>


>  <Ki (nM)>


>  <Assay (Ki)>


>  <IC50 (nM)>


>  <Assay (IC50)>


>  <EC50 (nM)>


>  <Assay (EC50)>


>  <Article DOI>
10.1039/c9cc08238g

>  <Molecular Weight>
691.667

>  <Exact Mass>
691.236616404

>  <XLogP3>
3.88

>  <Heavy Atom Count>
50

>  <Ring Count>
4

>  <Hydrogen Bond Acceptor Count>
8

>  <Hydrogen Bond Donor Count>
6

>  <Rotatable Bond Count>
13

>  <Topological Polar Surface Area>
191.51

>  <Molecular Formula>
C34H32F3N7O6

>  <InChI>
InChI=1S/C34H32F3N7O6/c1-3-28(45)44-27(12-13-29(46)47)32(50)41-22-8-5-9-23(15-22)43-33-38-17-25(18-39-33)42-31(49)26-16-24(11-10-19(26)2)40-30(48)20-6-4-7-21(14-20)34(35,36)37/h4-11,14-18,27H,3,12-13H2,1-2H3,(H,40,48)(H,41,50)(H,42,49)(H,44,45)(H,46,47)(H,38,39,43)/t27-/m0/s1

>  <InChI Key>
OPAFQPQNGDHZOL-MHZLTWQESA-N

>  <BindingDB>


>  <PubChem>


>  <ChEMBL>


$$$$
Compound 506
Actelion Java MolfileCreator 2.0

  0  0  0  0  0  0              0 V3000
M  V30 BEGIN CTAB
M  V30 COUNTS 32 37 0 0 0
M  V30 BEGIN ATOM
M  V30 1 N 0.0 0.0 0.0 0
M  V30 2 C 1.2587 0.8193 0.0 0
M  V30 3 C 0.0474 -1.4962 0.0 0
M  V30 4 C 2.5886 0.1306 0.0 0
M  V30 5 C 1.3774 -2.1849 0.0 0
M  V30 6 C 2.6361 -1.3655 0.0 0
M  V30 7 C 3.8474 0.9499 0.0 0
M  V30 8 C 3.9661 -2.0543 0.0 0
M  V30 9 C 5.1773 0.2612 0.0 0
M  V30 10 C 5.2248 -1.2349 0.0 0
M  V30 11 C 6.436 1.0805 0.0 0 CFG=2
M  V30 12 C 7.8254 0.5343 0.0 0 CFG=2
M  V30 13 C 6.5192 2.6005 0.0 0
M  V30 14 C 8.7754 1.7099 0.0 0 CFG=1
M  V30 15 C 8.336 -0.8668 0.0 0
M  V30 16 C 6.7329 -0.5106 0.0 0
M  V30 17 C 7.9679 2.9924 0.0 0
M  V30 18 C 10.2478 1.4724 0.0 0 CFG=1
M  V30 19 C 9.8085 -1.1043 0.0 0
M  V30 20 C 10.7584 0.0712 0.0 0
M  V30 21 C 11.1978 2.648 0.0 0
M  V30 22 C 12.2309 -0.1662 0.0 0 CFG=2
M  V30 23 C 12.6703 2.4105 0.0 0
M  V30 24 C 13.1809 1.0093 0.0 0
M  V30 25 C 12.7415 -1.5674 0.0 0
M  V30 26 C 11.2572 -1.318 0.0 0
M  V30 27 C 14.6533 0.7718 0.0 0
M  V30 28 C 14.214 -1.8049 0.0 0
M  V30 29 C 15.164 -0.6293 0.0 0 CFG=2
M  V30 30 N 16.6364 -0.8668 0.0 0
M  V30 31 C 17.147 -2.268 0.0 0
M  V30 32 C 17.5864 0.3087 0.0 0
M  V30 END ATOM
M  V30 BEGIN BOND
M  V30 1 2 1 2
M  V30 2 1 1 3
M  V30 3 1 2 4
M  V30 4 2 3 5
M  V30 5 1 4 6
M  V30 6 2 4 7
M  V30 7 2 6 8
M  V30 8 1 7 9
M  V30 9 1 8 10
M  V30 10 1 11 9 CFG=1
M  V30 11 1 11 12
M  V30 12 1 11 13
M  V30 13 1 12 14
M  V30 14 1 12 15
M  V30 15 1 12 16 CFG=1
M  V30 16 1 13 17
M  V30 17 1 14 18
M  V30 18 1 15 19
M  V30 19 1 18 20
M  V30 20 1 18 21 CFG=3
M  V30 21 1 20 22
M  V30 22 1 21 23
M  V30 23 1 22 24
M  V30 24 1 22 25
M  V30 25 1 22 26 CFG=1
M  V30 26 1 24 27
M  V30 27 1 25 28
M  V30 28 1 27 29
M  V30 29 1 29 30 CFG=1
M  V30 30 1 30 31
M  V30 31 1 30 32
M  V30 32 1 5 6
M  V30 33 2 9 10
M  V30 34 1 14 17 CFG=1
M  V30 35 1 19 20
M  V30 36 2 23 24
M  V30 37 1 28 29
M  V30 END BOND
M  V30 BEGIN COLLECTION
M  V30 MDLV30/STEABS ATOMS=(6 11 12 14 18 22 29)
M  V30 END COLLECTION
M  V30 END CTAB
M  END
>  <Compound ID>
159

>  <Name>
JH-VIII-49

>  <Uniprot>
P49336

>  <Target>
CDK8

>  <Smiles>
CN(C)[C@H]1CC[C@@]2(C)C(=CC[C@@H]3C2CC[C@]2(C)[C@@H](C4=CC=C5C=CN=CC5=C4)CC[C@@H]32)C1

>  <Kd (nM)>


>  <Assay (Kd)>


>  <Ki (nM)>


>  <Assay (Ki)>


>  <IC50 (nM)>
16

>  <Assay (IC50)>
Inhibition of CDK8

>  <EC50 (nM)>


>  <Assay (EC50)>


>  <Article DOI>
10.1021/acsmedchemlett.8b00011

>  <Molecular Weight>
428.664

>  <Exact Mass>
428.31914928

>  <XLogP3>
7.19

>  <Heavy Atom Count>
32

>  <Ring Count>
6

>  <Hydrogen Bond Acceptor Count>
2

>  <Hydrogen Bond Donor Count>
0

>  <Rotatable Bond Count>
2

>  <Topological Polar Surface Area>
16.13

>  <Molecular Formula>
C30H40N2

>  <InChI>
InChI=1S/C30H40N2/c1-29-14-11-24(32(3)4)18-23(29)7-8-25-27-10-9-26(30(27,2)15-12-28(25)29)21-6-5-20-13-16-31-19-22(20)17-21/h5-7,13,16-17,19,24-28H,8-12,14-15,18H2,1-4H3/t24-,25-,26+,27-,28?,29-,30+/m0/s1

>  <InChI Key>
IWZSHWBGHQBIML-ZGGLMWTQSA-N

>  <BindingDB>


>  <PubChem>
133081964

>  <ChEMBL>
CHEMBL4167193

$$$$
Compound 507
Actelion Java MolfileCreator 2.0

  0  0  0  0  0  0              0 V3000
M  V30 BEGIN CTAB
M  V30 COUNTS 33 37 0 0 0
M  V30 BEGIN ATOM
M  V30 1 O 0.0 0.0 0.0 0
M  V30 2 C 1.2604 -0.7892 0.0 0
M  V30 3 N 1.1897 -2.2734 0.0 0
M  V30 4 C 2.5679 -0.0824 0.0 0
M  V30 5 C -0.1413 -2.9566 0.0 0
M  V30 6 C 2.4501 -3.0626 0.0 0
M  V30 7 C 2.615 1.4253 0.0 0
M  V30 8 C -0.212 -4.4408 0.0 0 CFG=2
M  V30 9 C 2.3794 -4.5468 0.0 0
M  V30 10 N -1.5431 -5.124 0.0 0
M  V30 11 C 1.0483 -5.23 0.0 0
M  V30 12 N -2.8977 -4.4526 0.0 0
M  V30 13 C -1.7669 -6.5965 0.0 0
M  V30 14 C -3.9579 -5.5128 0.0 0
M  V30 15 N -0.8245 -7.7391 0.0 0
M  V30 16 C -3.2511 -6.8438 0.0 0
M  V30 17 C -5.4539 -5.2889 0.0 0
M  V30 18 C -1.3546 -9.1291 0.0 0
M  V30 19 C -3.7812 -8.2338 0.0 0
M  V30 20 C -6.0193 -3.8872 0.0 0
M  V30 21 C -6.3962 -6.4551 0.0 0
M  V30 22 N -2.8388 -9.3764 0.0 0
M  V30 23 N -5.2654 -8.4812 0.0 0
M  V30 24 C -7.5153 -3.6634 0.0 0
M  V30 25 C -7.8922 -6.2313 0.0 0
M  V30 26 C -8.4576 -4.8295 0.0 0
M  V30 27 O -9.9536 -4.6057 0.0 0
M  V30 28 C -10.519 -3.204 0.0 0
M  V30 29 C -9.6002 -2.0142 0.0 0
M  V30 30 C -12.015 -2.9802 0.0 0
M  V30 31 C -10.1657 -0.6125 0.0 0
M  V30 32 C -12.5805 -1.5784 0.0 0
M  V30 33 C -11.6617 -0.3887 0.0 0
M  V30 END ATOM
M  V30 BEGIN BOND
M  V30 1 2 1 2
M  V30 2 1 2 3
M  V30 3 1 2 4
M  V30 4 1 3 5
M  V30 5 1 3 6
M  V30 6 2 4 7
M  V30 7 1 5 8
M  V30 8 1 6 9
M  V30 9 1 8 10 CFG=1
M  V30 10 1 8 11
M  V30 11 1 10 12
M  V30 12 1 10 13
M  V30 13 2 12 14
M  V30 14 2 13 15
M  V30 15 1 13 16
M  V30 16 1 14 17
M  V30 17 1 15 18
M  V30 18 2 16 19
M  V30 19 2 17 20
M  V30 20 1 17 21
M  V30 21 2 18 22
M  V30 22 1 19 23
M  V30 23 1 20 24
M  V30 24 2 21 25
M  V30 25 2 24 26
M  V30 26 1 26 27
M  V30 27 1 27 28
M  V30 28 2 28 29
M  V30 29 1 28 30
M  V30 30 1 29 31
M  V30 31 2 30 32
M  V30 32 2 31 33
M  V30 33 1 9 11
M  V30 34 1 14 16
M  V30 35 1 19 22
M  V30 36 1 25 26
M  V30 37 1 32 33
M  V30 END BOND
M  V30 BEGIN COLLECTION
M  V30 MDLV30/STEABS ATOMS=(1 8)
M  V30 END COLLECTION
M  V30 END CTAB
M  END
>  <Compound ID>
160

>  <Name>
Ibrutinib

>  <Uniprot>
P42684

>  <Target>
ABL2

>  <Smiles>
C=CC(=O)N1CCC[C@@H](N2N=C(C3=CC=C(OC4=CC=CC=C4)C=C3)C3=C(N)N=CN=C32)C1

>  <Kd (nM)>
919

>  <Assay (Kd)>
Kd apparent of ABL2

>  <Ki (nM)>


>  <Assay (Ki)>


>  <IC50 (nM)>


>  <Assay (IC50)>


>  <EC50 (nM)>


>  <Assay (EC50)>


>  <Article DOI>
10.1126/science.aan4368

>  <Molecular Weight>
440.507

>  <Exact Mass>
440.196074008

>  <XLogP3>
3.57

>  <Heavy Atom Count>
33

>  <Ring Count>
5

>  <Hydrogen Bond Acceptor Count>
7

>  <Hydrogen Bond Donor Count>
1

>  <Rotatable Bond Count>
5

>  <Topological Polar Surface Area>
99.16

>  <Molecular Formula>
C25H24N6O2

>  <InChI>
InChI=1S/C25H24N6O2/c1-2-21(32)30-14-6-7-18(15-30)31-25-22(24(26)27-16-28-25)23(29-31)17-10-12-20(13-11-17)33-19-8-4-3-5-9-19/h2-5,8-13,16,18H,1,6-7,14-15H2,(H2,26,27,28)/t18-/m1/s1

>  <InChI Key>
XYFPWWZEPKGCCK-GOSISDBHSA-N

>  <BindingDB>
50357312

>  <PubChem>
24821094

>  <ChEMBL>
CHEMBL1873475

$$$$
Compound 508
Actelion Java MolfileCreator 2.0

  0  0  0  0  0  0              0 V3000
M  V30 BEGIN CTAB
M  V30 COUNTS 33 37 0 0 0
M  V30 BEGIN ATOM
M  V30 1 O 0.0 0.0 0.0 0
M  V30 2 C 1.2604 -0.7892 0.0 0
M  V30 3 N 1.1897 -2.2734 0.0 0
M  V30 4 C 2.5679 -0.0824 0.0 0
M  V30 5 C -0.1413 -2.9566 0.0 0
M  V30 6 C 2.4501 -3.0626 0.0 0
M  V30 7 C 2.615 1.4253 0.0 0
M  V30 8 C -0.212 -4.4408 0.0 0 CFG=2
M  V30 9 C 2.3794 -4.5468 0.0 0
M  V30 10 N -1.5431 -5.124 0.0 0
M  V30 11 C 1.0483 -5.23 0.0 0
M  V30 12 N -2.8977 -4.4526 0.0 0
M  V30 13 C -1.7669 -6.5965 0.0 0
M  V30 14 C -3.9579 -5.5128 0.0 0
M  V30 15 N -0.8245 -7.7391 0.0 0
M  V30 16 C -3.2511 -6.8438 0.0 0
M  V30 17 C -5.4539 -5.2889 0.0 0
M  V30 18 C -1.3546 -9.1291 0.0 0
M  V30 19 C -3.7812 -8.2338 0.0 0
M  V30 20 C -6.0193 -3.8872 0.0 0
M  V30 21 C -6.3962 -6.4551 0.0 0
M  V30 22 N -2.8388 -9.3764 0.0 0
M  V30 23 N -5.2654 -8.4812 0.0 0
M  V30 24 C -7.5153 -3.6634 0.0 0
M  V30 25 C -7.8922 -6.2313 0.0 0
M  V30 26 C -8.4576 -4.8295 0.0 0
M  V30 27 O -9.9536 -4.6057 0.0 0
M  V30 28 C -10.519 -3.204 0.0 0
M  V30 29 C -9.6002 -2.0142 0.0 0
M  V30 30 C -12.015 -2.9802 0.0 0
M  V30 31 C -10.1657 -0.6125 0.0 0
M  V30 32 C -12.5805 -1.5784 0.0 0
M  V30 33 C -11.6617 -0.3887 0.0 0
M  V30 END ATOM
M  V30 BEGIN BOND
M  V30 1 2 1 2
M  V30 2 1 2 3
M  V30 3 1 2 4
M  V30 4 1 3 5
M  V30 5 1 3 6
M  V30 6 2 4 7
M  V30 7 1 5 8
M  V30 8 1 6 9
M  V30 9 1 8 10 CFG=1
M  V30 10 1 8 11
M  V30 11 1 10 12
M  V30 12 1 10 13
M  V30 13 2 12 14
M  V30 14 2 13 15
M  V30 15 1 13 16
M  V30 16 1 14 17
M  V30 17 1 15 18
M  V30 18 2 16 19
M  V30 19 2 17 20
M  V30 20 1 17 21
M  V30 21 2 18 22
M  V30 22 1 19 23
M  V30 23 1 20 24
M  V30 24 2 21 25
M  V30 25 2 24 26
M  V30 26 1 26 27
M  V30 27 1 27 28
M  V30 28 2 28 29
M  V30 29 1 28 30
M  V30 30 1 29 31
M  V30 31 2 30 32
M  V30 32 2 31 33
M  V30 33 1 9 11
M  V30 34 1 14 16
M  V30 35 1 19 22
M  V30 36 1 25 26
M  V30 37 1 32 33
M  V30 END BOND
M  V30 BEGIN COLLECTION
M  V30 MDLV30/STEABS ATOMS=(1 8)
M  V30 END COLLECTION
M  V30 END CTAB
M  END
>  <Compound ID>
160

>  <Name>
Ibrutinib

>  <Uniprot>
P51451

>  <Target>
BLK

>  <Smiles>
C=CC(=O)N1CCC[C@@H](N2N=C(C3=CC=C(OC4=CC=CC=C4)C=C3)C3=C(N)N=CN=C32)C1

>  <Kd (nM)>


>  <Assay (Kd)>


>  <Ki (nM)>


>  <Assay (Ki)>


>  <IC50 (nM)>
0.23

>  <Assay (IC50)>
Inhibition of BLK

>  <EC50 (nM)>


>  <Assay (EC50)>


>  <Article DOI>
10.1021/acs.jmedchem.9b00687

>  <Molecular Weight>
440.507

>  <Exact Mass>
440.196074008

>  <XLogP3>
3.57

>  <Heavy Atom Count>
33

>  <Ring Count>
5

>  <Hydrogen Bond Acceptor Count>
7

>  <Hydrogen Bond Donor Count>
1

>  <Rotatable Bond Count>
5

>  <Topological Polar Surface Area>
99.16

>  <Molecular Formula>
C25H24N6O2

>  <InChI>
InChI=1S/C25H24N6O2/c1-2-21(32)30-14-6-7-18(15-30)31-25-22(24(26)27-16-28-25)23(29-31)17-10-12-20(13-11-17)33-19-8-4-3-5-9-19/h2-5,8-13,16,18H,1,6-7,14-15H2,(H2,26,27,28)/t18-/m1/s1

>  <InChI Key>
XYFPWWZEPKGCCK-GOSISDBHSA-N

>  <BindingDB>
50357312

>  <PubChem>
24821094

>  <ChEMBL>
CHEMBL1873475

$$$$
Compound 509
Actelion Java MolfileCreator 2.0

  0  0  0  0  0  0              0 V3000
M  V30 BEGIN CTAB
M  V30 COUNTS 33 37 0 0 0
M  V30 BEGIN ATOM
M  V30 1 O 0.0 0.0 0.0 0
M  V30 2 C 1.2604 -0.7892 0.0 0
M  V30 3 N 1.1897 -2.2734 0.0 0
M  V30 4 C 2.5679 -0.0824 0.0 0
M  V30 5 C -0.1413 -2.9566 0.0 0
M  V30 6 C 2.4501 -3.0626 0.0 0
M  V30 7 C 2.615 1.4253 0.0 0
M  V30 8 C -0.212 -4.4408 0.0 0 CFG=2
M  V30 9 C 2.3794 -4.5468 0.0 0
M  V30 10 N -1.5431 -5.124 0.0 0
M  V30 11 C 1.0483 -5.23 0.0 0
M  V30 12 N -2.8977 -4.4526 0.0 0
M  V30 13 C -1.7669 -6.5965 0.0 0
M  V30 14 C -3.9579 -5.5128 0.0 0
M  V30 15 N -0.8245 -7.7391 0.0 0
M  V30 16 C -3.2511 -6.8438 0.0 0
M  V30 17 C -5.4539 -5.2889 0.0 0
M  V30 18 C -1.3546 -9.1291 0.0 0
M  V30 19 C -3.7812 -8.2338 0.0 0
M  V30 20 C -6.0193 -3.8872 0.0 0
M  V30 21 C -6.3962 -6.4551 0.0 0
M  V30 22 N -2.8388 -9.3764 0.0 0
M  V30 23 N -5.2654 -8.4812 0.0 0
M  V30 24 C -7.5153 -3.6634 0.0 0
M  V30 25 C -7.8922 -6.2313 0.0 0
M  V30 26 C -8.4576 -4.8295 0.0 0
M  V30 27 O -9.9536 -4.6057 0.0 0
M  V30 28 C -10.519 -3.204 0.0 0
M  V30 29 C -9.6002 -2.0142 0.0 0
M  V30 30 C -12.015 -2.9802 0.0 0
M  V30 31 C -10.1657 -0.6125 0.0 0
M  V30 32 C -12.5805 -1.5784 0.0 0
M  V30 33 C -11.6617 -0.3887 0.0 0
M  V30 END ATOM
M  V30 BEGIN BOND
M  V30 1 2 1 2
M  V30 2 1 2 3
M  V30 3 1 2 4
M  V30 4 1 3 5
M  V30 5 1 3 6
M  V30 6 2 4 7
M  V30 7 1 5 8
M  V30 8 1 6 9
M  V30 9 1 8 10 CFG=1
M  V30 10 1 8 11
M  V30 11 1 10 12
M  V30 12 1 10 13
M  V30 13 2 12 14
M  V30 14 2 13 15
M  V30 15 1 13 16
M  V30 16 1 14 17
M  V30 17 1 15 18
M  V30 18 2 16 19
M  V30 19 2 17 20
M  V30 20 1 17 21
M  V30 21 2 18 22
M  V30 22 1 19 23
M  V30 23 1 20 24
M  V30 24 2 21 25
M  V30 25 2 24 26
M  V30 26 1 26 27
M  V30 27 1 27 28
M  V30 28 2 28 29
M  V30 29 1 28 30
M  V30 30 1 29 31
M  V30 31 2 30 32
M  V30 32 2 31 33
M  V30 33 1 9 11
M  V30 34 1 14 16
M  V30 35 1 19 22
M  V30 36 1 25 26
M  V30 37 1 32 33
M  V30 END BOND
M  V30 BEGIN COLLECTION
M  V30 MDLV30/STEABS ATOMS=(1 8)
M  V30 END COLLECTION
M  V30 END CTAB
M  END
>  <Compound ID>
160

>  <Name>
Ibrutinib

>  <Uniprot>
Q06187

>  <Target>
BTK

>  <Smiles>
C=CC(=O)N1CCC[C@@H](N2N=C(C3=CC=C(OC4=CC=CC=C4)C=C3)C3=C(N)N=CN=C32)C1

>  <Kd (nM)>


>  <Assay (Kd)>


>  <Ki (nM)>


>  <Assay (Ki)>


>  <IC50 (nM)>
11

>  <Assay (IC50)>
Inhibit autophosphorylation of BTK

>  <EC50 (nM)>


>  <Assay (EC50)>


>  <Article DOI>
10.1073/pnas.1004594107

>  <Molecular Weight>
440.507

>  <Exact Mass>
440.196074008

>  <XLogP3>
3.57

>  <Heavy Atom Count>
33

>  <Ring Count>
5

>  <Hydrogen Bond Acceptor Count>
7

>  <Hydrogen Bond Donor Count>
1

>  <Rotatable Bond Count>
5

>  <Topological Polar Surface Area>
99.16

>  <Molecular Formula>
C25H24N6O2

>  <InChI>
InChI=1S/C25H24N6O2/c1-2-21(32)30-14-6-7-18(15-30)31-25-22(24(26)27-16-28-25)23(29-31)17-10-12-20(13-11-17)33-19-8-4-3-5-9-19/h2-5,8-13,16,18H,1,6-7,14-15H2,(H2,26,27,28)/t18-/m1/s1

>  <InChI Key>
XYFPWWZEPKGCCK-GOSISDBHSA-N

>  <BindingDB>
50357312

>  <PubChem>
24821094

>  <ChEMBL>
CHEMBL1873475

$$$$
Compound 510
Actelion Java MolfileCreator 2.0

  0  0  0  0  0  0              0 V3000
M  V30 BEGIN CTAB
M  V30 COUNTS 33 37 0 0 0
M  V30 BEGIN ATOM
M  V30 1 O 0.0 0.0 0.0 0
M  V30 2 C 1.2604 -0.7892 0.0 0
M  V30 3 N 1.1897 -2.2734 0.0 0
M  V30 4 C 2.5679 -0.0824 0.0 0
M  V30 5 C -0.1413 -2.9566 0.0 0
M  V30 6 C 2.4501 -3.0626 0.0 0
M  V30 7 C 2.615 1.4253 0.0 0
M  V30 8 C -0.212 -4.4408 0.0 0 CFG=2
M  V30 9 C 2.3794 -4.5468 0.0 0
M  V30 10 N -1.5431 -5.124 0.0 0
M  V30 11 C 1.0483 -5.23 0.0 0
M  V30 12 N -2.8977 -4.4526 0.0 0
M  V30 13 C -1.7669 -6.5965 0.0 0
M  V30 14 C -3.9579 -5.5128 0.0 0
M  V30 15 N -0.8245 -7.7391 0.0 0
M  V30 16 C -3.2511 -6.8438 0.0 0
M  V30 17 C -5.4539 -5.2889 0.0 0
M  V30 18 C -1.3546 -9.1291 0.0 0
M  V30 19 C -3.7812 -8.2338 0.0 0
M  V30 20 C -6.0193 -3.8872 0.0 0
M  V30 21 C -6.3962 -6.4551 0.0 0
M  V30 22 N -2.8388 -9.3764 0.0 0
M  V30 23 N -5.2654 -8.4812 0.0 0
M  V30 24 C -7.5153 -3.6634 0.0 0
M  V30 25 C -7.8922 -6.2313 0.0 0
M  V30 26 C -8.4576 -4.8295 0.0 0
M  V30 27 O -9.9536 -4.6057 0.0 0
M  V30 28 C -10.519 -3.204 0.0 0
M  V30 29 C -9.6002 -2.0142 0.0 0
M  V30 30 C -12.015 -2.9802 0.0 0
M  V30 31 C -10.1657 -0.6125 0.0 0
M  V30 32 C -12.5805 -1.5784 0.0 0
M  V30 33 C -11.6617 -0.3887 0.0 0
M  V30 END ATOM
M  V30 BEGIN BOND
M  V30 1 2 1 2
M  V30 2 1 2 3
M  V30 3 1 2 4
M  V30 4 1 3 5
M  V30 5 1 3 6
M  V30 6 2 4 7
M  V30 7 1 5 8
M  V30 8 1 6 9
M  V30 9 1 8 10 CFG=1
M  V30 10 1 8 11
M  V30 11 1 10 12
M  V30 12 1 10 13
M  V30 13 2 12 14
M  V30 14 2 13 15
M  V30 15 1 13 16
M  V30 16 1 14 17
M  V30 17 1 15 18
M  V30 18 2 16 19
M  V30 19 2 17 20
M  V30 20 1 17 21
M  V30 21 2 18 22
M  V30 22 1 19 23
M  V30 23 1 20 24
M  V30 24 2 21 25
M  V30 25 2 24 26
M  V30 26 1 26 27
M  V30 27 1 27 28
M  V30 28 2 28 29
M  V30 29 1 28 30
M  V30 30 1 29 31
M  V30 31 2 30 32
M  V30 32 2 31 33
M  V30 33 1 9 11
M  V30 34 1 14 16
M  V30 35 1 19 22
M  V30 36 1 25 26
M  V30 37 1 32 33
M  V30 END BOND
M  V30 BEGIN COLLECTION
M  V30 MDLV30/STEABS ATOMS=(1 8)
M  V30 END COLLECTION
M  V30 END CTAB
M  END
>  <Compound ID>
160

>  <Name>
Ibrutinib

>  <Uniprot>
P41240

>  <Target>
CSK

>  <Smiles>
C=CC(=O)N1CCC[C@@H](N2N=C(C3=CC=C(OC4=CC=CC=C4)C=C3)C3=C(N)N=CN=C32)C1

>  <Kd (nM)>


>  <Assay (Kd)>


>  <Ki (nM)>


>  <Assay (Ki)>


>  <IC50 (nM)>
2.2

>  <Assay (IC50)>
IC50 was assessed by the in vitro HotSpot kinase assay

>  <EC50 (nM)>


>  <Assay (EC50)>


>  <Article DOI>


>  <Molecular Weight>
440.507

>  <Exact Mass>
440.196074008

>  <XLogP3>
3.57

>  <Heavy Atom Count>
33

>  <Ring Count>
5

>  <Hydrogen Bond Acceptor Count>
7

>  <Hydrogen Bond Donor Count>
1

>  <Rotatable Bond Count>
5

>  <Topological Polar Surface Area>
99.16

>  <Molecular Formula>
C25H24N6O2

>  <InChI>
InChI=1S/C25H24N6O2/c1-2-21(32)30-14-6-7-18(15-30)31-25-22(24(26)27-16-28-25)23(29-31)17-10-12-20(13-11-17)33-19-8-4-3-5-9-19/h2-5,8-13,16,18H,1,6-7,14-15H2,(H2,26,27,28)/t18-/m1/s1

>  <InChI Key>
XYFPWWZEPKGCCK-GOSISDBHSA-N

>  <BindingDB>
50357312

>  <PubChem>
24821094

>  <ChEMBL>
CHEMBL1873475

$$$$
Compound 511
Actelion Java MolfileCreator 2.0

  0  0  0  0  0  0              0 V3000
M  V30 BEGIN CTAB
M  V30 COUNTS 33 37 0 0 0
M  V30 BEGIN ATOM
M  V30 1 O 0.0 0.0 0.0 0
M  V30 2 C 1.2604 -0.7892 0.0 0
M  V30 3 N 1.1897 -2.2734 0.0 0
M  V30 4 C 2.5679 -0.0824 0.0 0
M  V30 5 C -0.1413 -2.9566 0.0 0
M  V30 6 C 2.4501 -3.0626 0.0 0
M  V30 7 C 2.615 1.4253 0.0 0
M  V30 8 C -0.212 -4.4408 0.0 0 CFG=2
M  V30 9 C 2.3794 -4.5468 0.0 0
M  V30 10 N -1.5431 -5.124 0.0 0
M  V30 11 C 1.0483 -5.23 0.0 0
M  V30 12 N -2.8977 -4.4526 0.0 0
M  V30 13 C -1.7669 -6.5965 0.0 0
M  V30 14 C -3.9579 -5.5128 0.0 0
M  V30 15 N -0.8245 -7.7391 0.0 0
M  V30 16 C -3.2511 -6.8438 0.0 0
M  V30 17 C -5.4539 -5.2889 0.0 0
M  V30 18 C -1.3546 -9.1291 0.0 0
M  V30 19 C -3.7812 -8.2338 0.0 0
M  V30 20 C -6.0193 -3.8872 0.0 0
M  V30 21 C -6.3962 -6.4551 0.0 0
M  V30 22 N -2.8388 -9.3764 0.0 0
M  V30 23 N -5.2654 -8.4812 0.0 0
M  V30 24 C -7.5153 -3.6634 0.0 0
M  V30 25 C -7.8922 -6.2313 0.0 0
M  V30 26 C -8.4576 -4.8295 0.0 0
M  V30 27 O -9.9536 -4.6057 0.0 0
M  V30 28 C -10.519 -3.204 0.0 0
M  V30 29 C -9.6002 -2.0142 0.0 0
M  V30 30 C -12.015 -2.9802 0.0 0
M  V30 31 C -10.1657 -0.6125 0.0 0
M  V30 32 C -12.5805 -1.5784 0.0 0
M  V30 33 C -11.6617 -0.3887 0.0 0
M  V30 END ATOM
M  V30 BEGIN BOND
M  V30 1 2 1 2
M  V30 2 1 2 3
M  V30 3 1 2 4
M  V30 4 1 3 5
M  V30 5 1 3 6
M  V30 6 2 4 7
M  V30 7 1 5 8
M  V30 8 1 6 9
M  V30 9 1 8 10 CFG=1
M  V30 10 1 8 11
M  V30 11 1 10 12
M  V30 12 1 10 13
M  V30 13 2 12 14
M  V30 14 2 13 15
M  V30 15 1 13 16
M  V30 16 1 14 17
M  V30 17 1 15 18
M  V30 18 2 16 19
M  V30 19 2 17 20
M  V30 20 1 17 21
M  V30 21 2 18 22
M  V30 22 1 19 23
M  V30 23 1 20 24
M  V30 24 2 21 25
M  V30 25 2 24 26
M  V30 26 1 26 27
M  V30 27 1 27 28
M  V30 28 2 28 29
M  V30 29 1 28 30
M  V30 30 1 29 31
M  V30 31 2 30 32
M  V30 32 2 31 33
M  V30 33 1 9 11
M  V30 34 1 14 16
M  V30 35 1 19 22
M  V30 36 1 25 26
M  V30 37 1 32 33
M  V30 END BOND
M  V30 BEGIN COLLECTION
M  V30 MDLV30/STEABS ATOMS=(1 8)
M  V30 END COLLECTION
M  V30 END CTAB
M  END
>  <Compound ID>
160

>  <Name>
Ibrutinib

>  <Uniprot>
P06241

>  <Target>
FYN

>  <Smiles>
C=CC(=O)N1CCC[C@@H](N2N=C(C3=CC=C(OC4=CC=CC=C4)C=C3)C3=C(N)N=CN=C32)C1

>  <Kd (nM)>


>  <Assay (Kd)>


>  <Ki (nM)>


>  <Assay (Ki)>


>  <IC50 (nM)>
95.6

>  <Assay (IC50)>
IC50 was assessed by the in vitro HotSpot kinase assay

>  <EC50 (nM)>


>  <Assay (EC50)>


>  <Article DOI>


>  <Molecular Weight>
440.507

>  <Exact Mass>
440.196074008

>  <XLogP3>
3.57

>  <Heavy Atom Count>
33

>  <Ring Count>
5

>  <Hydrogen Bond Acceptor Count>
7

>  <Hydrogen Bond Donor Count>
1

>  <Rotatable Bond Count>
5

>  <Topological Polar Surface Area>
99.16

>  <Molecular Formula>
C25H24N6O2

>  <InChI>
InChI=1S/C25H24N6O2/c1-2-21(32)30-14-6-7-18(15-30)31-25-22(24(26)27-16-28-25)23(29-31)17-10-12-20(13-11-17)33-19-8-4-3-5-9-19/h2-5,8-13,16,18H,1,6-7,14-15H2,(H2,26,27,28)/t18-/m1/s1

>  <InChI Key>
XYFPWWZEPKGCCK-GOSISDBHSA-N

>  <BindingDB>
50357312

>  <PubChem>
24821094

>  <ChEMBL>
CHEMBL1873475

$$$$
Compound 512
Actelion Java MolfileCreator 2.0

  0  0  0  0  0  0              0 V3000
M  V30 BEGIN CTAB
M  V30 COUNTS 33 37 0 0 0
M  V30 BEGIN ATOM
M  V30 1 O 0.0 0.0 0.0 0
M  V30 2 C 1.2604 -0.7892 0.0 0
M  V30 3 N 1.1897 -2.2734 0.0 0
M  V30 4 C 2.5679 -0.0824 0.0 0
M  V30 5 C -0.1413 -2.9566 0.0 0
M  V30 6 C 2.4501 -3.0626 0.0 0
M  V30 7 C 2.615 1.4253 0.0 0
M  V30 8 C -0.212 -4.4408 0.0 0 CFG=2
M  V30 9 C 2.3794 -4.5468 0.0 0
M  V30 10 N -1.5431 -5.124 0.0 0
M  V30 11 C 1.0483 -5.23 0.0 0
M  V30 12 N -2.8977 -4.4526 0.0 0
M  V30 13 C -1.7669 -6.5965 0.0 0
M  V30 14 C -3.9579 -5.5128 0.0 0
M  V30 15 N -0.8245 -7.7391 0.0 0
M  V30 16 C -3.2511 -6.8438 0.0 0
M  V30 17 C -5.4539 -5.2889 0.0 0
M  V30 18 C -1.3546 -9.1291 0.0 0
M  V30 19 C -3.7812 -8.2338 0.0 0
M  V30 20 C -6.0193 -3.8872 0.0 0
M  V30 21 C -6.3962 -6.4551 0.0 0
M  V30 22 N -2.8388 -9.3764 0.0 0
M  V30 23 N -5.2654 -8.4812 0.0 0
M  V30 24 C -7.5153 -3.6634 0.0 0
M  V30 25 C -7.8922 -6.2313 0.0 0
M  V30 26 C -8.4576 -4.8295 0.0 0
M  V30 27 O -9.9536 -4.6057 0.0 0
M  V30 28 C -10.519 -3.204 0.0 0
M  V30 29 C -9.6002 -2.0142 0.0 0
M  V30 30 C -12.015 -2.9802 0.0 0
M  V30 31 C -10.1657 -0.6125 0.0 0
M  V30 32 C -12.5805 -1.5784 0.0 0
M  V30 33 C -11.6617 -0.3887 0.0 0
M  V30 END ATOM
M  V30 BEGIN BOND
M  V30 1 2 1 2
M  V30 2 1 2 3
M  V30 3 1 2 4
M  V30 4 1 3 5
M  V30 5 1 3 6
M  V30 6 2 4 7
M  V30 7 1 5 8
M  V30 8 1 6 9
M  V30 9 1 8 10 CFG=1
M  V30 10 1 8 11
M  V30 11 1 10 12
M  V30 12 1 10 13
M  V30 13 2 12 14
M  V30 14 2 13 15
M  V30 15 1 13 16
M  V30 16 1 14 17
M  V30 17 1 15 18
M  V30 18 2 16 19
M  V30 19 2 17 20
M  V30 20 1 17 21
M  V30 21 2 18 22
M  V30 22 1 19 23
M  V30 23 1 20 24
M  V30 24 2 21 25
M  V30 25 2 24 26
M  V30 26 1 26 27
M  V30 27 1 27 28
M  V30 28 2 28 29
M  V30 29 1 28 30
M  V30 30 1 29 31
M  V30 31 2 30 32
M  V30 32 2 31 33
M  V30 33 1 9 11
M  V30 34 1 14 16
M  V30 35 1 19 22
M  V30 36 1 25 26
M  V30 37 1 32 33
M  V30 END BOND
M  V30 BEGIN COLLECTION
M  V30 MDLV30/STEABS ATOMS=(1 8)
M  V30 END COLLECTION
M  V30 END CTAB
M  END
>  <Compound ID>
160

>  <Name>
Ibrutinib

>  <Uniprot>
P06239

>  <Target>
LCK

>  <Smiles>
C=CC(=O)N1CCC[C@@H](N2N=C(C3=CC=C(OC4=CC=CC=C4)C=C3)C3=C(N)N=CN=C32)C1

>  <Kd (nM)>


>  <Assay (Kd)>


>  <Ki (nM)>


>  <Assay (Ki)>


>  <IC50 (nM)>
2

>  <Assay (IC50)>
IC50 was assessed by the in vitro HotSpot kinase assay

>  <EC50 (nM)>


>  <Assay (EC50)>


>  <Article DOI>


>  <Molecular Weight>
440.507

>  <Exact Mass>
440.196074008

>  <XLogP3>
3.57

>  <Heavy Atom Count>
33

>  <Ring Count>
5

>  <Hydrogen Bond Acceptor Count>
7

>  <Hydrogen Bond Donor Count>
1

>  <Rotatable Bond Count>
5

>  <Topological Polar Surface Area>
99.16

>  <Molecular Formula>
C25H24N6O2

>  <InChI>
InChI=1S/C25H24N6O2/c1-2-21(32)30-14-6-7-18(15-30)31-25-22(24(26)27-16-28-25)23(29-31)17-10-12-20(13-11-17)33-19-8-4-3-5-9-19/h2-5,8-13,16,18H,1,6-7,14-15H2,(H2,26,27,28)/t18-/m1/s1

>  <InChI Key>
XYFPWWZEPKGCCK-GOSISDBHSA-N

>  <BindingDB>
50357312

>  <PubChem>
24821094

>  <ChEMBL>
CHEMBL1873475

$$$$
Compound 513
Actelion Java MolfileCreator 2.0

  0  0  0  0  0  0              0 V3000
M  V30 BEGIN CTAB
M  V30 COUNTS 33 37 0 0 0
M  V30 BEGIN ATOM
M  V30 1 O 0.0 0.0 0.0 0
M  V30 2 C 1.2604 -0.7892 0.0 0
M  V30 3 N 1.1897 -2.2734 0.0 0
M  V30 4 C 2.5679 -0.0824 0.0 0
M  V30 5 C -0.1413 -2.9566 0.0 0
M  V30 6 C 2.4501 -3.0626 0.0 0
M  V30 7 C 2.615 1.4253 0.0 0
M  V30 8 C -0.212 -4.4408 0.0 0 CFG=2
M  V30 9 C 2.3794 -4.5468 0.0 0
M  V30 10 N -1.5431 -5.124 0.0 0
M  V30 11 C 1.0483 -5.23 0.0 0
M  V30 12 N -2.8977 -4.4526 0.0 0
M  V30 13 C -1.7669 -6.5965 0.0 0
M  V30 14 C -3.9579 -5.5128 0.0 0
M  V30 15 N -0.8245 -7.7391 0.0 0
M  V30 16 C -3.2511 -6.8438 0.0 0
M  V30 17 C -5.4539 -5.2889 0.0 0
M  V30 18 C -1.3546 -9.1291 0.0 0
M  V30 19 C -3.7812 -8.2338 0.0 0
M  V30 20 C -6.0193 -3.8872 0.0 0
M  V30 21 C -6.3962 -6.4551 0.0 0
M  V30 22 N -2.8388 -9.3764 0.0 0
M  V30 23 N -5.2654 -8.4812 0.0 0
M  V30 24 C -7.5153 -3.6634 0.0 0
M  V30 25 C -7.8922 -6.2313 0.0 0
M  V30 26 C -8.4576 -4.8295 0.0 0
M  V30 27 O -9.9536 -4.6057 0.0 0
M  V30 28 C -10.519 -3.204 0.0 0
M  V30 29 C -9.6002 -2.0142 0.0 0
M  V30 30 C -12.015 -2.9802 0.0 0
M  V30 31 C -10.1657 -0.6125 0.0 0
M  V30 32 C -12.5805 -1.5784 0.0 0
M  V30 33 C -11.6617 -0.3887 0.0 0
M  V30 END ATOM
M  V30 BEGIN BOND
M  V30 1 2 1 2
M  V30 2 1 2 3
M  V30 3 1 2 4
M  V30 4 1 3 5
M  V30 5 1 3 6
M  V30 6 2 4 7
M  V30 7 1 5 8
M  V30 8 1 6 9
M  V30 9 1 8 10 CFG=1
M  V30 10 1 8 11
M  V30 11 1 10 12
M  V30 12 1 10 13
M  V30 13 2 12 14
M  V30 14 2 13 15
M  V30 15 1 13 16
M  V30 16 1 14 17
M  V30 17 1 15 18
M  V30 18 2 16 19
M  V30 19 2 17 20
M  V30 20 1 17 21
M  V30 21 2 18 22
M  V30 22 1 19 23
M  V30 23 1 20 24
M  V30 24 2 21 25
M  V30 25 2 24 26
M  V30 26 1 26 27
M  V30 27 1 27 28
M  V30 28 2 28 29
M  V30 29 1 28 30
M  V30 30 1 29 31
M  V30 31 2 30 32
M  V30 32 2 31 33
M  V30 33 1 9 11
M  V30 34 1 14 16
M  V30 35 1 19 22
M  V30 36 1 25 26
M  V30 37 1 32 33
M  V30 END BOND
M  V30 BEGIN COLLECTION
M  V30 MDLV30/STEABS ATOMS=(1 8)
M  V30 END COLLECTION
M  V30 END CTAB
M  END
>  <Compound ID>
160

>  <Name>
Ibrutinib

>  <Uniprot>
P12931

>  <Target>
Src

>  <Smiles>
C=CC(=O)N1CCC[C@@H](N2N=C(C3=CC=C(OC4=CC=CC=C4)C=C3)C3=C(N)N=CN=C32)C1

>  <Kd (nM)>


>  <Assay (Kd)>


>  <Ki (nM)>


>  <Assay (Ki)>


>  <IC50 (nM)>
263

>  <Assay (IC50)>
IC50 was assessed by the in vitro HotSpot kinase assay

>  <EC50 (nM)>


>  <Assay (EC50)>


>  <Article DOI>


>  <Molecular Weight>
440.507

>  <Exact Mass>
440.196074008

>  <XLogP3>
3.57

>  <Heavy Atom Count>
33

>  <Ring Count>
5

>  <Hydrogen Bond Acceptor Count>
7

>  <Hydrogen Bond Donor Count>
1

>  <Rotatable Bond Count>
5

>  <Topological Polar Surface Area>
99.16

>  <Molecular Formula>
C25H24N6O2

>  <InChI>
InChI=1S/C25H24N6O2/c1-2-21(32)30-14-6-7-18(15-30)31-25-22(24(26)27-16-28-25)23(29-31)17-10-12-20(13-11-17)33-19-8-4-3-5-9-19/h2-5,8-13,16,18H,1,6-7,14-15H2,(H2,26,27,28)/t18-/m1/s1

>  <InChI Key>
XYFPWWZEPKGCCK-GOSISDBHSA-N

>  <BindingDB>
50357312

>  <PubChem>
24821094

>  <ChEMBL>
CHEMBL1873475

$$$$
Compound 514
Actelion Java MolfileCreator 2.0

  0  0  0  0  0  0              0 V3000
M  V30 BEGIN CTAB
M  V30 COUNTS 33 37 0 0 0
M  V30 BEGIN ATOM
M  V30 1 O 0.0 0.0 0.0 0
M  V30 2 C 1.2604 -0.7892 0.0 0
M  V30 3 N 1.1897 -2.2734 0.0 0
M  V30 4 C 2.5679 -0.0824 0.0 0
M  V30 5 C -0.1413 -2.9566 0.0 0
M  V30 6 C 2.4501 -3.0626 0.0 0
M  V30 7 C 2.615 1.4253 0.0 0
M  V30 8 C -0.212 -4.4408 0.0 0 CFG=2
M  V30 9 C 2.3794 -4.5468 0.0 0
M  V30 10 N -1.5431 -5.124 0.0 0
M  V30 11 C 1.0483 -5.23 0.0 0
M  V30 12 N -2.8977 -4.4526 0.0 0
M  V30 13 C -1.7669 -6.5965 0.0 0
M  V30 14 C -3.9579 -5.5128 0.0 0
M  V30 15 N -0.8245 -7.7391 0.0 0
M  V30 16 C -3.2511 -6.8438 0.0 0
M  V30 17 C -5.4539 -5.2889 0.0 0
M  V30 18 C -1.3546 -9.1291 0.0 0
M  V30 19 C -3.7812 -8.2338 0.0 0
M  V30 20 C -6.0193 -3.8872 0.0 0
M  V30 21 C -6.3962 -6.4551 0.0 0
M  V30 22 N -2.8388 -9.3764 0.0 0
M  V30 23 N -5.2654 -8.4812 0.0 0
M  V30 24 C -7.5153 -3.6634 0.0 0
M  V30 25 C -7.8922 -6.2313 0.0 0
M  V30 26 C -8.4576 -4.8295 0.0 0
M  V30 27 O -9.9536 -4.6057 0.0 0
M  V30 28 C -10.519 -3.204 0.0 0
M  V30 29 C -9.6002 -2.0142 0.0 0
M  V30 30 C -12.015 -2.9802 0.0 0
M  V30 31 C -10.1657 -0.6125 0.0 0
M  V30 32 C -12.5805 -1.5784 0.0 0
M  V30 33 C -11.6617 -0.3887 0.0 0
M  V30 END ATOM
M  V30 BEGIN BOND
M  V30 1 2 1 2
M  V30 2 1 2 3
M  V30 3 1 2 4
M  V30 4 1 3 5
M  V30 5 1 3 6
M  V30 6 2 4 7
M  V30 7 1 5 8
M  V30 8 1 6 9
M  V30 9 1 8 10 CFG=1
M  V30 10 1 8 11
M  V30 11 1 10 12
M  V30 12 1 10 13
M  V30 13 2 12 14
M  V30 14 2 13 15
M  V30 15 1 13 16
M  V30 16 1 14 17
M  V30 17 1 15 18
M  V30 18 2 16 19
M  V30 19 2 17 20
M  V30 20 1 17 21
M  V30 21 2 18 22
M  V30 22 1 19 23
M  V30 23 1 20 24
M  V30 24 2 21 25
M  V30 25 2 24 26
M  V30 26 1 26 27
M  V30 27 1 27 28
M  V30 28 2 28 29
M  V30 29 1 28 30
M  V30 30 1 29 31
M  V30 31 2 30 32
M  V30 32 2 31 33
M  V30 33 1 9 11
M  V30 34 1 14 16
M  V30 35 1 19 22
M  V30 36 1 25 26
M  V30 37 1 32 33
M  V30 END BOND
M  V30 BEGIN COLLECTION
M  V30 MDLV30/STEABS ATOMS=(1 8)
M  V30 END COLLECTION
M  V30 END CTAB
M  END
>  <Compound ID>
160

>  <Name>
Ibrutinib

>  <Uniprot>
P42680

>  <Target>
TEC

>  <Smiles>
C=CC(=O)N1CCC[C@@H](N2N=C(C3=CC=C(OC4=CC=CC=C4)C=C3)C3=C(N)N=CN=C32)C1

>  <Kd (nM)>


>  <Assay (Kd)>


>  <Ki (nM)>


>  <Assay (Ki)>


>  <IC50 (nM)>
77.8

>  <Assay (IC50)>
IC50 was assessed by the in vitro HotSpot kinase assay

>  <EC50 (nM)>


>  <Assay (EC50)>


>  <Article DOI>


>  <Molecular Weight>
440.507

>  <Exact Mass>
440.196074008

>  <XLogP3>
3.57

>  <Heavy Atom Count>
33

>  <Ring Count>
5

>  <Hydrogen Bond Acceptor Count>
7

>  <Hydrogen Bond Donor Count>
1

>  <Rotatable Bond Count>
5

>  <Topological Polar Surface Area>
99.16

>  <Molecular Formula>
C25H24N6O2

>  <InChI>
InChI=1S/C25H24N6O2/c1-2-21(32)30-14-6-7-18(15-30)31-25-22(24(26)27-16-28-25)23(29-31)17-10-12-20(13-11-17)33-19-8-4-3-5-9-19/h2-5,8-13,16,18H,1,6-7,14-15H2,(H2,26,27,28)/t18-/m1/s1

>  <InChI Key>
XYFPWWZEPKGCCK-GOSISDBHSA-N

>  <BindingDB>
50357312

>  <PubChem>
24821094

>  <ChEMBL>
CHEMBL1873475

$$$$
Compound 515
Actelion Java MolfileCreator 2.0

  0  0  0  0  0  0              0 V3000
M  V30 BEGIN CTAB
M  V30 COUNTS 43 48 0 0 0
M  V30 BEGIN ATOM
M  V30 1 Cl 0.0 0.0 0.0 0
M  V30 2 C -1.5039 0.1292 0.0 0
M  V30 3 C -2.3616 -1.0927 0.0 0
M  V30 4 C -2.1619 1.4921 0.0 0
M  V30 5 C -3.8655 -0.9634 0.0 0
M  V30 6 C -1.7271 -2.4321 0.0 0
M  V30 7 C -3.6658 1.6214 0.0 0
M  V30 8 Cl -4.7232 -2.1854 0.0 0
M  V30 9 C -4.5235 0.3994 0.0 0
M  V30 10 S -2.5848 -3.654 0.0 0
M  V30 11 O -3.8303 -2.7963 0.0 0
M  V30 12 O -1.3629 -4.4882 0.0 0
M  V30 13 C -3.4425 -4.876 0.0 0
M  V30 14 C -4.9465 -4.7467 0.0 0
M  V30 15 C -2.8081 -6.2154 0.0 0
M  V30 16 C -5.8042 -5.9687 0.0 0
M  V30 17 C -3.6658 -7.4374 0.0 0
M  V30 18 C -5.1697 -7.3081 0.0 0
M  V30 19 C -7.2964 -6.1567 0.0 0
M  V30 20 N -6.2624 -8.3303 0.0 0
M  V30 21 C -7.5784 -7.6136 0.0 0
M  V30 22 C -8.3421 -5.064 0.0 0
M  V30 23 O -8.9413 -8.2481 0.0 0
M  V30 24 C -9.799 -5.4047 0.0 0
M  V30 25 N -10.3747 -6.7676 0.0 0
M  V30 26 C -10.9504 -4.4295 0.0 0
M  V30 27 C -11.8787 -6.6384 0.0 0
M  V30 28 C -12.2311 -5.205 0.0 0
M  V30 29 C -10.8447 -2.9256 0.0 0
M  V30 30 C -12.8539 -7.7663 0.0 0
M  V30 31 C -13.6176 -4.6292 0.0 0
M  V30 32 O -14.816 -5.5339 0.0 0
M  V30 33 N -13.8291 -3.1371 0.0 0
M  V30 34 C -15.1568 -2.4203 0.0 0 CFG=2
M  V30 35 C -12.7599 -2.0914 0.0 0
M  V30 36 C -14.8983 -0.9399 0.0 0
M  V30 37 C -16.5197 -3.0548 0.0 0
M  V30 38 C -13.4178 -0.7284 0.0 0
M  V30 39 N -17.7651 -2.1971 0.0 0
M  V30 40 C -17.8239 -0.6932 0.0 0
M  V30 41 C -19.1868 -2.6906 0.0 0
M  V30 42 C -19.2691 -0.2584 0.0 0
M  V30 43 C -20.115 -1.4921 0.0 0
M  V30 END ATOM
M  V30 BEGIN BOND
M  V30 1 1 1 2
M  V30 2 2 2 3
M  V30 3 1 2 4
M  V30 4 1 3 5
M  V30 5 1 3 6
M  V30 6 2 4 7
M  V30 7 1 5 8
M  V30 8 2 5 9
M  V30 9 1 6 10
M  V30 10 2 10 11
M  V30 11 2 10 12
M  V30 12 1 10 13
M  V30 13 2 13 14
M  V30 14 1 13 15
M  V30 15 1 14 16
M  V30 16 2 15 17
M  V30 17 2 16 18
M  V30 18 1 16 19
M  V30 19 1 18 20
M  V30 20 1 19 21
M  V30 21 2 19 22
M  V30 22 2 21 23
M  V30 23 1 22 24
M  V30 24 1 24 25
M  V30 25 2 24 26
M  V30 26 1 25 27
M  V30 27 1 26 28
M  V30 28 1 26 29
M  V30 29 1 27 30
M  V30 30 1 28 31
M  V30 31 2 31 32
M  V30 32 1 31 33
M  V30 33 1 33 34
M  V30 34 1 33 35
M  V30 35 1 34 36
M  V30 36 1 34 37 CFG=1
M  V30 37 1 35 38
M  V30 38 1 37 39
M  V30 39 1 39 40
M  V30 40 1 39 41
M  V30 41 1 40 42
M  V30 42 1 41 43
M  V30 43 1 7 9
M  V30 44 1 17 18
M  V30 45 1 20 21
M  V30 46 2 27 28
M  V30 47 1 36 38
M  V30 48 1 42 43
M  V30 END BOND
M  V30 BEGIN COLLECTION
M  V30 MDLV30/STEABS ATOMS=(1 34)
M  V30 END COLLECTION
M  V30 END CTAB
M  END
>  <Compound ID>
161

>  <Name>
PHA665752

>  <Uniprot>
P08581

>  <Target>
c-Met

>  <Smiles>
CC1=C(C(=O)N2CCC[C@@H]2CN2CCCC2)C(C)=C(/C=C2\C(=O)NC3=CC=C(S(=O)(=O)CC4=C(Cl)C=CC=C4Cl)C=C23)[NH]1

>  <Kd (nM)>


>  <Assay (Kd)>


>  <Ki (nM)>


>  <Assay (Ki)>


>  <IC50 (nM)>
9

>  <Assay (IC50)>
IC50 of c-MET was determined by A549 c-MET cellular assay

>  <EC50 (nM)>


>  <Assay (EC50)>


>  <Article DOI>
10.1021/jm2007613

>  <Molecular Weight>
641.621

>  <Exact Mass>
640.167781928

>  <XLogP3>
5.01

>  <Heavy Atom Count>
43

>  <Ring Count>
6

>  <Hydrogen Bond Acceptor Count>
5

>  <Hydrogen Bond Donor Count>
2

>  <Rotatable Bond Count>
7

>  <Topological Polar Surface Area>
102.58

>  <Molecular Formula>
C32H34Cl2N4O4S

>  <InChI>
InChI=1S/C32H34Cl2N4O4S/c1-19-29(35-20(2)30(19)32(40)38-14-6-7-21(38)17-37-12-3-4-13-37)16-24-23-15-22(10-11-28(23)36-31(24)39)43(41,42)18-25-26(33)8-5-9-27(25)34/h5,8-11,15-16,21,35H,3-4,6-7,12-14,17-18H2,1-2H3,(H,36,39)/b24-16-/t21-/m1/s1

>  <InChI Key>
OYONTEXKYJZFHA-SSHUPFPWSA-N

>  <BindingDB>
50242737

>  <PubChem>
10461815

>  <ChEMBL>
CHEMBL450786

$$$$
Compound 516
Actelion Java MolfileCreator 2.0

  0  0  0  0  0  0              0 V3000
M  V30 BEGIN CTAB
M  V30 COUNTS 29 31 0 0 0
M  V30 BEGIN ATOM
M  V30 1 F 0.0 0.0 0.0 0
M  V30 2 C -0.3064 -1.4616 0.0 0
M  V30 3 C -1.7327 -1.933 0.0 0
M  V30 4 C 0.8133 -2.4399 0.0 0
M  V30 5 C -2.0391 -3.3946 0.0 0
M  V30 6 C 0.5068 -3.9015 0.0 0
M  V30 7 C -0.9193 -4.373 0.0 0
M  V30 8 C -3.3357 -4.149 0.0 0
M  V30 9 N -1.5205 -5.7403 0.0 0
M  V30 10 C -3.0175 -5.5988 0.0 0
M  V30 11 C -4.7266 -3.5479 0.0 0
M  V30 12 O -4.0194 -6.7186 0.0 0
M  V30 13 C -5.9407 -4.4319 0.0 0
M  V30 14 N -5.9289 -5.9171 0.0 0
M  V30 15 C -7.3787 -3.984 0.0 0
M  V30 16 C -7.3551 -6.3886 0.0 0
M  V30 17 C -8.2509 -5.1981 0.0 0
M  V30 18 C -7.8738 -2.5578 0.0 0
M  V30 19 C -7.803 -7.803 0.0 0
M  V30 20 C -9.7597 -5.2099 0.0 0
M  V30 21 O -10.5023 -6.5064 0.0 0
M  V30 22 N -10.5376 -3.9133 0.0 0
M  V30 23 C -12.0464 -3.9251 0.0 0
M  V30 24 C -12.8244 -2.6285 0.0 0
M  V30 25 N -14.3331 -2.6403 0.0 0
M  V30 26 C -15.1111 -1.3437 0.0 0
M  V30 27 C -15.0757 -3.9369 0.0 0
M  V30 28 C -16.6198 -1.3555 0.0 0
M  V30 29 C -16.5844 -3.9486 0.0 0
M  V30 END ATOM
M  V30 BEGIN BOND
M  V30 1 1 1 2
M  V30 2 2 2 3
M  V30 3 1 2 4
M  V30 4 1 3 5
M  V30 5 2 4 6
M  V30 6 2 5 7
M  V30 7 1 5 8
M  V30 8 1 7 9
M  V30 9 1 8 10
M  V30 10 2 8 11
M  V30 11 2 10 12
M  V30 12 1 11 13
M  V30 13 1 13 14
M  V30 14 2 13 15
M  V30 15 1 14 16
M  V30 16 1 15 17
M  V30 17 1 15 18
M  V30 18 1 16 19
M  V30 19 1 17 20
M  V30 20 2 20 21
M  V30 21 1 20 22
M  V30 22 1 22 23
M  V30 23 1 23 24
M  V30 24 1 24 25
M  V30 25 1 25 26
M  V30 26 1 25 27
M  V30 27 1 26 28
M  V30 28 1 27 29
M  V30 29 1 6 7
M  V30 30 1 9 10
M  V30 31 2 16 17
M  V30 END BOND
M  V30 END CTAB
M  END
>  <Compound ID>
162

>  <Name>
Sunitinib

>  <Uniprot>
P10721

>  <Target>
c-KIT

>  <Smiles>
CCN(CC)CCNC(=O)C1=C(C)[NH]C(/C=C2\C(=O)NC3=CC=C(F)C=C23)=C1C

>  <Kd (nM)>


>  <Assay (Kd)>


>  <Ki (nM)>


>  <Assay (Ki)>


>  <IC50 (nM)>
4

>  <Assay (IC50)>
Ki of c-KIT

>  <EC50 (nM)>


>  <Assay (EC50)>


>  <Article DOI>
10.1016/j.ejmech.2014.05.051

>  <Molecular Weight>
398.482

>  <Exact Mass>
398.211804324

>  <XLogP3>
2.63

>  <Heavy Atom Count>
29

>  <Ring Count>
3

>  <Hydrogen Bond Acceptor Count>
3

>  <Hydrogen Bond Donor Count>
3

>  <Rotatable Bond Count>
7

>  <Topological Polar Surface Area>
77.23

>  <Molecular Formula>
C22H27FN4O2

>  <InChI>
InChI=1S/C22H27FN4O2/c1-5-27(6-2)10-9-24-22(29)20-13(3)19(25-14(20)4)12-17-16-11-15(23)7-8-18(16)26-21(17)28/h7-8,11-12,25H,5-6,9-10H2,1-4H3,(H,24,29)(H,26,28)/b17-12-

>  <InChI Key>
WINHZLLDWRZWRT-ATVHPVEESA-N

>  <BindingDB>
4814

>  <PubChem>
5329102

>  <ChEMBL>
CHEMBL535

$$$$
Compound 517
Actelion Java MolfileCreator 2.0

  0  0  0  0  0  0              0 V3000
M  V30 BEGIN CTAB
M  V30 COUNTS 22 23 0 0 0
M  V30 BEGIN ATOM
M  V30 1 Cl 0.0 0.0 0.0 0
M  V30 2 C 0.0 -1.4878 0.0 0
M  V30 3 C 1.2989 -2.2081 0.0 0
M  V30 4 C -1.2989 -2.2435 0.0 0
M  V30 5 C 2.5742 -1.4288 0.0 0
M  V30 6 C 1.2989 -3.696 0.0 0
M  V30 7 C -1.2989 -3.7314 0.0 0
M  V30 8 N 3.8495 -0.6494 0.0 0
M  V30 9 C 0.0 -4.4517 0.0 0
M  V30 10 O -2.5978 -4.4871 0.0 0
M  V30 11 C -3.9203 -3.7432 0.0 0
M  V30 12 C -5.3727 -4.1329 0.0 0
M  V30 13 C -4.3336 -2.2908 0.0 0
M  V30 14 C -5.786 -2.6804 0.0 0
M  V30 15 C -4.9831 -5.5617 0.0 0
M  V30 16 C -6.8252 -4.5225 0.0 0
M  V30 17 C -4.7469 -0.8383 0.0 0
M  V30 18 C -2.9048 -1.8775 0.0 0
M  V30 19 N -7.1086 -1.9365 0.0 0
M  V30 20 C -7.1322 -0.425 0.0 0
M  V30 21 O -5.8569 0.3542 0.0 0
M  V30 22 O -8.4547 0.3188 0.0 0
M  V30 END ATOM
M  V30 BEGIN BOND
M  V30 1 1 1 2
M  V30 2 2 2 3
M  V30 3 1 2 4
M  V30 4 1 3 5
M  V30 5 1 3 6
M  V30 6 2 4 7
M  V30 7 3 5 8
M  V30 8 2 6 9
M  V30 9 1 7 10
M  V30 10 1 10 11
M  V30 11 1 11 12
M  V30 12 1 11 13
M  V30 13 1 12 14
M  V30 14 1 12 15
M  V30 15 1 12 16
M  V30 16 1 13 17
M  V30 17 1 13 18
M  V30 18 1 14 19
M  V30 19 1 19 20
M  V30 20 2 20 21
M  V30 21 1 20 22
M  V30 22 1 7 9
M  V30 23 1 13 14
M  V30 END BOND
M  V30 END CTAB
M  END
>  <Compound ID>
163

>  <Name>


>  <Uniprot>
P10275

>  <Target>
AR

>  <Smiles>
CC1(C)C(NC(=O)O)C(C)(C)C1OC1=CC=C(C#N)C(Cl)=C1

>  <Kd (nM)>


>  <Assay (Kd)>


>  <Ki (nM)>


>  <Assay (Ki)>


>  <IC50 (nM)>


>  <Assay (IC50)>


>  <EC50 (nM)>


>  <Assay (EC50)>


>  <Article DOI>


>  <Molecular Weight>
322.792

>  <Exact Mass>
322.108420148

>  <XLogP3>
3.92

>  <Heavy Atom Count>
22

>  <Ring Count>
2

>  <Hydrogen Bond Acceptor Count>
3

>  <Hydrogen Bond Donor Count>
2

>  <Rotatable Bond Count>
3

>  <Topological Polar Surface Area>
82.35

>  <Molecular Formula>
C16H19ClN2O3

>  <InChI>
InChI=1S/C16H19ClN2O3/c1-15(2)12(19-14(20)21)16(3,4)13(15)22-10-6-5-9(8-18)11(17)7-10/h5-7,12-13,19H,1-4H3,(H,20,21)

>  <InChI Key>
SUTJUSYMYIEGKA-UHFFFAOYSA-N

>  <BindingDB>


>  <PubChem>
122423189

>  <ChEMBL>


$$$$
Compound 518
Actelion Java MolfileCreator 2.0

  0  0  0  0  0  0              0 V3000
M  V30 BEGIN CTAB
M  V30 COUNTS 29 34 0 0 0
M  V30 BEGIN ATOM
M  V30 1 Cl 0.0 0.0 0.0 0
M  V30 2 C -1.2942 0.7882 0.0 0
M  V30 3 C -2.6119 0.0823 0.0 0
M  V30 4 C -1.2706 2.2942 0.0 0
M  V30 5 C -3.9061 0.8706 0.0 0
M  V30 6 C -2.5649 3.0825 0.0 0
M  V30 7 C -3.8826 2.3766 0.0 0
M  V30 8 C -5.1768 3.1649 0.0 0
M  V30 9 N -6.4357 2.3648 0.0 0
M  V30 10 C -5.0474 4.6591 0.0 0
M  V30 11 C -7.8711 2.8472 0.0 0
M  V30 12 C -6.1298 5.7063 0.0 0
M  V30 13 C -3.6238 5.0827 0.0 0
M  V30 14 C -8.4006 4.2591 0.0 0
M  V30 15 C -8.2476 1.4118 0.0 0
M  V30 16 C -9.3183 2.4472 0.0 0
M  V30 17 N -7.6241 5.5298 0.0 0
M  V30 18 C -5.7769 7.1652 0.0 0
M  V30 19 C -3.2708 6.5416 0.0 0
M  V30 20 N -9.8713 4.6121 0.0 0
M  V30 21 C -8.6124 6.671 0.0 0
M  V30 22 C -4.3532 7.5888 0.0 0
M  V30 23 C -1.8471 6.9652 0.0 0
M  V30 24 N -10.0125 6.1181 0.0 0
M  V30 25 C -8.2829 8.1417 0.0 0
M  V30 26 C -0.6824 6.0592 0.0 0
M  V30 27 C -1.3412 8.3771 0.0 0
M  V30 28 N 0.5412 6.9064 0.0 0
M  V30 29 N 0.1411 8.3418 0.0 0
M  V30 END ATOM
M  V30 BEGIN BOND
M  V30 1 1 1 2
M  V30 2 2 2 3
M  V30 3 1 2 4
M  V30 4 1 3 5
M  V30 5 2 4 6
M  V30 6 2 5 7
M  V30 7 1 7 8
M  V30 8 2 8 9
M  V30 9 1 8 10
M  V30 10 1 9 11
M  V30 11 2 10 12
M  V30 12 1 10 13
M  V30 13 1 11 14
M  V30 14 1 11 15
M  V30 15 1 11 16
M  V30 16 1 12 17
M  V30 17 1 12 18
M  V30 18 2 13 19
M  V30 19 2 14 20
M  V30 20 1 17 21
M  V30 21 2 18 22
M  V30 22 1 19 23
M  V30 23 1 20 24
M  V30 24 1 21 25
M  V30 25 1 23 26
M  V30 26 2 23 27
M  V30 27 2 26 28
M  V30 28 1 27 29
M  V30 29 1 6 7
M  V30 30 1 14 17
M  V30 31 1 15 16
M  V30 32 1 19 22
M  V30 33 2 21 24
M  V30 34 1 28 29
M  V30 END BOND
M  V30 END CTAB
M  END
>  <Compound ID>
164

>  <Name>


>  <Uniprot>
O60885

>  <Target>
BRD4

>  <Smiles>
CC1=NN=C2N1C1=CC=C(C3=C[NH]N=C3)C=C1C(C1=CC=C(Cl)C=C1)=NC21CC1

>  <Kd (nM)>


>  <Assay (Kd)>


>  <Ki (nM)>


>  <Assay (Ki)>


>  <IC50 (nM)>


>  <Assay (IC50)>


>  <EC50 (nM)>


>  <Assay (EC50)>


>  <Article DOI>


>  <Molecular Weight>
400.873

>  <Exact Mass>
400.120322224

>  <XLogP3>
3.5

>  <Heavy Atom Count>
29

>  <Ring Count>
6

>  <Hydrogen Bond Acceptor Count>
5

>  <Hydrogen Bond Donor Count>
1

>  <Rotatable Bond Count>
2

>  <Topological Polar Surface Area>
71.75

>  <Molecular Formula>
C22H17ClN6

>  <InChI>
InChI=1S/C22H17ClN6/c1-13-27-28-21-22(8-9-22)26-20(14-2-5-17(23)6-3-14)18-10-15(16-11-24-25-12-16)4-7-19(18)29(13)21/h2-7,10-12H,8-9H2,1H3,(H,24,25)

>  <InChI Key>
RTNUIOLFPPNFQQ-UHFFFAOYSA-N

>  <BindingDB>


>  <PubChem>
132117601

>  <ChEMBL>


$$$$
Compound 519
Actelion Java MolfileCreator 2.0

  0  0  0  0  0  0              0 V3000
M  V30 BEGIN CTAB
M  V30 COUNTS 26 28 0 0 0
M  V30 BEGIN ATOM
M  V30 1 Br 0.0 0.0 0.0 0
M  V30 2 C 1.2654 -0.7805 0.0 0
M  V30 3 C 1.2063 -2.2706 0.0 0
M  V30 4 C 2.5781 -0.0591 0.0 0
M  V30 5 N 2.4717 -3.0512 0.0 0
M  V30 6 N -0.13 -2.9684 0.0 0
M  V30 7 N 3.8436 -0.8396 0.0 0
M  V30 8 C 3.7844 -2.3298 0.0 0
M  V30 9 C -1.4191 -2.1642 0.0 0
M  V30 10 N 5.0499 -3.1103 0.0 0
M  V30 11 C -2.7555 -2.862 0.0 0
M  V30 12 C 4.9908 -4.6005 0.0 0
M  V30 13 C -4.0446 -2.0578 0.0 0
M  V30 14 C 3.6544 -5.2982 0.0 0
M  V30 15 C 6.2562 -5.381 0.0 0
M  V30 16 N -5.381 -2.7555 0.0 0
M  V30 17 C 3.5952 -6.7884 0.0 0
M  V30 18 C 6.1971 -6.8712 0.0 0
M  V30 19 C -5.4402 -4.2457 0.0 0
M  V30 20 C -6.6701 -1.9513 0.0 0
M  V30 21 C 4.8607 -7.5689 0.0 0
M  V30 22 O -4.1747 -5.0262 0.0 0
M  V30 23 C -6.7766 -4.9435 0.0 0
M  V30 24 C -8.2312 -4.494 0.0 0
M  V30 25 C -7.226 -6.3745 0.0 0
M  V30 26 C -8.6806 -5.9251 0.0 0
M  V30 END ATOM
M  V30 BEGIN BOND
M  V30 1 1 1 2
M  V30 2 2 2 3
M  V30 3 1 2 4
M  V30 4 1 3 5
M  V30 5 1 3 6
M  V30 6 2 4 7
M  V30 7 2 5 8
M  V30 8 1 6 9
M  V30 9 1 8 10
M  V30 10 1 9 11
M  V30 11 1 10 12
M  V30 12 1 11 13
M  V30 13 2 12 14
M  V30 14 1 12 15
M  V30 15 1 13 16
M  V30 16 1 14 17
M  V30 17 2 15 18
M  V30 18 1 16 19
M  V30 19 1 16 20
M  V30 20 2 17 21
M  V30 21 2 19 22
M  V30 22 1 19 23
M  V30 23 1 23 24
M  V30 24 1 23 25
M  V30 25 1 24 26
M  V30 26 1 7 8
M  V30 27 1 18 21
M  V30 28 1 25 26
M  V30 END BOND
M  V30 END CTAB
M  END
>  <Compound ID>
165

>  <Name>


>  <Uniprot>
Q9UHD2

>  <Target>
TBK1

>  <Smiles>
CN(CCCNC1=NC(NC2=CC=CC=C2)=NC=C1Br)C(=O)C1CCC1

>  <Kd (nM)>


>  <Assay (Kd)>


>  <Ki (nM)>


>  <Assay (Ki)>


>  <IC50 (nM)>


>  <Assay (IC50)>


>  <EC50 (nM)>


>  <Assay (EC50)>


>  <Article DOI>


>  <Molecular Weight>
418.339

>  <Exact Mass>
417.116422488

>  <XLogP3>
3.94

>  <Heavy Atom Count>
26

>  <Ring Count>
3

>  <Hydrogen Bond Acceptor Count>
5

>  <Hydrogen Bond Donor Count>
2

>  <Rotatable Bond Count>
8

>  <Topological Polar Surface Area>
70.15

>  <Molecular Formula>
C19H24BrN5O

>  <InChI>
InChI=1S/C19H24BrN5O/c1-25(18(26)14-7-5-8-14)12-6-11-21-17-16(20)13-22-19(24-17)23-15-9-3-2-4-10-15/h2-4,9-10,13-14H,5-8,11-12H2,1H3,(H2,21,22,23,24)

>  <InChI Key>
OVXASXQWAVIOAX-UHFFFAOYSA-N

>  <BindingDB>


>  <PubChem>
134553532

>  <ChEMBL>


$$$$
Compound 520
Actelion Java MolfileCreator 2.0

  0  0  0  0  0  0              0 V3000
M  V30 BEGIN CTAB
M  V30 COUNTS 34 37 0 0 0
M  V30 BEGIN ATOM
M  V30 1 F 0.0 0.0 0.0 0
M  V30 2 C 1.2545 0.8166 0.0 0
M  V30 3 F 0.4379 2.0948 0.0 0
M  V30 4 F 2.0475 -0.4379 0.0 0
M  V30 5 C 2.5091 1.6332 0.0 0
M  V30 6 N 3.8346 0.9468 0.0 0
M  V30 7 C 5.0892 1.7634 0.0 0
M  V30 8 N 5.0063 3.2784 0.0 0
M  V30 9 C 6.4148 1.077 0.0 0
M  V30 10 C 6.2609 4.095 0.0 0
M  V30 11 C 7.6693 1.8936 0.0 0
M  V30 12 C 7.5865 3.4086 0.0 0
M  V30 13 C 8.9949 1.2072 0.0 0
M  V30 14 O 9.2079 -0.2722 0.0 0
M  V30 15 N 10.3323 1.8936 0.0 0
M  V30 16 C 10.6755 -0.5089 0.0 0
M  V30 17 C 11.3738 0.8284 0.0 0
M  V30 18 C 12.8533 1.0651 0.0 0
M  V30 19 O 13.3858 2.4736 0.0 0
M  V30 20 N 13.7764 -0.0946 0.0 0
M  V30 21 C 15.2558 0.142 0.0 0
M  V30 22 C 16.2974 -0.9231 0.0 0
M  V30 23 C 15.9423 1.4912 0.0 0
M  V30 24 N 17.6348 -0.2367 0.0 0
M  V30 25 C 16.037 -2.3907 0.0 0
M  V30 26 N 17.4099 1.2545 0.0 0
M  V30 27 O 17.185 -3.3375 0.0 0
M  V30 28 N 14.6167 -2.9115 0.0 0
M  V30 29 C 18.4751 2.3197 0.0 0
M  V30 30 C 19.919 1.9291 0.0 0
M  V30 31 C 18.0845 3.7873 0.0 0
M  V30 32 C 20.9842 2.9943 0.0 0
M  V30 33 C 19.1497 4.8525 0.0 0
M  V30 34 C 20.5936 4.4619 0.0 0
M  V30 END ATOM
M  V30 BEGIN BOND
M  V30 1 1 1 2
M  V30 2 1 2 3
M  V30 3 1 2 4
M  V30 4 1 2 5
M  V30 5 1 5 6
M  V30 6 1 6 7
M  V30 7 2 7 8
M  V30 8 1 7 9
M  V30 9 1 8 10
M  V30 10 2 9 11
M  V30 11 2 10 12
M  V30 12 1 11 13
M  V30 13 1 13 14
M  V30 14 2 13 15
M  V30 15 1 14 16
M  V30 16 1 15 17
M  V30 17 1 17 18
M  V30 18 2 18 19
M  V30 19 1 18 20
M  V30 20 1 20 21
M  V30 21 1 21 22
M  V30 22 2 21 23
M  V30 23 2 22 24
M  V30 24 1 22 25
M  V30 25 1 23 26
M  V30 26 2 25 27
M  V30 27 1 25 28
M  V30 28 1 26 29
M  V30 29 2 29 30
M  V30 30 1 29 31
M  V30 31 1 30 32
M  V30 32 2 31 33
M  V30 33 2 32 34
M  V30 34 1 11 12
M  V30 35 2 16 17
M  V30 36 1 24 26
M  V30 37 1 33 34
M  V30 END BOND
M  V30 END CTAB
M  END
>  <Compound ID>
166

>  <Name>


>  <Uniprot>
Q9NWZ3

>  <Target>
IRAK4

>  <Smiles>
NC(=O)C1=NN(C2=CC=CC=C2)C=C1NC(=O)C1=COC(C2=CC=NC(NCC(F)(F)F)=C2)=N1

>  <Kd (nM)>


>  <Assay (Kd)>


>  <Ki (nM)>


>  <Assay (Ki)>


>  <IC50 (nM)>


>  <Assay (IC50)>


>  <EC50 (nM)>


>  <Assay (EC50)>


>  <Article DOI>


>  <Molecular Weight>
471.399

>  <Exact Mass>
471.126672032

>  <XLogP3>
3.26

>  <Heavy Atom Count>
34

>  <Ring Count>
4

>  <Hydrogen Bond Acceptor Count>
8

>  <Hydrogen Bond Donor Count>
3

>  <Rotatable Bond Count>
7

>  <Topological Polar Surface Area>
140.96

>  <Molecular Formula>
C21H16F3N7O3

>  <InChI>
InChI=1S/C21H16F3N7O3/c22-21(23,24)11-27-16-8-12(6-7-26-16)20-29-15(10-34-20)19(33)28-14-9-31(30-17(14)18(25)32)13-4-2-1-3-5-13/h1-10H,11H2,(H2,25,32)(H,26,27)(H,28,33)

>  <InChI Key>
BONCJMNWEAPEIA-UHFFFAOYSA-N

>  <BindingDB>


>  <PubChem>
68377832

>  <ChEMBL>


$$$$
Compound 521
Actelion Java MolfileCreator 2.0

  0  0  0  0  0  0              0 V3000
M  V30 BEGIN CTAB
M  V30 COUNTS 36 40 0 0 0
M  V30 BEGIN ATOM
M  V30 1 F 0.0 0.0 0.0 0
M  V30 2 C 0.3291 1.4694 0.0 0
M  V30 3 F 1.775 1.1402 0.0 0
M  V30 4 F -1.1402 1.822 0.0 0
M  V30 5 C 0.6583 2.9388 0.0 0
M  V30 6 N 2.0219 3.5383 0.0 0
M  V30 7 C -0.3291 4.0791 0.0 0
M  V30 8 N 1.8808 5.043 0.0 0
M  V30 9 N -1.8338 3.9615 0.0 0
M  V30 10 C 0.4231 5.3722 0.0 0
M  V30 11 C 2.9976 6.0305 0.0 0
M  V30 12 C -2.7037 5.1958 0.0 0
M  V30 13 C 2.7037 7.5116 0.0 0
M  V30 14 C 4.3965 5.5603 0.0 0
M  V30 15 O -2.0807 6.5595 0.0 0
M  V30 16 C -4.2084 5.0783 0.0 0
M  V30 17 C 3.8205 8.4991 0.0 0
M  V30 18 C 5.5132 6.5477 0.0 0
M  V30 19 N -5.1958 6.2186 0.0 0
M  V30 20 C -4.9842 3.8087 0.0 0
M  V30 21 C 5.2193 8.0289 0.0 0
M  V30 22 C -6.583 5.6425 0.0 0
M  V30 23 O -6.4537 4.1614 0.0 0
M  V30 24 C 6.3361 9.0163 0.0 0
M  V30 25 C -7.8761 6.4184 0.0 0
M  V30 26 O 6.0422 10.4975 0.0 0
M  V30 27 C -9.1927 5.7013 0.0 0
M  V30 28 C -7.8643 7.9231 0.0 0
M  V30 29 C -10.4858 6.4772 0.0 0
M  V30 30 C -9.1574 8.6989 0.0 0
M  V30 31 N -10.474 7.9819 0.0 0
M  V30 32 N -11.8024 5.7601 0.0 0
M  V30 33 C -13.0955 6.536 0.0 0
M  V30 34 C -14.4121 5.8189 0.0 0
M  V30 35 C -15.1879 4.5493 0.0 0
M  V30 36 C -15.9168 5.8541 0.0 0
M  V30 END ATOM
M  V30 BEGIN BOND
M  V30 1 1 1 2
M  V30 2 1 2 3
M  V30 3 1 2 4
M  V30 4 1 2 5
M  V30 5 2 5 6
M  V30 6 1 5 7
M  V30 7 1 6 8
M  V30 8 1 7 9
M  V30 9 2 7 10
M  V30 10 1 8 11
M  V30 11 1 9 12
M  V30 12 2 11 13
M  V30 13 1 11 14
M  V30 14 2 12 15
M  V30 15 1 12 16
M  V30 16 1 13 17
M  V30 17 2 14 18
M  V30 18 1 16 19
M  V30 19 2 16 20
M  V30 20 2 17 21
M  V30 21 2 19 22
M  V30 22 1 20 23
M  V30 23 1 21 24
M  V30 24 1 22 25
M  V30 25 2 24 26
M  V30 26 2 25 27
M  V30 27 1 25 28
M  V30 28 1 27 29
M  V30 29 2 28 30
M  V30 30 2 29 31
M  V30 31 1 29 32
M  V30 32 1 32 33
M  V30 33 1 33 34
M  V30 34 1 34 35
M  V30 35 1 34 36
M  V30 36 1 8 10
M  V30 37 1 18 21
M  V30 38 1 22 23
M  V30 39 1 30 31
M  V30 40 1 35 36
M  V30 END BOND
M  V30 END CTAB
M  END
>  <Compound ID>
167

>  <Name>


>  <Uniprot>
Q9NWZ3

>  <Target>
IRAK4

>  <Smiles>
O=CC1=CC=C(N2C=C(NC(=O)C3=COC(C4=CC=NC(NCC5CC5)=C4)=N3)C(C(F)(F)F)=N2)C=C1

>  <Kd (nM)>


>  <Assay (Kd)>


>  <Ki (nM)>


>  <Assay (Ki)>


>  <IC50 (nM)>


>  <Assay (IC50)>


>  <EC50 (nM)>


>  <Assay (EC50)>


>  <Article DOI>


>  <Molecular Weight>
496.449

>  <Exact Mass>
496.147073128

>  <XLogP3>
3.51

>  <Heavy Atom Count>
36

>  <Ring Count>
5

>  <Hydrogen Bond Acceptor Count>
8

>  <Hydrogen Bond Donor Count>
2

>  <Rotatable Bond Count>
8

>  <Topological Polar Surface Area>
114.94

>  <Molecular Formula>
C24H19F3N6O3

>  <InChI>
InChI=1S/C24H19F3N6O3/c25-24(26,27)21-18(11-33(32-21)17-5-3-15(12-34)4-6-17)30-22(35)19-13-36-23(31-19)16-7-8-28-20(9-16)29-10-14-1-2-14/h3-9,11-14H,1-2,10H2,(H,28,29)(H,30,35)

>  <InChI Key>
SEJKGKKQWOYVMZ-UHFFFAOYSA-N

>  <BindingDB>


>  <PubChem>
138694559

>  <ChEMBL>


$$$$
Compound 522
Actelion Java MolfileCreator 2.0

  0  0  0  0  0  0              0 V3000
M  V30 BEGIN CTAB
M  V30 COUNTS 33 37 0 0 0
M  V30 BEGIN ATOM
M  V30 1 O 0.0 0.0 0.0 0
M  V30 2 C -0.5654 -1.3781 0.0 0
M  V30 3 N 0.3533 -2.5443 0.0 0
M  V30 4 C -2.0613 -1.5784 0.0 0
M  V30 5 C 1.8258 -2.3205 0.0 0
M  V30 6 N -3.1215 -0.4947 0.0 0
M  V30 7 C -2.7681 -2.8977 0.0 0
M  V30 8 C 2.8623 -3.3806 0.0 0
M  V30 9 C 2.509 -0.9776 0.0 0
M  V30 10 C -4.4761 -1.1425 0.0 0
M  V30 11 O -4.2523 -2.6385 0.0 0
M  V30 12 N 4.1934 -2.7092 0.0 0
M  V30 13 C 2.6032 -4.8413 0.0 0
M  V30 14 N 3.9696 -1.2132 0.0 0
M  V30 15 C -5.819 -0.4358 0.0 0
M  V30 16 O 3.7458 -5.7836 0.0 0
M  V30 17 N 1.1897 -5.3478 0.0 0
M  V30 18 C 5.0297 -0.1531 0.0 0
M  V30 19 C -7.0911 -1.225 0.0 0
M  V30 20 C -5.8896 1.0719 0.0 0
M  V30 21 C 6.455 -0.5418 0.0 0
M  V30 22 C 4.6528 1.3075 0.0 0
M  V30 23 C -8.434 -0.5182 0.0 0
M  V30 24 C -7.2325 1.7786 0.0 0
M  V30 25 C 7.5152 0.5182 0.0 0
M  V30 26 C 5.7129 2.3676 0.0 0
M  V30 27 N -8.5046 0.9894 0.0 0
M  V30 28 N -9.7061 -1.3075 0.0 0
M  V30 29 C 7.1382 1.9789 0.0 0
M  V30 30 C -11.049 -0.6007 0.0 0
M  V30 31 C -12.3212 -1.3899 0.0 0
M  V30 32 C -13.0279 -2.7092 0.0 0
M  V30 33 C -13.8289 -1.437 0.0 0
M  V30 END ATOM
M  V30 BEGIN BOND
M  V30 1 2 1 2
M  V30 2 1 2 3
M  V30 3 1 2 4
M  V30 4 1 3 5
M  V30 5 1 4 6
M  V30 6 2 4 7
M  V30 7 1 5 8
M  V30 8 2 5 9
M  V30 9 2 6 10
M  V30 10 1 7 11
M  V30 11 2 8 12
M  V30 12 1 8 13
M  V30 13 1 9 14
M  V30 14 1 10 15
M  V30 15 2 13 16
M  V30 16 1 13 17
M  V30 17 1 14 18
M  V30 18 2 15 19
M  V30 19 1 15 20
M  V30 20 2 18 21
M  V30 21 1 18 22
M  V30 22 1 19 23
M  V30 23 2 20 24
M  V30 24 1 21 25
M  V30 25 2 22 26
M  V30 26 2 23 27
M  V30 27 1 23 28
M  V30 28 2 25 29
M  V30 29 1 28 30
M  V30 30 1 30 31
M  V30 31 1 31 32
M  V30 32 1 31 33
M  V30 33 1 10 11
M  V30 34 1 12 14
M  V30 35 1 24 27
M  V30 36 1 26 29
M  V30 37 1 32 33
M  V30 END BOND
M  V30 END CTAB
M  END
>  <Compound ID>
168

>  <Name>


>  <Uniprot>
Q9NWZ3

>  <Target>
IRAK4

>  <Smiles>
NC(=O)C1=NN(C2=CC=CC=C2)C=C1NC(=O)C1=COC(C2=CC=NC(NCC3CC3)=C2)=N1

>  <Kd (nM)>


>  <Assay (Kd)>


>  <Ki (nM)>


>  <Assay (Ki)>


>  <IC50 (nM)>


>  <Assay (IC50)>


>  <EC50 (nM)>


>  <Assay (EC50)>


>  <Article DOI>


>  <Molecular Weight>
443.467

>  <Exact Mass>
443.170587532

>  <XLogP3>
2.89

>  <Heavy Atom Count>
33

>  <Ring Count>
5

>  <Hydrogen Bond Acceptor Count>
8

>  <Hydrogen Bond Donor Count>
3

>  <Rotatable Bond Count>
8

>  <Topological Polar Surface Area>
140.96

>  <Molecular Formula>
C23H21N7O3

>  <InChI>
InChI=1S/C23H21N7O3/c24-21(31)20-17(12-30(29-20)16-4-2-1-3-5-16)27-22(32)18-13-33-23(28-18)15-8-9-25-19(10-15)26-11-14-6-7-14/h1-5,8-10,12-14H,6-7,11H2,(H2,24,31)(H,25,26)(H,27,32)

>  <InChI Key>
RMGQAYYSKWDELF-UHFFFAOYSA-N

>  <BindingDB>


>  <PubChem>
68377822

>  <ChEMBL>


$$$$
Compound 523
Actelion Java MolfileCreator 2.0

  0  0  0  0  0  0              0 V3000
M  V30 BEGIN CTAB
M  V30 COUNTS 36 40 0 0 0
M  V30 BEGIN ATOM
M  V30 1 F 0.0 0.0 0.0 0
M  V30 2 C -1.0683 1.0683 0.0 0
M  V30 3 F -2.5241 0.6926 0.0 0
M  V30 4 C -0.6926 2.5241 0.0 0
M  V30 5 N 0.6926 3.0758 0.0 0
M  V30 6 C -1.6436 3.6981 0.0 0
M  V30 7 N 0.5987 4.5786 0.0 0
M  V30 8 N -3.1463 3.6276 0.0 0
M  V30 9 C -0.8452 4.966 0.0 0
M  V30 10 C 1.7492 5.5295 0.0 0
M  V30 11 C -3.9798 4.8838 0.0 0
M  V30 12 C 1.5027 7.0205 0.0 0
M  V30 13 C 3.1345 5.013 0.0 0
M  V30 14 O -3.3224 6.2222 0.0 0
M  V30 15 C -5.4826 4.8134 0.0 0
M  V30 16 C 2.6532 7.9714 0.0 0
M  V30 17 C 4.2851 5.9639 0.0 0
M  V30 18 N -6.4335 5.9874 0.0 0
M  V30 19 C -6.3044 3.5689 0.0 0
M  V30 20 C 4.0385 7.4549 0.0 0
M  V30 21 C -7.8423 5.4591 0.0 0
M  V30 22 O -7.7601 3.9681 0.0 0
M  V30 23 C 5.1891 8.4058 0.0 0
M  V30 24 C -9.1102 6.2809 0.0 0
M  V30 25 O 6.5744 7.8893 0.0 0
M  V30 26 O 4.9425 9.8968 0.0 0
M  V30 27 C -10.4486 5.6117 0.0 0
M  V30 28 C -9.0515 7.7836 0.0 0
M  V30 29 C -11.7165 6.4335 0.0 0
M  V30 30 C -10.3195 8.6054 0.0 0
M  V30 31 N -11.6578 7.9362 0.0 0
M  V30 32 N -13.0549 5.7643 0.0 0
M  V30 33 C -14.3228 6.5861 0.0 0
M  V30 34 C -15.6612 5.9169 0.0 0
M  V30 35 C -16.483 4.6725 0.0 0
M  V30 36 C -17.1639 5.9991 0.0 0
M  V30 END ATOM
M  V30 BEGIN BOND
M  V30 1 1 1 2
M  V30 2 1 2 3
M  V30 3 1 2 4
M  V30 4 2 4 5
M  V30 5 1 4 6
M  V30 6 1 5 7
M  V30 7 1 6 8
M  V30 8 2 6 9
M  V30 9 1 7 10
M  V30 10 1 8 11
M  V30 11 2 10 12
M  V30 12 1 10 13
M  V30 13 2 11 14
M  V30 14 1 11 15
M  V30 15 1 12 16
M  V30 16 2 13 17
M  V30 17 1 15 18
M  V30 18 2 15 19
M  V30 19 2 16 20
M  V30 20 2 18 21
M  V30 21 1 19 22
M  V30 22 1 20 23
M  V30 23 1 21 24
M  V30 24 2 23 25
M  V30 25 1 23 26
M  V30 26 2 24 27
M  V30 27 1 24 28
M  V30 28 1 27 29
M  V30 29 2 28 30
M  V30 30 2 29 31
M  V30 31 1 29 32
M  V30 32 1 32 33
M  V30 33 1 33 34
M  V30 34 1 34 35
M  V30 35 1 34 36
M  V30 36 1 7 9
M  V30 37 1 17 20
M  V30 38 1 21 22
M  V30 39 1 30 31
M  V30 40 1 35 36
M  V30 END BOND
M  V30 END CTAB
M  END
>  <Compound ID>
169

>  <Name>


>  <Uniprot>
Q9NWZ3

>  <Target>
IRAK4

>  <Smiles>
O=C(O)C1=CC=C(N2C=C(NC(=O)C3=COC(C4=CC=NC(NCC5CC5)=C4)=N3)C(C(F)F)=N2)C=C1

>  <Kd (nM)>


>  <Assay (Kd)>


>  <Ki (nM)>


>  <Assay (Ki)>


>  <IC50 (nM)>


>  <Assay (IC50)>


>  <EC50 (nM)>


>  <Assay (EC50)>


>  <Article DOI>


>  <Molecular Weight>
494.458

>  <Exact Mass>
494.15140956

>  <XLogP3>
3.31

>  <Heavy Atom Count>
36

>  <Ring Count>
5

>  <Hydrogen Bond Acceptor Count>
8

>  <Hydrogen Bond Donor Count>
3

>  <Rotatable Bond Count>
9

>  <Topological Polar Surface Area>
135.17

>  <Molecular Formula>
C24H20F2N6O4

>  <InChI>
InChI=1S/C24H20F2N6O4/c25-21(26)20-17(11-32(31-20)16-5-3-14(4-6-16)24(34)35)29-22(33)18-12-36-23(30-18)15-7-8-27-19(9-15)28-10-13-1-2-13/h3-9,11-13,21H,1-2,10H2,(H,27,28)(H,29,33)(H,34,35)

>  <InChI Key>
JHJVHWPYAYIRCQ-UHFFFAOYSA-N

>  <BindingDB>


>  <PubChem>
138694935

>  <ChEMBL>


$$$$
Compound 524
Actelion Java MolfileCreator 2.0

  0  0  0  0  0  0              0 V3000
M  V30 BEGIN CTAB
M  V30 COUNTS 37 40 0 0 0
M  V30 BEGIN ATOM
M  V30 1 F 0.0 0.0 0.0 0
M  V30 2 C 1.3265 0.7106 0.0 0
M  V30 3 F 0.6159 2.0609 0.0 0
M  V30 4 F 2.0135 -0.6159 0.0 0
M  V30 5 C 2.6531 1.4213 0.0 0
M  V30 6 N 3.9086 0.6277 0.0 0
M  V30 7 C 5.2352 1.3384 0.0 0
M  V30 8 N 5.2826 2.8545 0.0 0
M  V30 9 C 6.4907 0.5448 0.0 0
M  V30 10 C 6.6092 3.5651 0.0 0
M  V30 11 C 7.8173 1.2555 0.0 0
M  V30 12 C 7.8647 2.7716 0.0 0
M  V30 13 C 9.0728 0.4619 0.0 0
M  V30 14 O 9.1558 -1.0304 0.0 0
M  V30 15 N 10.4586 1.0304 0.0 0
M  V30 16 C 10.6008 -1.3976 0.0 0
M  V30 17 C 11.4062 -0.1184 0.0 0
M  V30 18 C 12.8986 -0.0118 0.0 0
M  V30 19 O 13.5619 1.3502 0.0 0
M  V30 20 N 13.7159 -1.2555 0.0 0
M  V30 21 C 15.2083 -1.1489 0.0 0
M  V30 22 C 16.1559 -2.2978 0.0 0
M  V30 23 C 16.0019 0.1302 0.0 0
M  V30 24 N 17.5417 -1.7292 0.0 0
M  V30 25 C 15.765 -3.7428 0.0 0
M  V30 26 N 17.4469 -0.2368 0.0 0
M  V30 27 F 16.831 -4.7851 0.0 0
M  V30 28 F 14.3081 -4.1337 0.0 0
M  V30 29 C 18.5958 0.7343 0.0 0
M  V30 30 C 18.3352 2.2267 0.0 0
M  V30 31 C 19.9935 0.225 0.0 0
M  V30 32 C 19.4842 3.198 0.0 0
M  V30 33 C 21.1424 1.1962 0.0 0
M  V30 34 C 20.8818 2.6887 0.0 0
M  V30 35 C 22.0307 3.6599 0.0 0
M  V30 36 O 23.4284 3.1506 0.0 0
M  V30 37 O 21.7701 5.1523 0.0 0
M  V30 END ATOM
M  V30 BEGIN BOND
M  V30 1 1 1 2
M  V30 2 1 2 3
M  V30 3 1 2 4
M  V30 4 1 2 5
M  V30 5 1 5 6
M  V30 6 1 6 7
M  V30 7 2 7 8
M  V30 8 1 7 9
M  V30 9 1 8 10
M  V30 10 2 9 11
M  V30 11 2 10 12
M  V30 12 1 11 13
M  V30 13 1 13 14
M  V30 14 2 13 15
M  V30 15 1 14 16
M  V30 16 1 15 17
M  V30 17 1 17 18
M  V30 18 2 18 19
M  V30 19 1 18 20
M  V30 20 1 20 21
M  V30 21 1 21 22
M  V30 22 2 21 23
M  V30 23 2 22 24
M  V30 24 1 22 25
M  V30 25 1 23 26
M  V30 26 1 25 27
M  V30 27 1 25 28
M  V30 28 1 26 29
M  V30 29 2 29 30
M  V30 30 1 29 31
M  V30 31 1 30 32
M  V30 32 2 31 33
M  V30 33 2 32 34
M  V30 34 1 34 35
M  V30 35 2 35 36
M  V30 36 1 35 37
M  V30 37 1 11 12
M  V30 38 2 16 17
M  V30 39 1 24 26
M  V30 40 1 33 34
M  V30 END BOND
M  V30 END CTAB
M  END
>  <Compound ID>
170

>  <Name>


>  <Uniprot>
Q9NWZ3

>  <Target>
IRAK4

>  <Smiles>
O=C(O)C1=CC=C(N2C=C(NC(=O)C3=COC(C4=CC=NC(NCC(F)(F)F)=C4)=N3)C(C(F)F)=N2)C=C1

>  <Kd (nM)>


>  <Assay (Kd)>


>  <Ki (nM)>


>  <Assay (Ki)>


>  <IC50 (nM)>


>  <Assay (IC50)>


>  <EC50 (nM)>


>  <Assay (EC50)>


>  <Article DOI>


>  <Molecular Weight>
522.39

>  <Exact Mass>
522.10749406

>  <XLogP3>
3.68

>  <Heavy Atom Count>
37

>  <Ring Count>
4

>  <Hydrogen Bond Acceptor Count>
8

>  <Hydrogen Bond Donor Count>
3

>  <Rotatable Bond Count>
8

>  <Topological Polar Surface Area>
135.17

>  <Molecular Formula>
C22H15F5N6O4

>  <InChI>
InChI=1S/C22H15F5N6O4/c23-18(24)17-14(8-33(32-17)13-3-1-11(2-4-13)21(35)36)30-19(34)15-9-37-20(31-15)12-5-6-28-16(7-12)29-10-22(25,26)27/h1-9,18H,10H2,(H,28,29)(H,30,34)(H,35,36)

>  <InChI Key>
YSQDJEZWAJXZGQ-UHFFFAOYSA-N

>  <BindingDB>


>  <PubChem>
138696042

>  <ChEMBL>


$$$$
Compound 525
Actelion Java MolfileCreator 2.0

  0  0  0  0  0  0              0 V3000
M  V30 BEGIN CTAB
M  V30 COUNTS 31 34 0 0 0
M  V30 BEGIN ATOM
M  V30 1 O 0.0 0.0 0.0 0
M  V30 2 C 0.1885 -1.4726 0.0 0
M  V30 3 O 1.5669 -2.0263 0.0 0
M  V30 4 C -1.0014 -2.3798 0.0 0
M  V30 5 C -0.8129 -3.8524 0.0 0
M  V30 6 C -2.4033 -1.8025 0.0 0
M  V30 7 C -2.0028 -4.7596 0.0 0
M  V30 8 C -3.5933 -2.7097 0.0 0
M  V30 9 C -3.4048 -4.1823 0.0 0
M  V30 10 N -4.5947 -5.0895 0.0 0
M  V30 11 N -4.5593 -6.5739 0.0 0
M  V30 12 C -6.0438 -4.6654 0.0 0
M  V30 13 C -5.9731 -7.0688 0.0 0
M  V30 14 C -6.892 -5.8906 0.0 0
M  V30 15 C -6.3972 -8.4943 0.0 0
M  V30 16 N -8.4 -5.926 0.0 0
M  V30 17 O -5.3722 -9.5664 0.0 0
M  V30 18 N -7.8581 -8.8477 0.0 0
M  V30 19 C -9.2012 -4.6418 0.0 0
M  V30 20 O -8.5061 -3.3105 0.0 0
M  V30 21 C -10.7092 -4.6771 0.0 0
M  V30 22 N -11.6399 -3.4872 0.0 0
M  V30 23 C -11.5574 -5.9024 0.0 0
M  V30 24 C -13.0537 -3.982 0.0 0
M  V30 25 O -13.0065 -5.4783 0.0 0
M  V30 26 C -14.3025 -3.1338 0.0 0
M  V30 27 C -14.2082 -1.6258 0.0 0
M  V30 28 C -15.6573 -3.7818 0.0 0
M  V30 29 C -15.4571 -0.7775 0.0 0
M  V30 30 C -16.9062 -2.9335 0.0 0
M  V30 31 N -16.8119 -1.4255 0.0 0
M  V30 END ATOM
M  V30 BEGIN BOND
M  V30 1 2 1 2
M  V30 2 1 2 3
M  V30 3 1 2 4
M  V30 4 2 4 5
M  V30 5 1 4 6
M  V30 6 1 5 7
M  V30 7 2 6 8
M  V30 8 2 7 9
M  V30 9 1 9 10
M  V30 10 1 10 11
M  V30 11 1 10 12
M  V30 12 2 11 13
M  V30 13 2 12 14
M  V30 14 1 13 15
M  V30 15 1 14 16
M  V30 16 2 15 17
M  V30 17 1 15 18
M  V30 18 1 16 19
M  V30 19 2 19 20
M  V30 20 1 19 21
M  V30 21 1 21 22
M  V30 22 2 21 23
M  V30 23 2 22 24
M  V30 24 1 23 25
M  V30 25 1 24 26
M  V30 26 2 26 27
M  V30 27 1 26 28
M  V30 28 1 27 29
M  V30 29 2 28 30
M  V30 30 2 29 31
M  V30 31 1 8 9
M  V30 32 1 13 14
M  V30 33 1 24 25
M  V30 34 1 30 31
M  V30 END BOND
M  V30 END CTAB
M  END
>  <Compound ID>
171

>  <Name>


>  <Uniprot>
Q9NWZ3

>  <Target>
IRAK4

>  <Smiles>
NC(=O)C1=NN(C2=CC=C(C(=O)O)C=C2)C=C1NC(=O)C1=COC(C2=CC=NC=C2)=N1

>  <Kd (nM)>


>  <Assay (Kd)>


>  <Ki (nM)>


>  <Assay (Ki)>


>  <IC50 (nM)>


>  <Assay (IC50)>


>  <EC50 (nM)>


>  <Assay (EC50)>


>  <Article DOI>


>  <Molecular Weight>
418.369

>  <Exact Mass>
418.102567548

>  <XLogP3>
1.35

>  <Heavy Atom Count>
31

>  <Ring Count>
4

>  <Hydrogen Bond Acceptor Count>
8

>  <Hydrogen Bond Donor Count>
3

>  <Rotatable Bond Count>
6

>  <Topological Polar Surface Area>
166.23

>  <Molecular Formula>
C20H14N6O5

>  <InChI>
InChI=1S/C20H14N6O5/c21-17(27)16-14(9-26(25-16)13-3-1-12(2-4-13)20(29)30)23-18(28)15-10-31-19(24-15)11-5-7-22-8-6-11/h1-10H,(H2,21,27)(H,23,28)(H,29,30)

>  <InChI Key>
HSZVOHYCNGRTDZ-UHFFFAOYSA-N

>  <BindingDB>


>  <PubChem>
138694550

>  <ChEMBL>


$$$$
Compound 526
Actelion Java MolfileCreator 2.0

  0  0  0  0  0  0              0 V3000
M  V30 BEGIN CTAB
M  V30 COUNTS 32 35 0 0 0
M  V30 BEGIN ATOM
M  V30 1 F 0.0 0.0 0.0 0
M  V30 2 C 0.5513 -1.3842 0.0 0
M  V30 3 F -0.8563 -1.9356 0.0 0
M  V30 4 F 1.9356 -0.8094 0.0 0
M  V30 5 C 1.1027 -2.7685 0.0 0
M  V30 6 C 2.5808 -2.9561 0.0 0
M  V30 7 C 0.1642 -3.9415 0.0 0
M  V30 8 C 3.1321 -4.3404 0.0 0
M  V30 9 C 0.7155 -5.3258 0.0 0
M  V30 10 C 4.6102 -4.5281 0.0 0
M  V30 11 C 2.1936 -5.5135 0.0 0
M  V30 12 O 5.1616 -5.9123 0.0 0
M  V30 13 N 5.5252 -3.3315 0.0 0
M  V30 14 C 7.0033 -3.5192 0.0 0
M  V30 15 N 7.7072 -4.8331 0.0 0
M  V30 16 N 8.0356 -2.4165 0.0 0
M  V30 17 C 9.1735 -4.5516 0.0 0
M  V30 18 C 9.373 -3.0617 0.0 0
M  V30 19 C 7.7541 -0.9267 0.0 0 CFG=1
M  V30 20 C 10.3466 -5.4666 0.0 0
M  V30 21 C 10.7572 -2.4869 0.0 0
M  V30 22 C 8.892 0.0586 0.0 0
M  V30 23 C 6.3229 -0.4105 0.0 0
M  V30 24 C 11.7309 -4.8918 0.0 0
M  V30 25 C 11.9303 -3.4019 0.0 0
M  V30 26 C 8.6105 1.5484 0.0 0
M  V30 27 C 6.0414 1.0792 0.0 0
M  V30 28 C 13.3146 -2.8271 0.0 0
M  V30 29 C 7.1793 2.0646 0.0 0 CFG=2
M  V30 30 O 14.4877 -3.7421 0.0 0
M  V30 31 C 6.8977 3.5544 0.0 0
M  V30 32 O 8.0356 4.5398 0.0 0
M  V30 END ATOM
M  V30 BEGIN BOND
M  V30 1 1 1 2
M  V30 2 1 2 3
M  V30 3 1 2 4
M  V30 4 1 2 5
M  V30 5 2 5 6
M  V30 6 1 5 7
M  V30 7 1 6 8
M  V30 8 2 7 9
M  V30 9 1 8 10
M  V30 10 2 8 11
M  V30 11 2 10 12
M  V30 12 1 10 13
M  V30 13 1 13 14
M  V30 14 2 14 15
M  V30 15 1 14 16
M  V30 16 1 15 17
M  V30 17 1 16 18
M  V30 18 1 19 16 CFG=3
M  V30 19 1 17 20
M  V30 20 1 18 21
M  V30 21 1 19 22
M  V30 22 1 19 23
M  V30 23 2 20 24
M  V30 24 2 21 25
M  V30 25 1 22 26
M  V30 26 1 23 27
M  V30 27 1 25 28
M  V30 28 1 26 29
M  V30 29 1 28 30
M  V30 30 1 29 31 CFG=3
M  V30 31 1 31 32
M  V30 32 1 9 11
M  V30 33 2 17 18
M  V30 34 1 24 25
M  V30 35 1 27 29
M  V30 END BOND
M  V30 BEGIN COLLECTION
M  V30 MDLV30/STEABS ATOMS=(2 19 29)
M  V30 END COLLECTION
M  V30 END CTAB
M  END
>  <Compound ID>
172

>  <Name>


>  <Uniprot>
Q9NWZ3

>  <Target>
IRAK4

>  <Smiles>
O=C(NC1=NC2=CC=C(CO)C=C2N1[C@H]1CC[C@@H](CO)CC1)C1=CC=CC(C(F)(F)F)=C1

>  <Kd (nM)>


>  <Assay (Kd)>


>  <Ki (nM)>
0.48

>  <Assay (Ki)>
Ki was tested by the ELISA assay

>  <IC50 (nM)>


>  <Assay (IC50)>


>  <EC50 (nM)>


>  <Assay (EC50)>


>  <Article DOI>
10.1016/j.bmcl.2015.10.060

>  <Molecular Weight>
447.457

>  <Exact Mass>
447.176976288

>  <XLogP3>
3.35

>  <Heavy Atom Count>
32

>  <Ring Count>
4

>  <Hydrogen Bond Acceptor Count>
5

>  <Hydrogen Bond Donor Count>
3

>  <Rotatable Bond Count>
5

>  <Topological Polar Surface Area>
87.38

>  <Molecular Formula>
C23H24F3N3O3

>  <InChI>
InChI=1S/C23H24F3N3O3/c24-23(25,26)17-3-1-2-16(11-17)21(32)28-22-27-19-9-6-15(13-31)10-20(19)29(22)18-7-4-14(12-30)5-8-18/h1-3,6,9-11,14,18,30-31H,4-5,7-8,12-13H2,(H,27,28,32)/t14-,18+

>  <InChI Key>
FZAQHOQVGPMYDL-UJKQEGAGSA-N

>  <BindingDB>
50499205

>  <PubChem>
10114595

>  <ChEMBL>
CHEMBL3734814

$$$$
Compound 527
Actelion Java MolfileCreator 2.0

  0  0  0  0  0  0              0 V3000
M  V30 BEGIN CTAB
M  V30 COUNTS 30 33 0 0 0
M  V30 BEGIN ATOM
M  V30 1 F 0.0 0.0 0.0 0
M  V30 2 C -0.4358 -1.4253 0.0 0
M  V30 3 F 0.9894 -1.8375 0.0 0
M  V30 4 F -1.8846 -0.9894 0.0 0
M  V30 5 C -0.8716 -2.8506 0.0 0
M  V30 6 N -2.3323 -3.1922 0.0 0
M  V30 7 C 0.1531 -3.9225 0.0 0
M  V30 8 C -2.7681 -4.6175 0.0 0
M  V30 9 C -0.2827 -5.3478 0.0 0
M  V30 10 C -4.2287 -4.9591 0.0 0
M  V30 11 C -1.7433 -5.6894 0.0 0
M  V30 12 O -4.6646 -6.3844 0.0 0
M  V30 13 N -5.2771 -3.8636 0.0 0
M  V30 14 C -6.7377 -4.2052 0.0 0
M  V30 15 C -7.1736 -5.6305 0.0 0
M  V30 16 C -7.7861 -3.1097 0.0 0
M  V30 17 O -6.1488 -6.7024 0.0 0
M  V30 18 C -8.6342 -5.9721 0.0 0
M  V30 19 C -9.2467 -3.4513 0.0 0
M  V30 20 C -6.5846 -8.1277 0.0 0
M  V30 21 C -9.6826 -4.8766 0.0 0
M  V30 22 C -10.4954 -2.5914 0.0 0
M  V30 23 N -11.1903 -4.9119 0.0 0
M  V30 24 N -11.6968 -3.4984 0.0 0
M  V30 25 C -13.1457 -3.0626 0.0 0
M  V30 26 C -13.5109 -1.6019 0.0 0
M  V30 27 C -14.2412 -4.0874 0.0 0
M  V30 28 C -14.9597 -1.1661 0.0 0
M  V30 29 C -15.69 -3.6515 0.0 0
M  V30 30 N -16.0552 -2.1909 0.0 0
M  V30 END ATOM
M  V30 BEGIN BOND
M  V30 1 1 1 2
M  V30 2 1 2 3
M  V30 3 1 2 4
M  V30 4 1 2 5
M  V30 5 2 5 6
M  V30 6 1 5 7
M  V30 7 1 6 8
M  V30 8 2 7 9
M  V30 9 1 8 10
M  V30 10 2 8 11
M  V30 11 2 10 12
M  V30 12 1 10 13
M  V30 13 1 13 14
M  V30 14 1 14 15
M  V30 15 2 14 16
M  V30 16 1 15 17
M  V30 17 2 15 18
M  V30 18 1 16 19
M  V30 19 1 17 20
M  V30 20 1 18 21
M  V30 21 2 19 22
M  V30 22 2 21 23
M  V30 23 1 22 24
M  V30 24 1 24 25
M  V30 25 1 25 26
M  V30 26 1 25 27
M  V30 27 1 26 28
M  V30 28 1 27 29
M  V30 29 1 28 30
M  V30 30 1 9 11
M  V30 31 1 19 21
M  V30 32 1 23 24
M  V30 33 1 29 30
M  V30 END BOND
M  V30 END CTAB
M  END
>  <Compound ID>
173

>  <Name>


>  <Uniprot>
Q9NWZ3

>  <Target>
IRAK4

>  <Smiles>
COC1=CC2=NN(C3CCNCC3)C=C2C=C1NC(=O)C1=CC=CC(C(F)(F)F)=N1

>  <Kd (nM)>


>  <Assay (Kd)>


>  <Ki (nM)>


>  <Assay (Ki)>


>  <IC50 (nM)>


>  <Assay (IC50)>


>  <EC50 (nM)>


>  <Assay (EC50)>


>  <Article DOI>


>  <Molecular Weight>
419.407

>  <Exact Mass>
419.15690954

>  <XLogP3>
2.59

>  <Heavy Atom Count>
30

>  <Ring Count>
4

>  <Hydrogen Bond Acceptor Count>
6

>  <Hydrogen Bond Donor Count>
2

>  <Rotatable Bond Count>
4

>  <Topological Polar Surface Area>
81.07

>  <Molecular Formula>
C20H20F3N5O2

>  <InChI>
InChI=1S/C20H20F3N5O2/c1-30-17-10-15-12(11-28(27-15)13-5-7-24-8-6-13)9-16(17)26-19(29)14-3-2-4-18(25-14)20(21,22)23/h2-4,9-11,13,24H,5-8H2,1H3,(H,26,29)

>  <InChI Key>
VKFRWIYGVBBMTK-UHFFFAOYSA-N

>  <BindingDB>


>  <PubChem>
137377454

>  <ChEMBL>


$$$$
Compound 528
Actelion Java MolfileCreator 2.0

  0  0  0  0  0  0              0 V3000
M  V30 BEGIN CTAB
M  V30 COUNTS 32 35 0 0 0
M  V30 BEGIN ATOM
M  V30 1 F 0.0 0.0 0.0 0
M  V30 2 C -0.2361 -1.4759 0.0 0
M  V30 3 C 0.9327 -2.3968 0.0 0
M  V30 4 C -1.6412 -2.019 0.0 0
M  V30 5 C 0.6966 -3.8727 0.0 0
M  V30 6 C 2.3142 -1.8301 0.0 0 CFG=1
M  V30 7 C -1.8773 -3.4949 0.0 0
M  V30 8 F 1.8655 -4.7937 0.0 0
M  V30 9 C -0.7084 -4.4159 0.0 0
M  V30 10 N 2.5267 -0.3306 0.0 0
M  V30 11 C 3.4831 -2.751 0.0 0
M  V30 12 C -3.2824 -4.038 0.0 0
M  V30 13 C 3.9081 0.2361 0.0 0 CFG=1
M  V30 14 C 1.3342 0.6139 0.0 0
M  V30 15 N 3.5657 -4.2387 0.0 0
M  V30 16 C 4.8645 -2.1843 0.0 0
M  V30 17 C -4.4749 -3.0934 0.0 0
M  V30 18 C 5.0771 -0.6848 0.0 0
M  V30 19 C 4.1207 1.7356 0.0 0
M  V30 20 C 1.5467 2.1134 0.0 0
M  V30 21 C 5.0062 -4.6048 0.0 0
M  V30 22 C 5.8091 -3.3296 0.0 0
M  V30 23 C -5.88 -3.6366 0.0 0
M  V30 24 F 1.7592 3.613 0.0 0
M  V30 25 C 3.0226 1.9009 0.0 0
M  V30 26 C 0.0472 2.3496 0.0 0
M  V30 27 C 5.691 -5.9272 0.0 0
M  V30 28 C 7.2968 -3.3768 0.0 0
M  V30 29 O -6.1161 -5.1125 0.0 0
M  V30 30 O -7.0725 -2.692 0.0 0
M  V30 31 C 7.1788 -5.9744 0.0 0
M  V30 32 C 7.9816 -4.6992 0.0 0
M  V30 END ATOM
M  V30 BEGIN BOND
M  V30 1 1 1 2
M  V30 2 2 2 3
M  V30 3 1 2 4
M  V30 4 1 3 5
M  V30 5 1 6 3 CFG=1
M  V30 6 2 4 7
M  V30 7 1 5 8
M  V30 8 2 5 9
M  V30 9 1 6 10
M  V30 10 1 6 11
M  V30 11 1 7 12
M  V30 12 1 10 13
M  V30 13 1 10 14
M  V30 14 1 11 15
M  V30 15 2 11 16
M  V30 16 2 12 17
M  V30 17 1 13 18
M  V30 18 1 13 19 CFG=3
M  V30 19 1 14 20
M  V30 20 1 15 21
M  V30 21 1 16 22
M  V30 22 1 17 23
M  V30 23 1 20 24
M  V30 24 1 20 25
M  V30 25 1 20 26
M  V30 26 1 21 27
M  V30 27 1 22 28
M  V30 28 2 23 29
M  V30 29 1 23 30
M  V30 30 2 27 31
M  V30 31 2 28 32
M  V30 32 1 7 9
M  V30 33 1 16 18
M  V30 34 2 21 22
M  V30 35 1 31 32
M  V30 END BOND
M  V30 BEGIN COLLECTION
M  V30 MDLV30/STEABS ATOMS=(2 6 13)
M  V30 END COLLECTION
M  V30 END CTAB
M  END
>  <Compound ID>
174

>  <Name>
AZD9496

>  <Uniprot>
P03372

>  <Target>
ER

>  <Smiles>
C[C@@H]1CC2=C([NH]C3=CC=CC=C23)[C@@H](C2=C(F)C=C(/C=C/C(=O)O)C=C2F)N1CC(C)(C)F

>  <Kd (nM)>


>  <Assay (Kd)>


>  <Ki (nM)>


>  <Assay (Ki)>


>  <IC50 (nM)>
0.676

>  <Assay (IC50)>
IC50 of ER

>  <EC50 (nM)>


>  <Assay (EC50)>


>  <Article DOI>
10.1021/acs.jmedchem.5b00984

>  <Molecular Weight>
442.481

>  <Exact Mass>
442.1868127

>  <XLogP3>
2.92

>  <Heavy Atom Count>
32

>  <Ring Count>
4

>  <Hydrogen Bond Acceptor Count>
2

>  <Hydrogen Bond Donor Count>
2

>  <Rotatable Bond Count>
5

>  <Topological Polar Surface Area>
56.33

>  <Molecular Formula>
C25H25F3N2O2

>  <InChI>
InChI=1S/C25H25F3N2O2/c1-14-10-17-16-6-4-5-7-20(16)29-23(17)24(30(14)13-25(2,3)28)22-18(26)11-15(12-19(22)27)8-9-21(31)32/h4-9,11-12,14,24,29H,10,13H2,1-3H3,(H,31,32)/b9-8+/t14-,24-/m1/s1

>  <InChI Key>
DFBDRVGWBHBJNR-BBNFHIFMSA-N

>  <BindingDB>
50125052

>  <PubChem>
86287635

>  <ChEMBL>
CHEMBL3623004

$$$$
Compound 529
Actelion Java MolfileCreator 2.0

  0  0  0  0  0  0              0 V3000
M  V30 BEGIN CTAB
M  V30 COUNTS 37 42 0 0 0
M  V30 BEGIN ATOM
M  V30 1 S 0.0 0.0 0.0 0
M  V30 2 C -0.9066 -1.2009 0.0 0
M  V30 3 C -0.883 1.2362 0.0 0
M  V30 4 N -2.343 -0.7182 0.0 0
M  V30 5 N -0.4709 -2.6256 0.0 0
M  V30 6 C -2.3312 0.8006 0.0 0
M  V30 7 C 0.989 -2.9435 0.0 0
M  V30 8 O 1.9898 -1.825 0.0 0
M  V30 9 C 1.4246 -4.3682 0.0 0 CFG=2
M  V30 10 N 2.8846 -4.6861 0.0 0
M  V30 11 C 0.4003 -5.4632 0.0 0
M  V30 12 C 3.9914 -3.6735 0.0 0
M  V30 13 C 3.4733 -6.0519 0.0 0
M  V30 14 C -1.0832 -5.1217 0.0 0
M  V30 15 C 0.8359 -6.8879 0.0 0
M  V30 16 O 3.8383 -2.1664 0.0 0
M  V30 17 C 5.2748 -4.427 0.0 0
M  V30 18 C 4.9569 -5.8988 0.0 0
M  V30 19 C -2.1075 -6.2167 0.0 0
M  V30 20 C -0.1883 -7.9829 0.0 0
M  V30 21 C 6.6995 -3.9679 0.0 0
M  V30 22 C 6.0519 -6.8996 0.0 0
M  V30 23 C -1.6719 -7.6414 0.0 0
M  V30 24 C 7.7945 -4.9687 0.0 0
M  V30 25 C 7.4766 -6.4404 0.0 0
M  V30 26 C 9.2191 -4.5095 0.0 0
M  V30 27 C 10.3141 -5.5103 0.0 0
M  V30 28 C 9.537 -3.0259 0.0 0
M  V30 29 C 11.7388 -5.0511 0.0 0
M  V30 30 C 10.9617 -2.5667 0.0 0
M  V30 31 C 12.0567 -3.5675 0.0 0
M  V30 32 N 13.4814 -3.1083 0.0 0
M  V30 33 C 14.5764 -4.1091 0.0 0
M  V30 34 C 13.7993 -1.6248 0.0 0
M  V30 35 C 16.0011 -3.65 0.0 0
M  V30 36 C 15.224 -1.1656 0.0 0
M  V30 37 N 16.319 -2.1664 0.0 0
M  V30 END ATOM
M  V30 BEGIN BOND
M  V30 1 1 1 2
M  V30 2 1 1 3
M  V30 3 2 2 4
M  V30 4 1 2 5
M  V30 5 2 3 6
M  V30 6 1 5 7
M  V30 7 2 7 8
M  V30 8 1 7 9
M  V30 9 1 9 10 CFG=3
M  V30 10 1 9 11
M  V30 11 1 10 12
M  V30 12 1 10 13
M  V30 13 2 11 14
M  V30 14 1 11 15
M  V30 15 2 12 16
M  V30 16 1 12 17
M  V30 17 1 13 18
M  V30 18 1 14 19
M  V30 19 2 15 20
M  V30 20 1 17 21
M  V30 21 1 18 22
M  V30 22 2 19 23
M  V30 23 2 21 24
M  V30 24 2 22 25
M  V30 25 1 24 26
M  V30 26 2 26 27
M  V30 27 1 26 28
M  V30 28 1 27 29
M  V30 29 2 28 30
M  V30 30 2 29 31
M  V30 31 1 31 32
M  V30 32 1 32 33
M  V30 33 1 32 34
M  V30 34 1 33 35
M  V30 35 1 34 36
M  V30 36 1 35 37
M  V30 37 1 4 6
M  V30 38 2 17 18
M  V30 39 1 20 23
M  V30 40 1 24 25
M  V30 41 1 30 31
M  V30 42 1 36 37
M  V30 END BOND
M  V30 BEGIN COLLECTION
M  V30 MDLV30/STERAC1 ATOMS=(1 9)
M  V30 END COLLECTION
M  V30 END CTAB
M  END
>  <Compound ID>
175

>  <Name>


>  <Uniprot>
P00533

>  <Target>
EGFR

>  <Smiles>
O=C(NC1=NC=CS1)C(C1=CC=CC=C1)N1CC2=CC=C(C3=CC=C(N4CCNCC4)C=C3)C=C2C1=O

>  <Kd (nM)>


>  <Assay (Kd)>


>  <Ki (nM)>


>  <Assay (Ki)>


>  <IC50 (nM)>


>  <Assay (IC50)>


>  <EC50 (nM)>


>  <Assay (EC50)>


>  <Article DOI>


>  <Molecular Weight>
509.635

>  <Exact Mass>
509.188546104

>  <XLogP3>
4.01

>  <Heavy Atom Count>
37

>  <Ring Count>
6

>  <Hydrogen Bond Acceptor Count>
6

>  <Hydrogen Bond Donor Count>
2

>  <Rotatable Bond Count>
6

>  <Topological Polar Surface Area>
77.57

>  <Molecular Formula>
C29H27N5O2S

>  <InChI>
InChI=1S/C29H27N5O2S/c35-27(32-29-31-14-17-37-29)26(21-4-2-1-3-5-21)34-19-23-7-6-22(18-25(23)28(34)36)20-8-10-24(11-9-20)33-15-12-30-13-16-33/h1-11,14,17-18,26,30H,12-13,15-16,19H2,(H,31,32,35)

>  <InChI Key>
QXFMIOWJOJZIRH-UHFFFAOYSA-N

>  <BindingDB>


>  <PubChem>
135351574

>  <ChEMBL>


$$$$
Compound 530
Actelion Java MolfileCreator 2.0

  0  0  0  0  0  0              0 V3000
M  V30 BEGIN CTAB
M  V30 COUNTS 37 42 0 0 0
M  V30 BEGIN ATOM
M  V30 1 S 0.0 0.0 0.0 0
M  V30 2 C -0.9066 -1.2009 0.0 0
M  V30 3 C -0.883 1.2362 0.0 0
M  V30 4 N -2.343 -0.7182 0.0 0
M  V30 5 N -0.4709 -2.6256 0.0 0
M  V30 6 C -2.3312 0.8006 0.0 0
M  V30 7 C 0.989 -2.9435 0.0 0
M  V30 8 O 1.9898 -1.825 0.0 0
M  V30 9 C 1.4246 -4.3682 0.0 0 CFG=2
M  V30 10 N 2.8846 -4.6861 0.0 0
M  V30 11 C 0.4003 -5.4632 0.0 0
M  V30 12 C 3.9914 -3.6735 0.0 0
M  V30 13 C 3.4733 -6.0519 0.0 0
M  V30 14 C -1.0832 -5.1217 0.0 0
M  V30 15 C 0.8359 -6.8879 0.0 0
M  V30 16 O 3.8383 -2.1664 0.0 0
M  V30 17 C 5.2748 -4.427 0.0 0
M  V30 18 C 4.9569 -5.8988 0.0 0
M  V30 19 C -2.1075 -6.2167 0.0 0
M  V30 20 C -0.1883 -7.9829 0.0 0
M  V30 21 C 6.6995 -3.9679 0.0 0
M  V30 22 C 6.0519 -6.8996 0.0 0
M  V30 23 C -1.6719 -7.6414 0.0 0
M  V30 24 C 7.7945 -4.9687 0.0 0
M  V30 25 C 7.4766 -6.4404 0.0 0
M  V30 26 C 9.2191 -4.5095 0.0 0
M  V30 27 C 9.537 -3.0259 0.0 0
M  V30 28 C 10.3141 -5.5103 0.0 0
M  V30 29 N 10.9617 -2.5667 0.0 0
M  V30 30 C 11.7388 -5.0511 0.0 0
M  V30 31 C 12.0567 -3.5675 0.0 0
M  V30 32 N 13.4814 -3.1083 0.0 0
M  V30 33 C 14.5764 -4.1091 0.0 0
M  V30 34 C 13.7993 -1.6248 0.0 0
M  V30 35 C 16.0011 -3.65 0.0 0
M  V30 36 C 15.224 -1.1656 0.0 0
M  V30 37 N 16.319 -2.1664 0.0 0
M  V30 END ATOM
M  V30 BEGIN BOND
M  V30 1 1 1 2
M  V30 2 1 1 3
M  V30 3 2 2 4
M  V30 4 1 2 5
M  V30 5 2 3 6
M  V30 6 1 5 7
M  V30 7 2 7 8
M  V30 8 1 7 9
M  V30 9 1 9 10 CFG=3
M  V30 10 1 9 11
M  V30 11 1 10 12
M  V30 12 1 10 13
M  V30 13 2 11 14
M  V30 14 1 11 15
M  V30 15 2 12 16
M  V30 16 1 12 17
M  V30 17 1 13 18
M  V30 18 1 14 19
M  V30 19 2 15 20
M  V30 20 1 17 21
M  V30 21 1 18 22
M  V30 22 2 19 23
M  V30 23 2 21 24
M  V30 24 2 22 25
M  V30 25 1 24 26
M  V30 26 2 26 27
M  V30 27 1 26 28
M  V30 28 1 27 29
M  V30 29 2 28 30
M  V30 30 2 29 31
M  V30 31 1 31 32
M  V30 32 1 32 33
M  V30 33 1 32 34
M  V30 34 1 33 35
M  V30 35 1 34 36
M  V30 36 1 35 37
M  V30 37 1 4 6
M  V30 38 2 17 18
M  V30 39 1 20 23
M  V30 40 1 24 25
M  V30 41 1 30 31
M  V30 42 1 36 37
M  V30 END BOND
M  V30 BEGIN COLLECTION
M  V30 MDLV30/STERAC1 ATOMS=(1 9)
M  V30 END COLLECTION
M  V30 END CTAB
M  END
>  <Compound ID>
176

>  <Name>
JBJ-07-149

>  <Uniprot>
P00533

>  <Target>
EGFR

>  <Smiles>
O=C(NC1=NC=CS1)C(C1=CC=CC=C1)N1CC2=CC=C(C3=CC=C(N4CCNCC4)N=C3)C=C2C1=O

>  <Kd (nM)>


>  <Assay (Kd)>


>  <Ki (nM)>


>  <Assay (Ki)>


>  <IC50 (nM)>
1.1

>  <Assay (IC50)>
IC50 of L858R/T790M EGFR was assessed using HTRF assay

>  <EC50 (nM)>


>  <Assay (EC50)>


>  <Article DOI>
10.1002/anie.202003500

>  <Molecular Weight>
510.623

>  <Exact Mass>
510.183795072

>  <XLogP3>
3.27

>  <Heavy Atom Count>
37

>  <Ring Count>
6

>  <Hydrogen Bond Acceptor Count>
7

>  <Hydrogen Bond Donor Count>
2

>  <Rotatable Bond Count>
6

>  <Topological Polar Surface Area>
90.46

>  <Molecular Formula>
C28H26N6O2S

>  <InChI>
InChI=1S/C28H26N6O2S/c35-26(32-28-30-12-15-37-28)25(19-4-2-1-3-5-19)34-18-22-7-6-20(16-23(22)27(34)36)21-8-9-24(31-17-21)33-13-10-29-11-14-33/h1-9,12,15-17,25,29H,10-11,13-14,18H2,(H,30,32,35)

>  <InChI Key>
HXPIITIHOKIXNN-UHFFFAOYSA-N

>  <BindingDB>


>  <PubChem>
138534234

>  <ChEMBL>


$$$$
Compound 531
Actelion Java MolfileCreator 2.0

  0  0  0  0  0  0              0 V3000
M  V30 BEGIN CTAB
M  V30 COUNTS 33 37 0 0 0
M  V30 BEGIN ATOM
M  V30 1 Cl 0.0 0.0 0.0 0
M  V30 2 C -0.256 -1.4665 0.0 0
M  V30 3 C 0.8961 -2.4092 0.0 0
M  V30 4 C -1.6643 -1.9786 0.0 0
M  V30 5 C 0.6401 -3.8757 0.0 0
M  V30 6 C 2.2812 -1.8738 0.0 0
M  V30 7 C -1.9204 -3.4451 0.0 0
M  V30 8 F 1.7923 -4.8185 0.0 0
M  V30 9 C -0.7681 -4.3878 0.0 0
M  V30 10 C 2.514 -0.384 0.0 0
M  V30 11 C 3.4334 -2.8166 0.0 0
M  V30 12 C -3.3287 -3.9572 0.0 0
M  V30 13 N -1.0242 -5.8543 0.0 0
M  V30 14 C 3.899 0.1513 0.0 0
M  V30 15 C 1.3384 0.5819 0.0 0
M  V30 16 C 4.8185 -2.2812 0.0 0
M  V30 17 N -3.5847 -5.4237 0.0 0
M  V30 18 N -4.5042 -2.9911 0.0 0
M  V30 19 C -2.4325 -6.3664 0.0 0
M  V30 20 C 5.0512 -0.7914 0.0 0
M  V30 21 C 4.1318 1.641 0.0 0
M  V30 22 C 1.5712 2.0717 0.0 0
M  V30 23 O 5.9707 -3.2239 0.0 0
M  V30 24 C -4.2714 -1.5014 0.0 0
M  V30 25 C -5.9125 -3.5033 0.0 0
M  V30 26 C 2.9562 2.6071 0.0 0
M  V30 27 C -5.447 -0.5353 0.0 0
M  V30 28 C -7.088 -2.5372 0.0 0
M  V30 29 N -6.8553 -1.0475 0.0 0
M  V30 30 C -8.0308 -0.0814 0.0 0
M  V30 31 O -9.4391 -0.5935 0.0 0
M  V30 32 C -7.798 1.4083 0.0 0
M  V30 33 C -8.9735 2.3743 0.0 0
M  V30 END ATOM
M  V30 BEGIN BOND
M  V30 1 1 1 2
M  V30 2 1 3 2 CFG=3
M  V30 3 2 2 4
M  V30 4 2 3 5
M  V30 5 1 3 6
M  V30 6 1 4 7
M  V30 7 1 5 8
M  V30 8 1 5 9
M  V30 9 1 6 10
M  V30 10 2 6 11
M  V30 11 2 7 12
M  V30 12 2 9 13
M  V30 13 1 10 14
M  V30 14 2 10 15
M  V30 15 1 11 16
M  V30 16 1 12 17
M  V30 17 1 12 18
M  V30 18 1 13 19
M  V30 19 1 14 20
M  V30 20 2 14 21
M  V30 21 1 15 22
M  V30 22 1 16 23
M  V30 23 1 18 24
M  V30 24 1 18 25
M  V30 25 1 21 26
M  V30 26 1 24 27
M  V30 27 1 25 28
M  V30 28 1 27 29
M  V30 29 1 29 30
M  V30 30 2 30 31
M  V30 31 1 30 32
M  V30 32 1 32 33
M  V30 33 1 7 9
M  V30 34 2 16 20
M  V30 35 2 17 19
M  V30 36 2 22 26
M  V30 37 1 28 29
M  V30 END BOND
M  V30 BEGIN COLLECTION
M  V30 MDLV30/STERAC1 BONDS=(1 5)
M  V30 END COLLECTION
M  V30 END CTAB
M  END
>  <Compound ID>
177

>  <Name>


>  <Uniprot>
P01116

>  <Target>
KRAS

>  <Smiles>
CCC(=O)N1CCN(C2=NC=NC3=C(F)C(C4=CC(O)=CC5=CC=CC=C45)=C(Cl)C=C23)CC1

>  <Kd (nM)>


>  <Assay (Kd)>


>  <Ki (nM)>


>  <Assay (Ki)>


>  <IC50 (nM)>


>  <Assay (IC50)>


>  <EC50 (nM)>


>  <Assay (EC50)>


>  <Article DOI>


>  <Molecular Weight>
464.928

>  <Exact Mass>
464.141531844

>  <XLogP3>
4.99

>  <Heavy Atom Count>
33

>  <Ring Count>
5

>  <Hydrogen Bond Acceptor Count>
5

>  <Hydrogen Bond Donor Count>
1

>  <Rotatable Bond Count>
3

>  <Topological Polar Surface Area>
69.56

>  <Molecular Formula>
C25H22ClFN4O2

>  <InChI>
InChI=1S/C25H22ClFN4O2/c1-2-21(33)30-7-9-31(10-8-30)25-19-13-20(26)22(23(27)24(19)28-14-29-25)18-12-16(32)11-15-5-3-4-6-17(15)18/h3-6,11-14,32H,2,7-10H2,1H3

>  <InChI Key>
CWHKFUMZXCHDNR-UHFFFAOYSA-N

>  <BindingDB>


>  <PubChem>
130377686

>  <ChEMBL>


$$$$
Compound 532
Actelion Java MolfileCreator 2.0

  0  0  0  0  0  0              0 V3000
M  V30 BEGIN CTAB
M  V30 COUNTS 24 26 0 0 0
M  V30 BEGIN ATOM
M  V30 1 Cl 0.0 0.0 0.0 0
M  V30 2 C -0.497 -1.4101 0.0 0
M  V30 3 C -1.9765 -1.6875 0.0 0
M  V30 4 C 0.4739 -2.5197 0.0 0
M  V30 5 S -2.9705 -0.5548 0.0 0
M  V30 6 C -2.4735 -3.0977 0.0 0
M  V30 7 N 1.9303 -2.2192 0.0 0
M  V30 8 C -0.0231 -3.9299 0.0 0
M  V30 9 C -4.45 -0.8322 0.0 0
M  V30 10 C -1.5026 -4.2073 0.0 0
M  V30 11 N -4.9471 -2.2423 0.0 0
M  V30 12 C -5.4441 0.3005 0.0 0
M  V30 13 C -6.4266 -2.5197 0.0 0
M  V30 14 N -6.9236 0.0231 0.0 0
M  V30 15 N -4.9702 1.7338 0.0 0
M  V30 16 C -7.4206 -1.387 0.0 0
M  V30 17 N -8.9001 -1.6644 0.0 0
M  V30 18 C -9.8942 -0.5316 0.0 0
M  V30 19 C -9.3972 -3.0746 0.0 0
M  V30 20 C -11.3737 -0.8091 0.0 0
M  V30 21 C -10.8767 -3.352 0.0 0
M  V30 22 C -11.8707 -2.2192 0.0 0
M  V30 23 N -13.2 -1.491 0.0 0
M  V30 24 C -12.8185 -3.3751 0.0 0
M  V30 END ATOM
M  V30 BEGIN BOND
M  V30 1 1 1 2
M  V30 2 2 2 3
M  V30 3 1 2 4
M  V30 4 1 3 5
M  V30 5 1 3 6
M  V30 6 1 4 7
M  V30 7 2 4 8
M  V30 8 1 5 9
M  V30 9 2 6 10
M  V30 10 2 9 11
M  V30 11 1 9 12
M  V30 12 1 11 13
M  V30 13 2 12 14
M  V30 14 1 12 15
M  V30 15 2 13 16
M  V30 16 1 16 17
M  V30 17 1 17 18
M  V30 18 1 17 19
M  V30 19 1 18 20
M  V30 20 1 19 21
M  V30 21 1 20 22
M  V30 22 1 22 23
M  V30 23 1 22 24
M  V30 24 1 8 10
M  V30 25 1 14 16
M  V30 26 1 21 22
M  V30 END BOND
M  V30 END CTAB
M  END
>  <Compound ID>
178

>  <Name>


>  <Uniprot>
Q06124

>  <Target>
SHP2

>  <Smiles>
CC1(N)CCN(C2=CN=C(SC3=CC=CC(N)=C3Cl)C(N)=N2)CC1

>  <Kd (nM)>


>  <Assay (Kd)>


>  <Ki (nM)>


>  <Assay (Ki)>


>  <IC50 (nM)>
76.2

>  <Assay (IC50)>
Allosteric inhibition of SHP2

>  <EC50 (nM)>


>  <Assay (EC50)>


>  <Article DOI>
10.1021/acs.jmedchem.0c00471

>  <Molecular Weight>
364.906

>  <Exact Mass>
364.123693352

>  <XLogP3>
2.04

>  <Heavy Atom Count>
24

>  <Ring Count>
3

>  <Hydrogen Bond Acceptor Count>
7

>  <Hydrogen Bond Donor Count>
3

>  <Rotatable Bond Count>
3

>  <Topological Polar Surface Area>
107.08

>  <Molecular Formula>
C16H21ClN6S

>  <InChI>
InChI=1S/C16H21ClN6S/c1-16(20)5-7-23(8-6-16)12-9-21-15(14(19)22-12)24-11-4-2-3-10(18)13(11)17/h2-4,9H,5-8,18,20H2,1H3,(H2,19,22)

>  <InChI Key>
WNFIWADQGMQPQN-UHFFFAOYSA-N

>  <BindingDB>
392311

>  <PubChem>
118239524

>  <ChEMBL>


$$$$
Compound 533
Actelion Java MolfileCreator 2.0

  0  0  0  0  0  0              0 V3000
M  V30 BEGIN CTAB
M  V30 COUNTS 35 38 0 0 0
M  V30 BEGIN ATOM
M  V30 1 S 0.0 0.0 0.0 0
M  V30 2 O -1.4046 0.5735 0.0 0
M  V30 3 O 1.3812 -0.5501 0.0 0
M  V30 4 N 0.5501 1.4046 0.0 0
M  V30 5 C -0.5735 -1.3812 0.0 0
M  V30 6 C -0.3862 2.5986 0.0 0
M  V30 7 C 2.025 1.627 0.0 0
M  V30 8 N -1.8845 2.3996 0.0 0
M  V30 9 C 0.1638 4.0033 0.0 0
M  V30 10 C -2.821 3.5936 0.0 0
M  V30 11 C -0.7725 5.1972 0.0 0
M  V30 12 C 1.6387 4.2257 0.0 0
M  V30 13 C -2.2708 4.9982 0.0 0
M  V30 14 N 2.5518 3.0551 0.0 0
M  V30 15 C 4.0267 3.2775 0.0 0
M  V30 16 N 4.9397 2.107 0.0 0
M  V30 17 C 4.5768 4.6822 0.0 0
M  V30 18 C 6.4146 2.3294 0.0 0
M  V30 19 C 6.0517 4.9046 0.0 0
M  V30 20 C 3.6404 5.8762 0.0 0
M  V30 21 N 6.9648 3.734 0.0 0
M  V30 22 N 7.3276 1.1588 0.0 0
M  V30 23 F 2.7039 7.0701 0.0 0
M  V30 24 F 4.8109 6.8126 0.0 0
M  V30 25 F 2.4464 4.9631 0.0 0
M  V30 26 C 8.8026 1.3812 0.0 0
M  V30 27 C 9.3527 2.7859 0.0 0
M  V30 28 C 9.7156 0.2107 0.0 0
M  V30 29 C 10.8276 3.0083 0.0 0
M  V30 30 C 11.1905 0.4331 0.0 0
M  V30 31 C 11.7407 1.8377 0.0 0
M  V30 32 C 11.647 4.2725 0.0 0
M  V30 33 N 13.1336 2.3645 0.0 0
M  V30 34 C 13.0751 3.8745 0.0 0
M  V30 35 O 14.2457 4.8109 0.0 0
M  V30 END ATOM
M  V30 BEGIN BOND
M  V30 1 2 1 2
M  V30 2 2 1 3
M  V30 3 1 1 4
M  V30 4 1 1 5
M  V30 5 1 4 6
M  V30 6 1 4 7
M  V30 7 2 6 8
M  V30 8 1 6 9
M  V30 9 1 8 10
M  V30 10 2 9 11
M  V30 11 1 9 12
M  V30 12 2 10 13
M  V30 13 1 12 14
M  V30 14 1 14 15
M  V30 15 2 15 16
M  V30 16 1 15 17
M  V30 17 1 16 18
M  V30 18 2 17 19
M  V30 19 1 17 20
M  V30 20 2 18 21
M  V30 21 1 18 22
M  V30 22 1 20 23
M  V30 23 1 20 24
M  V30 24 1 20 25
M  V30 25 1 22 26
M  V30 26 2 26 27
M  V30 27 1 26 28
M  V30 28 1 27 29
M  V30 29 2 28 30
M  V30 30 2 29 31
M  V30 31 1 29 32
M  V30 32 1 31 33
M  V30 33 1 32 34
M  V30 34 2 34 35
M  V30 35 1 11 13
M  V30 36 1 19 21
M  V30 37 1 30 31
M  V30 38 1 33 34
M  V30 END BOND
M  V30 END CTAB
M  END
>  <Compound ID>
179

>  <Name>
PF-562271

>  <Uniprot>
Q05397

>  <Target>
FAK

>  <Smiles>
CN(C1=NC=CC=C1CNC1=NC(NC2=CC=C3NC(=O)CC3=C2)=NC=C1C(F)(F)F)S(C)(=O)=O

>  <Kd (nM)>


>  <Assay (Kd)>


>  <Ki (nM)>


>  <Assay (Ki)>


>  <IC50 (nM)>
1.5

>  <Assay (IC50)>
Inhibition of FAK

>  <EC50 (nM)>


>  <Assay (EC50)>


>  <Article DOI>
10.1021/jm9018756

>  <Molecular Weight>
507.498

>  <Exact Mass>
507.13004316

>  <XLogP3>
2.04

>  <Heavy Atom Count>
35

>  <Ring Count>
4

>  <Hydrogen Bond Acceptor Count>
8

>  <Hydrogen Bond Donor Count>
3

>  <Rotatable Bond Count>
7

>  <Topological Polar Surface Area>
129.21

>  <Molecular Formula>
C21H20F3N7O3S

>  <InChI>
InChI=1S/C21H20F3N7O3S/c1-31(35(2,33)34)19-12(4-3-7-25-19)10-26-18-15(21(22,23)24)11-27-20(30-18)28-14-5-6-16-13(8-14)9-17(32)29-16/h3-8,11H,9-10H2,1-2H3,(H,29,32)(H2,26,27,28,30)

>  <InChI Key>
MZDKLVOWGIOKTN-UHFFFAOYSA-N

>  <BindingDB>
50318884

>  <PubChem>
11713159

>  <ChEMBL>
CHEMBL1084546

$$$$
Compound 534
Actelion Java MolfileCreator 2.0

  0  0  0  0  0  0              0 V3000
M  V30 BEGIN CTAB
M  V30 COUNTS 39 44 0 0 0
M  V30 BEGIN ATOM
M  V30 1 S 0.0 0.0 0.0 0
M  V30 2 C -0.933 -1.1811 0.0 0
M  V30 3 C -0.8622 1.2519 0.0 0
M  V30 4 N -2.3622 -0.6614 0.0 0
M  V30 5 N -0.5196 -2.6102 0.0 0
M  V30 6 C -2.3149 0.8385 0.0 0
M  V30 7 C 0.933 -2.9527 0.0 0
M  V30 8 O 1.9606 -1.8543 0.0 0
M  V30 9 C 1.3464 -4.3819 0.0 0 CFG=2
M  V30 10 N 2.7992 -4.7244 0.0 0
M  V30 11 C 0.2952 -5.4567 0.0 0
M  V30 12 C 3.9331 -3.7441 0.0 0
M  V30 13 C 3.3543 -6.1063 0.0 0
M  V30 14 C 0.7086 -6.8859 0.0 0
M  V30 15 C -1.1811 -5.0906 0.0 0
M  V30 16 O 3.815 -2.2323 0.0 0
M  V30 17 C 5.1969 -4.5236 0.0 0
M  V30 18 C 4.8425 -5.9882 0.0 0
M  V30 19 O 2.1614 -7.2284 0.0 0
M  V30 20 C -0.3425 -7.9607 0.0 0
M  V30 21 C -2.2323 -6.1654 0.0 0
M  V30 22 C 6.626 -4.0866 0.0 0
M  V30 23 C 5.9173 -7.0158 0.0 0
M  V30 24 C -1.8189 -7.5945 0.0 0
M  V30 25 F -3.7087 -5.7992 0.0 0
M  V30 26 C 7.7008 -5.1142 0.0 0
M  V30 27 C 7.3465 -6.5788 0.0 0
M  V30 28 C 9.13 -4.6772 0.0 0
M  V30 29 C 10.2048 -5.7047 0.0 0
M  V30 30 C 9.4725 -3.2008 0.0 0
M  V30 31 C 11.634 -5.2677 0.0 0
M  V30 32 C 10.9017 -2.7638 0.0 0
M  V30 33 C 11.9765 -3.7913 0.0 0
M  V30 34 N 13.4056 -3.3543 0.0 0
M  V30 35 C 14.4804 -4.3819 0.0 0
M  V30 36 C 13.7482 -1.8779 0.0 0
M  V30 37 C 15.9096 -3.9449 0.0 0
M  V30 38 C 15.1773 -1.4409 0.0 0
M  V30 39 N 16.2521 -2.4685 0.0 0
M  V30 END ATOM
M  V30 BEGIN BOND
M  V30 1 1 1 2
M  V30 2 1 1 3
M  V30 3 2 2 4
M  V30 4 1 2 5
M  V30 5 2 3 6
M  V30 6 1 5 7
M  V30 7 2 7 8
M  V30 8 1 7 9
M  V30 9 1 9 10 CFG=3
M  V30 10 1 9 11
M  V30 11 1 10 12
M  V30 12 1 10 13
M  V30 13 2 11 14
M  V30 14 1 11 15
M  V30 15 2 12 16
M  V30 16 1 12 17
M  V30 17 1 13 18
M  V30 18 1 14 19
M  V30 19 1 14 20
M  V30 20 2 15 21
M  V30 21 1 17 22
M  V30 22 1 18 23
M  V30 23 2 20 24
M  V30 24 1 21 25
M  V30 25 2 22 26
M  V30 26 2 23 27
M  V30 27 1 26 28
M  V30 28 2 28 29
M  V30 29 1 28 30
M  V30 30 1 29 31
M  V30 31 2 30 32
M  V30 32 2 31 33
M  V30 33 1 33 34
M  V30 34 1 34 35
M  V30 35 1 34 36
M  V30 36 1 35 37
M  V30 37 1 36 38
M  V30 38 1 37 39
M  V30 39 1 4 6
M  V30 40 2 17 18
M  V30 41 1 21 24
M  V30 42 1 26 27
M  V30 43 1 32 33
M  V30 44 1 38 39
M  V30 END BOND
M  V30 BEGIN COLLECTION
M  V30 MDLV30/STERAC1 ATOMS=(1 9)
M  V30 END COLLECTION
M  V30 END CTAB
M  END
>  <Compound ID>
180

>  <Name>
JBJ-04-125-02

>  <Uniprot>
P00533

>  <Target>
EGFR

>  <Smiles>
O=C(NC1=NC=CS1)C(C1=CC(F)=CC=C1O)N1CC2=CC=C(C3=CC=C(N4CCNCC4)C=C3)C=C2C1=O

>  <Kd (nM)>


>  <Assay (Kd)>


>  <Ki (nM)>


>  <Assay (Ki)>


>  <IC50 (nM)>
0.26

>  <Assay (IC50)>
IC50 of L858R/T790M EGFR was assessed using HTRF assay

>  <EC50 (nM)>


>  <Assay (EC50)>


>  <Article DOI>
10.1158/2159-8290.CD-18-0903

>  <Molecular Weight>
543.624

>  <Exact Mass>
543.174038912

>  <XLogP3>
3.76

>  <Heavy Atom Count>
39

>  <Ring Count>
6

>  <Hydrogen Bond Acceptor Count>
7

>  <Hydrogen Bond Donor Count>
3

>  <Rotatable Bond Count>
6

>  <Topological Polar Surface Area>
97.8

>  <Molecular Formula>
C29H26FN5O3S

>  <InChI>
InChI=1S/C29H26FN5O3S/c30-21-5-8-25(36)24(16-21)26(27(37)33-29-32-11-14-39-29)35-17-20-2-1-19(15-23(20)28(35)38)18-3-6-22(7-4-18)34-12-9-31-10-13-34/h1-8,11,14-16,26,31,36H,9-10,12-13,17H2,(H,32,33,37)

>  <InChI Key>
VHQVOTINPRYDAO-UHFFFAOYSA-N

>  <BindingDB>


>  <PubChem>
132020316

>  <ChEMBL>


$$$$
Compound 535
Actelion Java MolfileCreator 2.0

  0  0  0  0  0  0              0 V3000
M  V30 BEGIN CTAB
M  V30 COUNTS 39 44 0 0 0
M  V30 BEGIN ATOM
M  V30 1 S 0.0 0.0 0.0 0
M  V30 2 C -0.933 -1.1811 0.0 0
M  V30 3 C -0.8622 1.2519 0.0 0
M  V30 4 N -2.3622 -0.6614 0.0 0
M  V30 5 N -0.5196 -2.6102 0.0 0
M  V30 6 C -2.3149 0.8385 0.0 0
M  V30 7 C 0.933 -2.9527 0.0 0
M  V30 8 O 1.9606 -1.8543 0.0 0
M  V30 9 C 1.3464 -4.3819 0.0 0 CFG=2
M  V30 10 N 2.7992 -4.7244 0.0 0
M  V30 11 C 0.2952 -5.4567 0.0 0
M  V30 12 C 3.9331 -3.7441 0.0 0
M  V30 13 C 3.3543 -6.1063 0.0 0
M  V30 14 C 0.7086 -6.8859 0.0 0
M  V30 15 C -1.1811 -5.0906 0.0 0
M  V30 16 O 3.815 -2.2323 0.0 0
M  V30 17 C 5.1969 -4.5236 0.0 0
M  V30 18 C 4.8425 -5.9882 0.0 0
M  V30 19 F 2.1614 -7.2284 0.0 0
M  V30 20 C -0.3425 -7.9607 0.0 0
M  V30 21 C -2.2323 -6.1654 0.0 0
M  V30 22 C 6.626 -4.0866 0.0 0
M  V30 23 C 5.9173 -7.0158 0.0 0
M  V30 24 C -1.8189 -7.5945 0.0 0
M  V30 25 F -3.7087 -5.7992 0.0 0
M  V30 26 C 7.7008 -5.1142 0.0 0
M  V30 27 C 7.3465 -6.5788 0.0 0
M  V30 28 C 9.13 -4.6772 0.0 0
M  V30 29 C 10.2048 -5.7047 0.0 0
M  V30 30 C 9.4725 -3.2008 0.0 0
M  V30 31 C 11.634 -5.2677 0.0 0
M  V30 32 C 10.9017 -2.7638 0.0 0
M  V30 33 C 11.9765 -3.7913 0.0 0
M  V30 34 N 13.4056 -3.3543 0.0 0
M  V30 35 C 14.4804 -4.3819 0.0 0
M  V30 36 C 13.7482 -1.8779 0.0 0
M  V30 37 C 15.9096 -3.9449 0.0 0
M  V30 38 C 15.1773 -1.4409 0.0 0
M  V30 39 N 16.2521 -2.4685 0.0 0
M  V30 END ATOM
M  V30 BEGIN BOND
M  V30 1 1 1 2
M  V30 2 1 1 3
M  V30 3 2 2 4
M  V30 4 1 2 5
M  V30 5 2 3 6
M  V30 6 1 5 7
M  V30 7 2 7 8
M  V30 8 1 7 9
M  V30 9 1 9 10 CFG=3
M  V30 10 1 9 11
M  V30 11 1 10 12
M  V30 12 1 10 13
M  V30 13 2 11 14
M  V30 14 1 11 15
M  V30 15 2 12 16
M  V30 16 1 12 17
M  V30 17 1 13 18
M  V30 18 1 14 19
M  V30 19 1 14 20
M  V30 20 2 15 21
M  V30 21 1 17 22
M  V30 22 1 18 23
M  V30 23 2 20 24
M  V30 24 1 21 25
M  V30 25 2 22 26
M  V30 26 2 23 27
M  V30 27 1 26 28
M  V30 28 2 28 29
M  V30 29 1 28 30
M  V30 30 1 29 31
M  V30 31 2 30 32
M  V30 32 2 31 33
M  V30 33 1 33 34
M  V30 34 1 34 35
M  V30 35 1 34 36
M  V30 36 1 35 37
M  V30 37 1 36 38
M  V30 38 1 37 39
M  V30 39 1 4 6
M  V30 40 2 17 18
M  V30 41 1 21 24
M  V30 42 1 26 27
M  V30 43 1 32 33
M  V30 44 1 38 39
M  V30 END BOND
M  V30 BEGIN COLLECTION
M  V30 MDLV30/STERAC1 ATOMS=(1 9)
M  V30 END COLLECTION
M  V30 END CTAB
M  END
>  <Compound ID>
181

>  <Name>


>  <Uniprot>
P00533

>  <Target>
EGFR

>  <Smiles>
O=C(NC1=NC=CS1)C(C1=CC(F)=CC=C1F)N1CC2=CC=C(C3=CC=C(N4CCNCC4)C=C3)C=C2C1=O

>  <Kd (nM)>


>  <Assay (Kd)>


>  <Ki (nM)>


>  <Assay (Ki)>


>  <IC50 (nM)>


>  <Assay (IC50)>


>  <EC50 (nM)>


>  <Assay (EC50)>


>  <Article DOI>


>  <Molecular Weight>
545.615

>  <Exact Mass>
545.16970248

>  <XLogP3>
4.21

>  <Heavy Atom Count>
39

>  <Ring Count>
6

>  <Hydrogen Bond Acceptor Count>
6

>  <Hydrogen Bond Donor Count>
2

>  <Rotatable Bond Count>
6

>  <Topological Polar Surface Area>
77.57

>  <Molecular Formula>
C29H25F2N5O2S

>  <InChI>
InChI=1S/C29H25F2N5O2S/c30-21-5-8-25(31)24(16-21)26(27(37)34-29-33-11-14-39-29)36-17-20-2-1-19(15-23(20)28(36)38)18-3-6-22(7-4-18)35-12-9-32-10-13-35/h1-8,11,14-16,26,32H,9-10,12-13,17H2,(H,33,34,37)

>  <InChI Key>
ZSCZIAGGEVDOOK-UHFFFAOYSA-N

>  <BindingDB>


>  <PubChem>
124173778

>  <ChEMBL>


$$$$
Compound 536
Actelion Java MolfileCreator 2.0

  0  0  0  0  0  0              0 V3000
M  V30 BEGIN CTAB
M  V30 COUNTS 28 30 0 0 0
M  V30 BEGIN ATOM
M  V30 1 F 0.0 0.0 0.0 0
M  V30 2 C -0.4465 -1.4219 0.0 0
M  V30 3 F -1.892 -0.9754 0.0 0
M  V30 4 F 0.9754 -1.845 0.0 0
M  V30 5 C -0.8931 -2.8439 0.0 0
M  V30 6 C 0.1175 -3.9251 0.0 0
M  V30 7 C -2.3621 -3.1729 0.0 0
M  V30 8 C 1.5629 -3.5725 0.0 0
M  V30 9 C -0.329 -5.347 0.0 0
M  V30 10 C -2.8086 -4.5949 0.0 0
M  V30 11 N 3.0084 -3.22 0.0 0
M  V30 12 C -1.798 -5.6761 0.0 0
M  V30 13 N -4.2776 -4.924 0.0 0
M  V30 14 C -4.8652 -6.2989 0.0 0
M  V30 15 C -5.4293 -3.9368 0.0 0
M  V30 16 O -4.1013 -7.5681 0.0 0
M  V30 17 N -6.3694 -6.1697 0.0 0
M  V30 18 O -5.3235 -2.4326 0.0 0
M  V30 19 C -6.722 -4.7007 0.0 0 CFG=2
M  V30 20 C -7.3566 -7.2978 0.0 0
M  V30 21 C -7.3684 -3.3375 0.0 0
M  V30 22 C -8.144 -5.1825 0.0 0
M  V30 23 C -6.5222 -2.0918 0.0 0
M  V30 24 C -8.8726 -3.2082 0.0 0
M  V30 25 C -7.1686 -0.7286 0.0 0
M  V30 26 C -9.5189 -1.845 0.0 0
M  V30 27 C -8.6728 -0.5993 0.0 0
M  V30 28 O -9.3192 0.7638 0.0 0
M  V30 END ATOM
M  V30 BEGIN BOND
M  V30 1 1 1 2
M  V30 2 1 2 3
M  V30 3 1 2 4
M  V30 4 1 2 5
M  V30 5 2 5 6
M  V30 6 1 5 7
M  V30 7 1 6 8
M  V30 8 1 6 9
M  V30 9 2 7 10
M  V30 10 3 8 11
M  V30 11 2 9 12
M  V30 12 1 10 13
M  V30 13 1 13 14
M  V30 14 1 13 15
M  V30 15 2 14 16
M  V30 16 1 14 17
M  V30 17 2 15 18
M  V30 18 1 15 19
M  V30 19 1 17 20
M  V30 20 1 19 21
M  V30 21 1 19 22 CFG=1
M  V30 22 2 21 23
M  V30 23 1 21 24
M  V30 24 1 23 25
M  V30 25 2 24 26
M  V30 26 2 25 27
M  V30 27 1 27 28
M  V30 28 1 10 12
M  V30 29 1 17 19
M  V30 30 1 26 27
M  V30 END BOND
M  V30 BEGIN COLLECTION
M  V30 MDLV30/STERAC1 ATOMS=(1 19)
M  V30 END COLLECTION
M  V30 END CTAB
M  END
>  <Compound ID>
182

>  <Name>


>  <Uniprot>
P10275

>  <Target>
AR

>  <Smiles>
CN1C(=O)N(C2=CC=C(C#N)C(C(F)(F)F)=C2)C(=O)C1(C)C1=CC=C(O)C=C1

>  <Kd (nM)>


>  <Assay (Kd)>


>  <Ki (nM)>


>  <Assay (Ki)>


>  <IC50 (nM)>


>  <Assay (IC50)>


>  <EC50 (nM)>
1.6

>  <Assay (EC50)>
Inhibit transcriptional activity of AR

>  <Article DOI>
10.1021/jm300249m

>  <Molecular Weight>
389.333

>  <Exact Mass>
389.098725968

>  <XLogP3>
3.01

>  <Heavy Atom Count>
28

>  <Ring Count>
3

>  <Hydrogen Bond Acceptor Count>
4

>  <Hydrogen Bond Donor Count>
1

>  <Rotatable Bond Count>
2

>  <Topological Polar Surface Area>
84.64

>  <Molecular Formula>
C19H14F3N3O3

>  <InChI>
InChI=1S/C19H14F3N3O3/c1-18(12-4-7-14(26)8-5-12)16(27)25(17(28)24(18)2)13-6-3-11(10-23)15(9-13)19(20,21)22/h3-9,26H,1-2H3

>  <InChI Key>
IHPVXUVRRPAUIQ-UHFFFAOYSA-N

>  <BindingDB>
50398195

>  <PubChem>
24812199

>  <ChEMBL>
CHEMBL2177236

$$$$
Compound 537
Actelion Java MolfileCreator 2.0

  0  0  0  0  0  0              0 V3000
M  V30 BEGIN CTAB
M  V30 COUNTS 31 33 0 0 0
M  V30 BEGIN ATOM
M  V30 1 F 0.0 0.0 0.0 0
M  V30 2 C 1.3921 0.5615 0.0 0
M  V30 3 F 1.9302 -0.8306 0.0 0
M  V30 4 F 0.8306 1.977 0.0 0
M  V30 5 C 2.7842 1.123 0.0 0
M  V30 6 C 2.9948 2.6205 0.0 0
M  V30 7 C 3.9424 0.1988 0.0 0
M  V30 8 C 1.8132 3.568 0.0 0
M  V30 9 C 4.387 3.182 0.0 0
M  V30 10 C 5.3345 0.7604 0.0 0
M  V30 11 N 0.6317 4.5156 0.0 0
M  V30 12 C 5.5451 2.2578 0.0 0
M  V30 13 O 6.4927 -0.1637 0.0 0
M  V30 14 C 7.8849 0.3977 0.0 0 CFG=1
M  V30 15 C 8.4698 1.7898 0.0 0
M  V30 16 C 9.2536 -0.1871 0.0 0
M  V30 17 C 9.8385 1.2049 0.0 0 CFG=1
M  V30 18 C 7.0776 2.3982 0.0 0
M  V30 19 C 9.0547 3.182 0.0 0
M  V30 20 C 10.6223 -0.7721 0.0 0
M  V30 21 C 8.6453 -1.5559 0.0 0
M  V30 22 N 11.2307 1.7664 0.0 0
M  V30 23 C 12.3888 0.8423 0.0 0
M  V30 24 O 12.1549 -0.6317 0.0 0
M  V30 25 C 13.781 1.4038 0.0 0
M  V30 26 C 14.9392 0.4796 0.0 0
M  V30 27 C 13.9916 2.9012 0.0 0
M  V30 28 C 16.3313 1.0411 0.0 0
M  V30 29 C 15.3837 3.4628 0.0 0
M  V30 30 C 16.5419 2.5386 0.0 0
M  V30 31 O 17.934 3.1001 0.0 0
M  V30 END ATOM
M  V30 BEGIN BOND
M  V30 1 1 1 2
M  V30 2 1 2 3
M  V30 3 1 2 4
M  V30 4 1 2 5
M  V30 5 2 5 6
M  V30 6 1 5 7
M  V30 7 1 6 8
M  V30 8 1 6 9
M  V30 9 2 7 10
M  V30 10 3 8 11
M  V30 11 2 9 12
M  V30 12 1 10 13
M  V30 13 1 14 13 CFG=1
M  V30 14 1 14 15
M  V30 15 1 14 16
M  V30 16 1 15 17
M  V30 17 1 15 18
M  V30 18 1 15 19
M  V30 19 1 16 20
M  V30 20 1 16 21
M  V30 21 1 17 22 CFG=3
M  V30 22 1 22 23
M  V30 23 2 23 24
M  V30 24 1 23 25
M  V30 25 2 25 26
M  V30 26 1 25 27
M  V30 27 1 26 28
M  V30 28 2 27 29
M  V30 29 2 28 30
M  V30 30 1 30 31
M  V30 31 1 10 12
M  V30 32 1 16 17
M  V30 33 1 29 30
M  V30 END BOND
M  V30 BEGIN COLLECTION
M  V30 MDLV30/STEABS ATOMS=(2 14 17)
M  V30 END COLLECTION
M  V30 END CTAB
M  END
>  <Compound ID>
183

>  <Name>


>  <Uniprot>
P10275

>  <Target>
AR

>  <Smiles>
CC1(C)[C@H](NC(=O)C2=CC=C(O)C=C2)C(C)(C)[C@H]1OC1=CC=C(C#N)C(C(F)(F)F)=C1

>  <Kd (nM)>


>  <Assay (Kd)>


>  <Ki (nM)>


>  <Assay (Ki)>


>  <IC50 (nM)>


>  <Assay (IC50)>


>  <EC50 (nM)>


>  <Assay (EC50)>


>  <Article DOI>


>  <Molecular Weight>
432.442

>  <Exact Mass>
432.166077256

>  <XLogP3>
5.4

>  <Heavy Atom Count>
31

>  <Ring Count>
3

>  <Hydrogen Bond Acceptor Count>
4

>  <Hydrogen Bond Donor Count>
2

>  <Rotatable Bond Count>
4

>  <Topological Polar Surface Area>
82.35

>  <Molecular Formula>
C23H23F3N2O3

>  <InChI>
InChI=1S/C23H23F3N2O3/c1-21(2)19(28-18(30)13-5-8-15(29)9-6-13)22(3,4)20(21)31-16-10-7-14(12-27)17(11-16)23(24,25)26/h5-11,19-20,29H,1-4H3,(H,28,30)/t19-,20-

>  <InChI Key>
QFVAWVWUDMGUES-MXVIHJGJSA-N

>  <BindingDB>


>  <PubChem>


>  <ChEMBL>


$$$$
Compound 538
Actelion Java MolfileCreator 2.0

  0  0  0  0  0  0              0 V3000
M  V30 BEGIN CTAB
M  V30 COUNTS 27 28 0 0 0
M  V30 BEGIN ATOM
M  V30 1 F 0.0 0.0 0.0 0
M  V30 2 C -0.3239 1.4809 0.0 0
M  V30 3 F 1.1338 1.8048 0.0 0
M  V30 4 F -1.8048 1.1801 0.0 0
M  V30 5 C -0.6479 2.9618 0.0 0
M  V30 6 C -2.0941 3.4362 0.0 0
M  V30 7 C 0.4512 3.98 0.0 0
M  V30 8 C -3.2164 2.4412 0.0 0
M  V30 9 C -2.418 4.9171 0.0 0
M  V30 10 C 0.1272 5.4609 0.0 0
M  V30 11 N -4.3386 1.4462 0.0 0
M  V30 12 C -1.3189 5.9353 0.0 0
M  V30 13 N 1.2264 6.4791 0.0 0
M  V30 14 C 2.6494 6.0278 0.0 0
M  V30 15 O 2.9503 4.57 0.0 0
M  V30 16 C 3.7486 7.046 0.0 0 CFG=1
M  V30 17 O 4.8477 8.0641 0.0 0
M  V30 18 C 4.7436 5.9468 0.0 0
M  V30 19 C 2.7304 8.1682 0.0 0
M  V30 20 O 4.2692 4.5238 0.0 0
M  V30 21 C 5.2642 3.4246 0.0 0
M  V30 22 C 4.7899 2.0015 0.0 0
M  V30 23 C 6.722 3.7486 0.0 0
M  V30 24 C 5.7849 0.9024 0.0 0
M  V30 25 C 7.717 2.6494 0.0 0
M  V30 26 C 7.2427 1.2264 0.0 0
M  V30 27 O 8.2377 0.1272 0.0 0
M  V30 END ATOM
M  V30 BEGIN BOND
M  V30 1 1 1 2
M  V30 2 1 2 3
M  V30 3 1 2 4
M  V30 4 1 2 5
M  V30 5 2 5 6
M  V30 6 1 5 7
M  V30 7 1 6 8
M  V30 8 1 6 9
M  V30 9 2 7 10
M  V30 10 3 8 11
M  V30 11 2 9 12
M  V30 12 1 10 13
M  V30 13 1 13 14
M  V30 14 2 14 15
M  V30 15 1 16 14 CFG=1
M  V30 16 1 16 17
M  V30 17 1 16 18
M  V30 18 1 16 19
M  V30 19 1 18 20
M  V30 20 1 20 21
M  V30 21 2 21 22
M  V30 22 1 21 23
M  V30 23 1 22 24
M  V30 24 2 23 25
M  V30 25 2 24 26
M  V30 26 1 26 27
M  V30 27 1 10 12
M  V30 28 1 25 26
M  V30 END BOND
M  V30 BEGIN COLLECTION
M  V30 MDLV30/STERAC1 ATOMS=(1 16)
M  V30 END COLLECTION
M  V30 END CTAB
M  END
>  <Compound ID>
184

>  <Name>


>  <Uniprot>
P10275

>  <Target>
AR

>  <Smiles>
CC(O)(COC1=CC=C(O)C=C1)C(=O)NC1=CC=C(C#N)C(C(F)(F)F)=C1

>  <Kd (nM)>


>  <Assay (Kd)>


>  <Ki (nM)>


>  <Assay (Ki)>


>  <IC50 (nM)>


>  <Assay (IC50)>


>  <EC50 (nM)>


>  <Assay (EC50)>


>  <Article DOI>
10.1016/j.steroids.2011.08.005

>  <Molecular Weight>
380.322

>  <Exact Mass>
380.09839162

>  <XLogP3>
2.58

>  <Heavy Atom Count>
27

>  <Ring Count>
2

>  <Hydrogen Bond Acceptor Count>
5

>  <Hydrogen Bond Donor Count>
3

>  <Rotatable Bond Count>
5

>  <Topological Polar Surface Area>
102.58

>  <Molecular Formula>
C18H15F3N2O4

>  <InChI>
InChI=1S/C18H15F3N2O4/c1-17(26,10-27-14-6-4-13(24)5-7-14)16(25)23-12-3-2-11(9-22)15(8-12)18(19,20)21/h2-8,24,26H,10H2,1H3,(H,23,25)

>  <InChI Key>
UOXUMEPBIKRPOH-UHFFFAOYSA-N

>  <BindingDB>


>  <PubChem>
123256769

>  <ChEMBL>


$$$$
Compound 539
Actelion Java MolfileCreator 2.0

  0  0  0  0  0  0              0 V3000
M  V30 BEGIN CTAB
M  V30 COUNTS 17 19 0 0 0
M  V30 BEGIN ATOM
M  V30 1 S 0.0 0.0 0.0 0
M  V30 2 C -0.8512 -1.2413 0.0 0
M  V30 3 C 1.4305 -0.3901 0.0 0
M  V30 4 N 0.0709 -2.4118 0.0 0
M  V30 5 C -2.3645 -1.2886 0.0 0
M  V30 6 C 1.4778 -1.8797 0.0 0
M  V30 7 C 2.6837 0.4256 0.0 0
M  V30 8 C -3.1802 -0.0118 0.0 0
M  V30 9 C -3.0738 -2.6009 0.0 0
M  V30 10 C 2.7901 -2.5654 0.0 0
M  V30 11 C 3.996 -0.26 0.0 0
M  V30 12 C -4.6935 -0.0591 0.0 0
M  V30 13 C -4.5871 -2.6482 0.0 0
M  V30 14 C 4.0433 -1.7497 0.0 0
M  V30 15 C -5.4029 -1.3714 0.0 0
M  V30 16 N -6.9161 -1.4187 0.0 0
M  V30 17 C -7.7319 -0.1418 0.0 0
M  V30 END ATOM
M  V30 BEGIN BOND
M  V30 1 1 1 2
M  V30 2 1 1 3
M  V30 3 2 2 4
M  V30 4 1 2 5
M  V30 5 2 3 6
M  V30 6 1 3 7
M  V30 7 2 5 8
M  V30 8 1 5 9
M  V30 9 1 6 10
M  V30 10 2 7 11
M  V30 11 1 8 12
M  V30 12 2 9 13
M  V30 13 2 10 14
M  V30 14 2 12 15
M  V30 15 1 15 16
M  V30 16 1 16 17
M  V30 17 1 4 6
M  V30 18 1 11 14
M  V30 19 1 13 15
M  V30 END BOND
M  V30 END CTAB
M  END
>  <Compound ID>
185

>  <Name>
BTA-1

>  <Uniprot>
P37840

>  <Target>
Alpha-syn

>  <Smiles>
CNC1=CC=C(C2=NC3=CC=CC=C3S2)C=C1

>  <Kd (nM)>


>  <Assay (Kd)>


>  <Ki (nM)>


>  <Assay (Ki)>


>  <IC50 (nM)>


>  <Assay (IC50)>


>  <EC50 (nM)>


>  <Assay (EC50)>


>  <Article DOI>
10.1021/acsmedchemlett.0c00192

>  <Molecular Weight>
240.331

>  <Exact Mass>
240.072119384

>  <XLogP3>
4.24

>  <Heavy Atom Count>
17

>  <Ring Count>
3

>  <Hydrogen Bond Acceptor Count>
3

>  <Hydrogen Bond Donor Count>
1

>  <Rotatable Bond Count>
2

>  <Topological Polar Surface Area>
24.92

>  <Molecular Formula>
C14H12N2S

>  <InChI>
InChI=1S/C14H12N2S/c1-15-11-8-6-10(7-9-11)14-16-12-4-2-3-5-13(12)17-14/h2-9,15H,1H3

>  <InChI Key>
FHJRKGXJBXPBGA-UHFFFAOYSA-N

>  <BindingDB>
50109052

>  <PubChem>
9837643

>  <ChEMBL>
CHEMBL93334

$$$$
Compound 540
Actelion Java MolfileCreator 2.0

  0  0  0  0  0  0              0 V3000
M  V30 BEGIN CTAB
M  V30 COUNTS 29 32 0 0 0
M  V30 BEGIN ATOM
M  V30 1 O 0.0 0.0 0.0 0
M  V30 2 N 0.0938 -1.4787 0.0 0 CHG=1
M  V30 3 O 1.4318 -2.1125 0.0 0 CHG=-1
M  V30 4 C -1.1501 -2.312 0.0 0
M  V30 5 C -1.0562 -3.7908 0.0 0
M  V30 6 C -2.5116 -1.6548 0.0 0
M  V30 7 C -2.3003 -4.6241 0.0 0
M  V30 8 C -3.7556 -2.4881 0.0 0
M  V30 9 C -3.6617 -3.9669 0.0 0
M  V30 10 C -4.9058 -4.8002 0.0 0
M  V30 11 C -6.2672 -4.1429 0.0 0
M  V30 12 C -7.5113 -4.9762 0.0 0
M  V30 13 C -8.8727 -4.319 0.0 0
M  V30 14 C -10.1989 -5.0114 0.0 0
M  V30 15 C -9.1427 -2.8402 0.0 0
M  V30 16 O -10.4102 -6.4785 0.0 0
M  V30 17 N -11.2904 -3.9669 0.0 0
M  V30 18 C -10.6332 -2.6289 0.0 0
M  V30 19 C -8.239 -1.6431 0.0 0
M  V30 20 C -12.7692 -4.2133 0.0 0
M  V30 21 C -11.2083 -1.2323 0.0 0
M  V30 22 C -8.814 -0.2464 0.0 0
M  V30 23 C -13.7434 -3.0632 0.0 0
M  V30 24 C -10.3046 -0.0352 0.0 0
M  V30 25 C -13.2504 -1.6431 0.0 0
M  V30 26 C -15.2222 -3.3096 0.0 0
M  V30 27 C -14.2246 -0.4929 0.0 0
M  V30 28 C -16.1963 -2.1595 0.0 0
M  V30 29 C -15.7034 -0.7393 0.0 0
M  V30 END ATOM
M  V30 BEGIN BOND
M  V30 1 2 1 2
M  V30 2 1 2 3
M  V30 3 1 2 4
M  V30 4 2 4 5
M  V30 5 1 4 6
M  V30 6 1 5 7
M  V30 7 2 6 8
M  V30 8 2 7 9
M  V30 9 1 9 10
M  V30 10 2 10 11
M  V30 11 1 11 12
M  V30 12 2 12 13
M  V30 13 1 13 14
M  V30 14 1 13 15
M  V30 15 2 14 16
M  V30 16 1 14 17
M  V30 17 2 15 18
M  V30 18 1 15 19
M  V30 19 1 17 20
M  V30 20 1 18 21
M  V30 21 2 19 22
M  V30 22 1 20 23
M  V30 23 2 21 24
M  V30 24 2 23 25
M  V30 25 1 23 26
M  V30 26 1 25 27
M  V30 27 2 26 28
M  V30 28 2 27 29
M  V30 29 1 8 9
M  V30 30 1 17 18
M  V30 31 1 22 24
M  V30 32 1 28 29
M  V30 END BOND
M  V30 END CTAB
M  END
>  <Compound ID>
186

>  <Name>


>  <Uniprot>
P37840

>  <Target>
Alpha-syn

>  <Smiles>
O=C1/C(=C/C=C/C2=CC=C([N+](=O)[O-])C=C2)C2=CC=CC=C2N1CC1=CC=CC=C1

>  <Kd (nM)>


>  <Assay (Kd)>


>  <Ki (nM)>
193

>  <Assay (Ki)>
Displacement of Thio-T from recombinant alpha-synuclein expressed in Escherichia coli after 1.5 hrs by fluorescence assay

>  <IC50 (nM)>


>  <Assay (IC50)>


>  <EC50 (nM)>


>  <Assay (EC50)>


>  <Article DOI>
10.1021/acs.jmedchem.5b00571

>  <Molecular Weight>
382.419

>  <Exact Mass>
382.131742436

>  <XLogP3>
5.05

>  <Heavy Atom Count>
29

>  <Ring Count>
4

>  <Hydrogen Bond Acceptor Count>
3

>  <Hydrogen Bond Donor Count>
0

>  <Rotatable Bond Count>
5

>  <Topological Polar Surface Area>
63.45

>  <Molecular Formula>
C24H18N2O3

>  <InChI>
InChI=1S/C24H18N2O3/c27-24-22(11-6-9-18-13-15-20(16-14-18)26(28)29)21-10-4-5-12-23(21)25(24)17-19-7-2-1-3-8-19/h1-16H,17H2/b9-6+,22-11+

>  <InChI Key>
AQOPKQZDRIMOPX-HZFIRUDTSA-N

>  <BindingDB>
50103933

>  <PubChem>
122182271

>  <ChEMBL>
CHEMBL3593925

$$$$
Compound 541
Actelion Java MolfileCreator 2.0

  0  0  0  0  0  0              0 V3000
M  V30 BEGIN CTAB
M  V30 COUNTS 17 19 0 0 0
M  V30 BEGIN ATOM
M  V30 1 S 0.0 0.0 0.0 0
M  V30 2 C -1.181 -0.9238 0.0 0
M  V30 3 C 1.3915 -0.5379 0.0 0
M  V30 4 C -0.9588 -2.3972 0.0 0
M  V30 5 C -2.5959 -0.3625 0.0 0
M  V30 6 C 1.6137 -2.0113 0.0 0
M  V30 7 C 2.5492 0.4092 0.0 0
M  V30 8 N 0.4326 -2.9351 0.0 0
M  V30 9 C -2.1399 -3.321 0.0 0
M  V30 10 C -3.777 -1.2863 0.0 0
M  V30 11 C 3.0052 -2.5492 0.0 0
M  V30 12 C 3.9407 -0.1286 0.0 0
M  V30 13 C -3.5548 -2.7597 0.0 0
M  V30 14 N -5.1919 -0.725 0.0 0 CHG=1
M  V30 15 C 4.1629 -1.602 0.0 0
M  V30 16 O -6.373 -1.6488 0.0 0
M  V30 17 O -5.4375 0.7717 0.0 0 CHG=-1
M  V30 END ATOM
M  V30 BEGIN BOND
M  V30 1 1 1 2
M  V30 2 1 1 3
M  V30 3 2 2 4
M  V30 4 1 2 5
M  V30 5 2 3 6
M  V30 6 1 3 7
M  V30 7 1 4 8
M  V30 8 1 4 9
M  V30 9 2 5 10
M  V30 10 1 6 11
M  V30 11 2 7 12
M  V30 12 2 9 13
M  V30 13 1 10 14
M  V30 14 2 11 15
M  V30 15 2 14 16
M  V30 16 1 14 17
M  V30 17 1 6 8
M  V30 18 1 10 13
M  V30 19 1 12 15
M  V30 END BOND
M  V30 END CTAB
M  END
>  <Compound ID>
187

>  <Name>


>  <Uniprot>
P37840

>  <Target>
Alpha-syn

>  <Smiles>
O=[N+]([O-])C1=CC=C2NC3=CC=CC=C3SC2=C1

>  <Kd (nM)>


>  <Assay (Kd)>


>  <Ki (nM)>
116.5

>  <Assay (Ki)>
Ki was assessed by thioflavin T competition assay

>  <IC50 (nM)>
485

>  <Assay (IC50)>
IC50 was assessed by thioflavin T competition assay

>  <EC50 (nM)>


>  <Assay (EC50)>


>  <Article DOI>
10.1016/j.bmc.2012.06.023

>  <Molecular Weight>
244.275

>  <Exact Mass>
244.030648496

>  <XLogP3>
3.98

>  <Heavy Atom Count>
17

>  <Ring Count>
3

>  <Hydrogen Bond Acceptor Count>
4

>  <Hydrogen Bond Donor Count>
1

>  <Rotatable Bond Count>
1

>  <Topological Polar Surface Area>
55.17

>  <Molecular Formula>
C12H8N2O2S

>  <InChI>
InChI=1S/C12H8N2O2S/c15-14(16)8-5-6-10-12(7-8)17-11-4-2-1-3-9(11)13-10/h1-7,13H

>  <InChI Key>
CLXYGCPNHLXLPD-UHFFFAOYSA-N

>  <BindingDB>
50389291

>  <PubChem>
3838042

>  <ChEMBL>
CHEMBL1976750

$$$$
Compound 542
Actelion Java MolfileCreator 2.0

  0  0  0  0  0  0              0 V3000
M  V30 BEGIN CTAB
M  V30 COUNTS 41 46 0 0 0
M  V30 BEGIN ATOM
M  V30 1 F 0.0 0.0 0.0 0
M  V30 2 C -1.0229 1.117 0.0 0
M  V30 3 C -0.5878 2.5514 0.0 0
M  V30 4 C -2.4926 0.7995 0.0 0
M  V30 5 C -1.6108 3.6684 0.0 0
M  V30 6 C -3.5156 1.9165 0.0 0
M  V30 7 F -1.1757 5.1029 0.0 0
M  V30 8 C -3.0805 3.351 0.0 0
M  V30 9 C -4.9853 1.599 0.0 0
M  V30 10 C -5.4439 0.1881 0.0 0
M  V30 11 C -6.9136 -0.1293 0.0 0
M  V30 12 C -4.4444 -0.9053 0.0 0
M  V30 13 C -7.3722 -1.5402 0.0 0
M  V30 14 C -4.903 -2.3163 0.0 0
M  V30 15 C -8.7361 -2.1517 0.0 0
M  V30 16 C -6.3727 -2.6337 0.0 0
M  V30 17 N -8.5715 -3.6214 0.0 0
M  V30 18 N -10.053 -1.4109 0.0 0
M  V30 19 N -7.1135 -3.9271 0.0 0
M  V30 20 C -11.3464 -2.1634 0.0 0
M  V30 21 O -11.3464 -3.6449 0.0 0
M  V30 22 C -12.6632 -1.4227 0.0 0
M  V30 23 C -12.6868 0.0823 0.0 0
M  V30 24 C -13.9566 -2.1752 0.0 0
M  V30 25 N -11.4169 0.8583 0.0 0
M  V30 26 C -14.0036 0.823 0.0 0
M  V30 27 C -15.2735 -1.4344 0.0 0
M  V30 28 C -11.4404 2.3633 0.0 0
M  V30 29 C -15.297 0.0705 0.0 0
M  V30 30 C -10.1706 3.1393 0.0 0
M  V30 31 C -12.7573 3.104 0.0 0
M  V30 32 N -16.6139 0.8112 0.0 0
M  V30 33 C -10.1941 4.6443 0.0 0
M  V30 34 C -12.7808 4.6091 0.0 0
M  V30 35 C -16.6374 2.3163 0.0 0
M  V30 36 C -17.9073 0.0587 0.0 0
M  V30 37 O -11.511 5.3851 0.0 0
M  V30 38 C -17.9543 3.057 0.0 0
M  V30 39 C -19.2242 0.7995 0.0 0
M  V30 40 N -19.2477 2.3045 0.0 0
M  V30 41 C -20.5646 3.0453 0.0 0
M  V30 END ATOM
M  V30 BEGIN BOND
M  V30 1 1 1 2
M  V30 2 2 2 3
M  V30 3 1 2 4
M  V30 4 1 3 5
M  V30 5 2 4 6
M  V30 6 1 5 7
M  V30 7 2 5 8
M  V30 8 1 6 9
M  V30 9 1 9 10
M  V30 10 2 10 11
M  V30 11 1 10 12
M  V30 12 1 11 13
M  V30 13 2 12 14
M  V30 14 1 13 15
M  V30 15 2 13 16
M  V30 16 2 15 17
M  V30 17 1 15 18
M  V30 18 1 16 19
M  V30 19 1 18 20
M  V30 20 2 20 21
M  V30 21 1 20 22
M  V30 22 2 22 23
M  V30 23 1 22 24
M  V30 24 1 23 25
M  V30 25 1 23 26
M  V30 26 2 24 27
M  V30 27 1 25 28
M  V30 28 2 26 29
M  V30 29 1 28 30
M  V30 30 1 28 31
M  V30 31 1 29 32
M  V30 32 1 30 33
M  V30 33 1 31 34
M  V30 34 1 32 35
M  V30 35 1 32 36
M  V30 36 1 33 37
M  V30 37 1 35 38
M  V30 38 1 36 39
M  V30 39 1 38 40
M  V30 40 1 40 41
M  V30 41 1 6 8
M  V30 42 1 14 16
M  V30 43 1 17 19
M  V30 44 1 27 29
M  V30 45 1 34 37
M  V30 46 1 39 40
M  V30 END BOND
M  V30 END CTAB
M  END
>  <Compound ID>
188

>  <Name>
Entrectinib

>  <Uniprot>
P04629

>  <Target>
TRKA

>  <Smiles>
CN1CCN(C2=CC=C(C(=O)NC3=N[NH]C4=CC=C(CC5=CC(F)=CC(F)=C5)C=C34)C(NC3CCOCC3)=C2)CC1

>  <Kd (nM)>


>  <Assay (Kd)>


>  <Ki (nM)>


>  <Assay (Ki)>


>  <IC50 (nM)>
1

>  <Assay (IC50)>
Inhibition of TrkC by selectscreen kinase assay

>  <EC50 (nM)>


>  <Assay (EC50)>


>  <Article DOI>
10.1021/acs.jmedchem.6b00064

>  <Molecular Weight>
560.649

>  <Exact Mass>
560.271130768

>  <XLogP3>
5.72

>  <Heavy Atom Count>
41

>  <Ring Count>
6

>  <Hydrogen Bond Acceptor Count>
6

>  <Hydrogen Bond Donor Count>
3

>  <Rotatable Bond Count>
7

>  <Topological Polar Surface Area>
85.52

>  <Molecular Formula>
C31H34F2N6O2

>  <InChI>
InChI=1S/C31H34F2N6O2/c1-38-8-10-39(11-9-38)25-3-4-26(29(19-25)34-24-6-12-41-13-7-24)31(40)35-30-27-17-20(2-5-28(27)36-37-30)14-21-15-22(32)18-23(33)16-21/h2-5,15-19,24,34H,6-14H2,1H3,(H2,35,36,37,40)

>  <InChI Key>
HAYYBYPASCDWEQ-UHFFFAOYSA-N

>  <BindingDB>
158154

>  <PubChem>
25141092

>  <ChEMBL>
CHEMBL1983268

$$$$
Compound 543
Actelion Java MolfileCreator 2.0

  0  0  0  0  0  0              0 V3000
M  V30 BEGIN CTAB
M  V30 COUNTS 41 46 0 0 0
M  V30 BEGIN ATOM
M  V30 1 F 0.0 0.0 0.0 0
M  V30 2 C -1.0229 1.117 0.0 0
M  V30 3 C -0.5878 2.5514 0.0 0
M  V30 4 C -2.4926 0.7995 0.0 0
M  V30 5 C -1.6108 3.6684 0.0 0
M  V30 6 C -3.5156 1.9165 0.0 0
M  V30 7 F -1.1757 5.1029 0.0 0
M  V30 8 C -3.0805 3.351 0.0 0
M  V30 9 C -4.9853 1.599 0.0 0
M  V30 10 C -5.4439 0.1881 0.0 0
M  V30 11 C -6.9136 -0.1293 0.0 0
M  V30 12 C -4.4444 -0.9053 0.0 0
M  V30 13 C -7.3722 -1.5402 0.0 0
M  V30 14 C -4.903 -2.3163 0.0 0
M  V30 15 C -8.7361 -2.1517 0.0 0
M  V30 16 C -6.3727 -2.6337 0.0 0
M  V30 17 N -8.5715 -3.6214 0.0 0
M  V30 18 N -10.053 -1.4109 0.0 0
M  V30 19 N -7.1135 -3.9271 0.0 0
M  V30 20 C -11.3464 -2.1634 0.0 0
M  V30 21 O -11.3464 -3.6449 0.0 0
M  V30 22 C -12.6632 -1.4227 0.0 0
M  V30 23 C -12.6868 0.0823 0.0 0
M  V30 24 C -13.9566 -2.1752 0.0 0
M  V30 25 N -11.4169 0.8583 0.0 0
M  V30 26 C -14.0036 0.823 0.0 0
M  V30 27 C -15.2735 -1.4344 0.0 0
M  V30 28 C -11.4404 2.3633 0.0 0
M  V30 29 C -15.297 0.0705 0.0 0
M  V30 30 C -10.1706 3.1393 0.0 0
M  V30 31 C -12.7573 3.104 0.0 0
M  V30 32 N -16.6139 0.8112 0.0 0
M  V30 33 C -10.1941 4.6443 0.0 0
M  V30 34 C -12.7808 4.6091 0.0 0
M  V30 35 C -16.6374 2.3163 0.0 0
M  V30 36 C -17.9073 0.0587 0.0 0
M  V30 37 O -11.511 5.3851 0.0 0
M  V30 38 C -17.9543 3.057 0.0 0
M  V30 39 C -19.2242 0.7995 0.0 0
M  V30 40 N -19.2477 2.3045 0.0 0
M  V30 41 C -20.5646 3.0453 0.0 0
M  V30 END ATOM
M  V30 BEGIN BOND
M  V30 1 1 1 2
M  V30 2 2 2 3
M  V30 3 1 2 4
M  V30 4 1 3 5
M  V30 5 2 4 6
M  V30 6 1 5 7
M  V30 7 2 5 8
M  V30 8 1 6 9
M  V30 9 1 9 10
M  V30 10 2 10 11
M  V30 11 1 10 12
M  V30 12 1 11 13
M  V30 13 2 12 14
M  V30 14 1 13 15
M  V30 15 2 13 16
M  V30 16 2 15 17
M  V30 17 1 15 18
M  V30 18 1 16 19
M  V30 19 1 18 20
M  V30 20 2 20 21
M  V30 21 1 20 22
M  V30 22 2 22 23
M  V30 23 1 22 24
M  V30 24 1 23 25
M  V30 25 1 23 26
M  V30 26 2 24 27
M  V30 27 1 25 28
M  V30 28 2 26 29
M  V30 29 1 28 30
M  V30 30 1 28 31
M  V30 31 1 29 32
M  V30 32 1 30 33
M  V30 33 1 31 34
M  V30 34 1 32 35
M  V30 35 1 32 36
M  V30 36 1 33 37
M  V30 37 1 35 38
M  V30 38 1 36 39
M  V30 39 1 38 40
M  V30 40 1 40 41
M  V30 41 1 6 8
M  V30 42 1 14 16
M  V30 43 1 17 19
M  V30 44 1 27 29
M  V30 45 1 34 37
M  V30 46 1 39 40
M  V30 END BOND
M  V30 END CTAB
M  END
>  <Compound ID>
188

>  <Name>
Entrectinib

>  <Uniprot>
Q16620

>  <Target>
TRKB

>  <Smiles>
CN1CCN(C2=CC=C(C(=O)NC3=N[NH]C4=CC=C(CC5=CC(F)=CC(F)=C5)C=C34)C(NC3CCOCC3)=C2)CC1

>  <Kd (nM)>


>  <Assay (Kd)>


>  <Ki (nM)>


>  <Assay (Ki)>


>  <IC50 (nM)>
3

>  <Assay (IC50)>
Inhibition of TrkC by selectscreen kinase assay

>  <EC50 (nM)>


>  <Assay (EC50)>


>  <Article DOI>
10.1021/acs.jmedchem.6b00064

>  <Molecular Weight>
560.649

>  <Exact Mass>
560.271130768

>  <XLogP3>
5.72

>  <Heavy Atom Count>
41

>  <Ring Count>
6

>  <Hydrogen Bond Acceptor Count>
6

>  <Hydrogen Bond Donor Count>
3

>  <Rotatable Bond Count>
7

>  <Topological Polar Surface Area>
85.52

>  <Molecular Formula>
C31H34F2N6O2

>  <InChI>
InChI=1S/C31H34F2N6O2/c1-38-8-10-39(11-9-38)25-3-4-26(29(19-25)34-24-6-12-41-13-7-24)31(40)35-30-27-17-20(2-5-28(27)36-37-30)14-21-15-22(32)18-23(33)16-21/h2-5,15-19,24,34H,6-14H2,1H3,(H2,35,36,37,40)

>  <InChI Key>
HAYYBYPASCDWEQ-UHFFFAOYSA-N

>  <BindingDB>
158154

>  <PubChem>
25141092

>  <ChEMBL>
CHEMBL1983268

$$$$
Compound 544
Actelion Java MolfileCreator 2.0

  0  0  0  0  0  0              0 V3000
M  V30 BEGIN CTAB
M  V30 COUNTS 41 46 0 0 0
M  V30 BEGIN ATOM
M  V30 1 F 0.0 0.0 0.0 0
M  V30 2 C -1.0229 1.117 0.0 0
M  V30 3 C -0.5878 2.5514 0.0 0
M  V30 4 C -2.4926 0.7995 0.0 0
M  V30 5 C -1.6108 3.6684 0.0 0
M  V30 6 C -3.5156 1.9165 0.0 0
M  V30 7 F -1.1757 5.1029 0.0 0
M  V30 8 C -3.0805 3.351 0.0 0
M  V30 9 C -4.9853 1.599 0.0 0
M  V30 10 C -5.4439 0.1881 0.0 0
M  V30 11 C -6.9136 -0.1293 0.0 0
M  V30 12 C -4.4444 -0.9053 0.0 0
M  V30 13 C -7.3722 -1.5402 0.0 0
M  V30 14 C -4.903 -2.3163 0.0 0
M  V30 15 C -8.7361 -2.1517 0.0 0
M  V30 16 C -6.3727 -2.6337 0.0 0
M  V30 17 N -8.5715 -3.6214 0.0 0
M  V30 18 N -10.053 -1.4109 0.0 0
M  V30 19 N -7.1135 -3.9271 0.0 0
M  V30 20 C -11.3464 -2.1634 0.0 0
M  V30 21 O -11.3464 -3.6449 0.0 0
M  V30 22 C -12.6632 -1.4227 0.0 0
M  V30 23 C -12.6868 0.0823 0.0 0
M  V30 24 C -13.9566 -2.1752 0.0 0
M  V30 25 N -11.4169 0.8583 0.0 0
M  V30 26 C -14.0036 0.823 0.0 0
M  V30 27 C -15.2735 -1.4344 0.0 0
M  V30 28 C -11.4404 2.3633 0.0 0
M  V30 29 C -15.297 0.0705 0.0 0
M  V30 30 C -10.1706 3.1393 0.0 0
M  V30 31 C -12.7573 3.104 0.0 0
M  V30 32 N -16.6139 0.8112 0.0 0
M  V30 33 C -10.1941 4.6443 0.0 0
M  V30 34 C -12.7808 4.6091 0.0 0
M  V30 35 C -16.6374 2.3163 0.0 0
M  V30 36 C -17.9073 0.0587 0.0 0
M  V30 37 O -11.511 5.3851 0.0 0
M  V30 38 C -17.9543 3.057 0.0 0
M  V30 39 C -19.2242 0.7995 0.0 0
M  V30 40 N -19.2477 2.3045 0.0 0
M  V30 41 C -20.5646 3.0453 0.0 0
M  V30 END ATOM
M  V30 BEGIN BOND
M  V30 1 1 1 2
M  V30 2 2 2 3
M  V30 3 1 2 4
M  V30 4 1 3 5
M  V30 5 2 4 6
M  V30 6 1 5 7
M  V30 7 2 5 8
M  V30 8 1 6 9
M  V30 9 1 9 10
M  V30 10 2 10 11
M  V30 11 1 10 12
M  V30 12 1 11 13
M  V30 13 2 12 14
M  V30 14 1 13 15
M  V30 15 2 13 16
M  V30 16 2 15 17
M  V30 17 1 15 18
M  V30 18 1 16 19
M  V30 19 1 18 20
M  V30 20 2 20 21
M  V30 21 1 20 22
M  V30 22 2 22 23
M  V30 23 1 22 24
M  V30 24 1 23 25
M  V30 25 1 23 26
M  V30 26 2 24 27
M  V30 27 1 25 28
M  V30 28 2 26 29
M  V30 29 1 28 30
M  V30 30 1 28 31
M  V30 31 1 29 32
M  V30 32 1 30 33
M  V30 33 1 31 34
M  V30 34 1 32 35
M  V30 35 1 32 36
M  V30 36 1 33 37
M  V30 37 1 35 38
M  V30 38 1 36 39
M  V30 39 1 38 40
M  V30 40 1 40 41
M  V30 41 1 6 8
M  V30 42 1 14 16
M  V30 43 1 17 19
M  V30 44 1 27 29
M  V30 45 1 34 37
M  V30 46 1 39 40
M  V30 END BOND
M  V30 END CTAB
M  END
>  <Compound ID>
188

>  <Name>
Entrectinib

>  <Uniprot>
Q16288

>  <Target>
TRKC

>  <Smiles>
CN1CCN(C2=CC=C(C(=O)NC3=N[NH]C4=CC=C(CC5=CC(F)=CC(F)=C5)C=C34)C(NC3CCOCC3)=C2)CC1

>  <Kd (nM)>


>  <Assay (Kd)>


>  <Ki (nM)>


>  <Assay (Ki)>


>  <IC50 (nM)>
5

>  <Assay (IC50)>
Inhibition of TrkC by selectscreen kinase assay

>  <EC50 (nM)>


>  <Assay (EC50)>


>  <Article DOI>
10.1021/acs.jmedchem.6b00064

>  <Molecular Weight>
560.649

>  <Exact Mass>
560.271130768

>  <XLogP3>
5.72

>  <Heavy Atom Count>
41

>  <Ring Count>
6

>  <Hydrogen Bond Acceptor Count>
6

>  <Hydrogen Bond Donor Count>
3

>  <Rotatable Bond Count>
7

>  <Topological Polar Surface Area>
85.52

>  <Molecular Formula>
C31H34F2N6O2

>  <InChI>
InChI=1S/C31H34F2N6O2/c1-38-8-10-39(11-9-38)25-3-4-26(29(19-25)34-24-6-12-41-13-7-24)31(40)35-30-27-17-20(2-5-28(27)36-37-30)14-21-15-22(32)18-23(33)16-21/h2-5,15-19,24,34H,6-14H2,1H3,(H2,35,36,37,40)

>  <InChI Key>
HAYYBYPASCDWEQ-UHFFFAOYSA-N

>  <BindingDB>
158154

>  <PubChem>
25141092

>  <ChEMBL>
CHEMBL1983268

$$$$
Compound 545
Actelion Java MolfileCreator 2.0

  0  0  0  0  0  0              0 V3000
M  V30 BEGIN CTAB
M  V30 COUNTS 40 46 0 0 0
M  V30 BEGIN ATOM
M  V30 1 F 0.0 0.0 0.0 0
M  V30 2 C -1.0447 -1.0682 0.0 0
M  V30 3 C -2.5121 -0.7043 0.0 0
M  V30 4 C -0.6339 -2.4887 0.0 0
M  V30 5 C -3.5569 -1.7726 0.0 0
M  V30 6 C -1.6787 -3.5569 0.0 0
M  V30 7 C -3.1461 -3.193 0.0 0
M  V30 8 C -5.0243 -1.4087 0.0 0 CFG=2
M  V30 9 N -6.1748 -2.3713 0.0 0
M  V30 10 C -5.6113 -0.0117 0.0 0
M  V30 11 C -6.0691 -3.8504 0.0 0
M  V30 12 C -7.4544 -1.573 0.0 0
M  V30 13 C -7.1139 -0.1173 0.0 0
M  V30 14 N -7.3135 -4.6839 0.0 0
M  V30 15 C -4.7309 -4.4843 0.0 0
M  V30 16 N -7.2078 -6.163 0.0 0
M  V30 17 C -4.6252 -5.9635 0.0 0
M  V30 18 C -5.8696 -6.797 0.0 0
M  V30 19 C -8.2526 -7.2313 0.0 0
M  V30 20 N -6.0809 -8.2644 0.0 0
M  V30 21 C -9.7435 -7.02 0.0 0
M  V30 22 C -7.5483 -8.5344 0.0 0
M  V30 23 N -10.3305 -5.623 0.0 0
M  V30 24 C -10.6709 -8.1939 0.0 0
M  V30 25 C -11.8214 -5.4117 0.0 0
M  V30 26 C -12.1618 -7.9826 0.0 0
M  V30 27 C -12.4083 -4.0148 0.0 0
M  V30 28 C -12.7488 -6.5857 0.0 0
M  V30 29 C -13.8992 -3.8035 0.0 0
M  V30 30 C -11.5044 -2.8174 0.0 0
M  V30 31 C -14.4862 -2.4065 0.0 0
M  V30 32 C -12.0914 -1.4204 0.0 0
M  V30 33 N -13.5822 -1.2091 0.0 0
M  V30 34 N -15.977 -2.1952 0.0 0
M  V30 35 C -16.564 -0.7982 0.0 0
M  V30 36 C -16.9044 -3.3691 0.0 0
M  V30 37 C -18.0549 -0.5869 0.0 0
M  V30 38 C -18.3953 -3.1578 0.0 0
M  V30 39 C -18.9823 -1.7608 0.0 0
M  V30 40 O -20.4732 -1.5495 0.0 0
M  V30 END ATOM
M  V30 BEGIN BOND
M  V30 1 1 1 2
M  V30 2 2 2 3
M  V30 3 1 2 4
M  V30 4 1 3 5
M  V30 5 2 4 6
M  V30 6 2 5 7
M  V30 7 1 8 5 CFG=3
M  V30 8 1 8 9
M  V30 9 1 8 10
M  V30 10 1 9 11
M  V30 11 1 9 12
M  V30 12 1 10 13
M  V30 13 2 11 14
M  V30 14 1 11 15
M  V30 15 1 14 16
M  V30 16 2 15 17
M  V30 17 1 16 18
M  V30 18 1 16 19
M  V30 19 2 18 20
M  V30 20 1 19 21
M  V30 21 2 19 22
M  V30 22 2 21 23
M  V30 23 1 21 24
M  V30 24 1 23 25
M  V30 25 2 24 26
M  V30 26 1 25 27
M  V30 27 2 25 28
M  V30 28 2 27 29
M  V30 29 1 27 30
M  V30 30 1 29 31
M  V30 31 2 30 32
M  V30 32 2 31 33
M  V30 33 1 31 34
M  V30 34 1 34 35
M  V30 35 1 34 36
M  V30 36 1 35 37
M  V30 37 1 36 38
M  V30 38 1 37 39
M  V30 39 1 39 40
M  V30 40 1 6 7
M  V30 41 1 12 13
M  V30 42 1 17 18
M  V30 43 1 20 22
M  V30 44 1 26 28
M  V30 45 1 32 33
M  V30 46 1 38 39
M  V30 END BOND
M  V30 BEGIN COLLECTION
M  V30 MDLV30/STEABS ATOMS=(1 8)
M  V30 END COLLECTION
M  V30 END CTAB
M  END
>  <Compound ID>
189

>  <Name>
GNF-8625

>  <Uniprot>
P04629

>  <Target>
TRKA

>  <Smiles>
OC1CCN(C2=CC(C3=CC=CC(C4=CN=C5C=CC(N6CCC[C@@H]6C6=CC=CC(F)=C6)=NN45)=N3)=CC=N2)CC1

>  <Kd (nM)>
0.81

>  <Assay (Kd)>
Kd was assessed using the KINOMEscan assay

>  <Ki (nM)>


>  <Assay (Ki)>


>  <IC50 (nM)>


>  <Assay (IC50)>


>  <EC50 (nM)>


>  <Assay (EC50)>


>  <Article DOI>
10.1021/acs.jmedchem.0c01342

>  <Molecular Weight>
535.627

>  <Exact Mass>
535.2495868

>  <XLogP3>
4.45

>  <Heavy Atom Count>
40

>  <Ring Count>
7

>  <Hydrogen Bond Acceptor Count>
8

>  <Hydrogen Bond Donor Count>
1

>  <Rotatable Bond Count>
5

>  <Topological Polar Surface Area>
82.68

>  <Molecular Formula>
C31H30FN7O

>  <InChI>
InChI=1S/C31H30FN7O/c32-23-5-1-4-22(18-23)27-8-3-15-38(27)30-10-9-29-34-20-28(39(29)36-30)26-7-2-6-25(35-26)21-11-14-33-31(19-21)37-16-12-24(40)13-17-37/h1-2,4-7,9-11,14,18-20,24,27,40H,3,8,12-13,15-17H2/t27-/m1/s1

>  <InChI Key>
BLGCSOKKBWHJMB-HHHXNRCGSA-N

>  <BindingDB>


>  <PubChem>
58335500

>  <ChEMBL>


$$$$
Compound 546
Actelion Java MolfileCreator 2.0

  0  0  0  0  0  0              0 V3000
M  V30 BEGIN CTAB
M  V30 COUNTS 40 46 0 0 0
M  V30 BEGIN ATOM
M  V30 1 F 0.0 0.0 0.0 0
M  V30 2 C -1.0447 -1.0682 0.0 0
M  V30 3 C -2.5121 -0.7043 0.0 0
M  V30 4 C -0.6339 -2.4887 0.0 0
M  V30 5 C -3.5569 -1.7726 0.0 0
M  V30 6 C -1.6787 -3.5569 0.0 0
M  V30 7 C -3.1461 -3.193 0.0 0
M  V30 8 C -5.0243 -1.4087 0.0 0 CFG=2
M  V30 9 N -6.1748 -2.3713 0.0 0
M  V30 10 C -5.6113 -0.0117 0.0 0
M  V30 11 C -6.0691 -3.8504 0.0 0
M  V30 12 C -7.4544 -1.573 0.0 0
M  V30 13 C -7.1139 -0.1173 0.0 0
M  V30 14 N -7.3135 -4.6839 0.0 0
M  V30 15 C -4.7309 -4.4843 0.0 0
M  V30 16 N -7.2078 -6.163 0.0 0
M  V30 17 C -4.6252 -5.9635 0.0 0
M  V30 18 C -5.8696 -6.797 0.0 0
M  V30 19 C -8.2526 -7.2313 0.0 0
M  V30 20 N -6.0809 -8.2644 0.0 0
M  V30 21 C -9.7435 -7.02 0.0 0
M  V30 22 C -7.5483 -8.5344 0.0 0
M  V30 23 N -10.3305 -5.623 0.0 0
M  V30 24 C -10.6709 -8.1939 0.0 0
M  V30 25 C -11.8214 -5.4117 0.0 0
M  V30 26 C -12.1618 -7.9826 0.0 0
M  V30 27 C -12.4083 -4.0148 0.0 0
M  V30 28 C -12.7488 -6.5857 0.0 0
M  V30 29 C -13.8992 -3.8035 0.0 0
M  V30 30 C -11.5044 -2.8174 0.0 0
M  V30 31 C -14.4862 -2.4065 0.0 0
M  V30 32 C -12.0914 -1.4204 0.0 0
M  V30 33 N -13.5822 -1.2091 0.0 0
M  V30 34 N -15.977 -2.1952 0.0 0
M  V30 35 C -16.564 -0.7982 0.0 0
M  V30 36 C -16.9044 -3.3691 0.0 0
M  V30 37 C -18.0549 -0.5869 0.0 0
M  V30 38 C -18.3953 -3.1578 0.0 0
M  V30 39 C -18.9823 -1.7608 0.0 0
M  V30 40 O -20.4732 -1.5495 0.0 0
M  V30 END ATOM
M  V30 BEGIN BOND
M  V30 1 1 1 2
M  V30 2 2 2 3
M  V30 3 1 2 4
M  V30 4 1 3 5
M  V30 5 2 4 6
M  V30 6 2 5 7
M  V30 7 1 8 5 CFG=3
M  V30 8 1 8 9
M  V30 9 1 8 10
M  V30 10 1 9 11
M  V30 11 1 9 12
M  V30 12 1 10 13
M  V30 13 2 11 14
M  V30 14 1 11 15
M  V30 15 1 14 16
M  V30 16 2 15 17
M  V30 17 1 16 18
M  V30 18 1 16 19
M  V30 19 2 18 20
M  V30 20 1 19 21
M  V30 21 2 19 22
M  V30 22 2 21 23
M  V30 23 1 21 24
M  V30 24 1 23 25
M  V30 25 2 24 26
M  V30 26 1 25 27
M  V30 27 2 25 28
M  V30 28 2 27 29
M  V30 29 1 27 30
M  V30 30 1 29 31
M  V30 31 2 30 32
M  V30 32 2 31 33
M  V30 33 1 31 34
M  V30 34 1 34 35
M  V30 35 1 34 36
M  V30 36 1 35 37
M  V30 37 1 36 38
M  V30 38 1 37 39
M  V30 39 1 39 40
M  V30 40 1 6 7
M  V30 41 1 12 13
M  V30 42 1 17 18
M  V30 43 1 20 22
M  V30 44 1 26 28
M  V30 45 1 32 33
M  V30 46 1 38 39
M  V30 END BOND
M  V30 BEGIN COLLECTION
M  V30 MDLV30/STEABS ATOMS=(1 8)
M  V30 END COLLECTION
M  V30 END CTAB
M  END
>  <Compound ID>
189

>  <Name>
GNF-8625

>  <Uniprot>
Q16620

>  <Target>
TRKB

>  <Smiles>
OC1CCN(C2=CC(C3=CC=CC(C4=CN=C5C=CC(N6CCC[C@@H]6C6=CC=CC(F)=C6)=NN45)=N3)=CC=N2)CC1

>  <Kd (nM)>
22.7

>  <Assay (Kd)>
Kd was assessed using the KINOMEscan assay

>  <Ki (nM)>


>  <Assay (Ki)>


>  <IC50 (nM)>


>  <Assay (IC50)>


>  <EC50 (nM)>


>  <Assay (EC50)>


>  <Article DOI>
10.1021/acs.jmedchem.0c01342

>  <Molecular Weight>
535.627

>  <Exact Mass>
535.2495868

>  <XLogP3>
4.45

>  <Heavy Atom Count>
40

>  <Ring Count>
7

>  <Hydrogen Bond Acceptor Count>
8

>  <Hydrogen Bond Donor Count>
1

>  <Rotatable Bond Count>
5

>  <Topological Polar Surface Area>
82.68

>  <Molecular Formula>
C31H30FN7O

>  <InChI>
InChI=1S/C31H30FN7O/c32-23-5-1-4-22(18-23)27-8-3-15-38(27)30-10-9-29-34-20-28(39(29)36-30)26-7-2-6-25(35-26)21-11-14-33-31(19-21)37-16-12-24(40)13-17-37/h1-2,4-7,9-11,14,18-20,24,27,40H,3,8,12-13,15-17H2/t27-/m1/s1

>  <InChI Key>
BLGCSOKKBWHJMB-HHHXNRCGSA-N

>  <BindingDB>


>  <PubChem>
58335500

>  <ChEMBL>


$$$$
Compound 547
Actelion Java MolfileCreator 2.0

  0  0  0  0  0  0              0 V3000
M  V30 BEGIN CTAB
M  V30 COUNTS 40 46 0 0 0
M  V30 BEGIN ATOM
M  V30 1 F 0.0 0.0 0.0 0
M  V30 2 C -1.0447 -1.0682 0.0 0
M  V30 3 C -2.5121 -0.7043 0.0 0
M  V30 4 C -0.6339 -2.4887 0.0 0
M  V30 5 C -3.5569 -1.7726 0.0 0
M  V30 6 C -1.6787 -3.5569 0.0 0
M  V30 7 C -3.1461 -3.193 0.0 0
M  V30 8 C -5.0243 -1.4087 0.0 0 CFG=2
M  V30 9 N -6.1748 -2.3713 0.0 0
M  V30 10 C -5.6113 -0.0117 0.0 0
M  V30 11 C -6.0691 -3.8504 0.0 0
M  V30 12 C -7.4544 -1.573 0.0 0
M  V30 13 C -7.1139 -0.1173 0.0 0
M  V30 14 N -7.3135 -4.6839 0.0 0
M  V30 15 C -4.7309 -4.4843 0.0 0
M  V30 16 N -7.2078 -6.163 0.0 0
M  V30 17 C -4.6252 -5.9635 0.0 0
M  V30 18 C -5.8696 -6.797 0.0 0
M  V30 19 C -8.2526 -7.2313 0.0 0
M  V30 20 N -6.0809 -8.2644 0.0 0
M  V30 21 C -9.7435 -7.02 0.0 0
M  V30 22 C -7.5483 -8.5344 0.0 0
M  V30 23 N -10.3305 -5.623 0.0 0
M  V30 24 C -10.6709 -8.1939 0.0 0
M  V30 25 C -11.8214 -5.4117 0.0 0
M  V30 26 C -12.1618 -7.9826 0.0 0
M  V30 27 C -12.4083 -4.0148 0.0 0
M  V30 28 C -12.7488 -6.5857 0.0 0
M  V30 29 C -13.8992 -3.8035 0.0 0
M  V30 30 C -11.5044 -2.8174 0.0 0
M  V30 31 C -14.4862 -2.4065 0.0 0
M  V30 32 C -12.0914 -1.4204 0.0 0
M  V30 33 N -13.5822 -1.2091 0.0 0
M  V30 34 N -15.977 -2.1952 0.0 0
M  V30 35 C -16.564 -0.7982 0.0 0
M  V30 36 C -16.9044 -3.3691 0.0 0
M  V30 37 C -18.0549 -0.5869 0.0 0
M  V30 38 C -18.3953 -3.1578 0.0 0
M  V30 39 C -18.9823 -1.7608 0.0 0
M  V30 40 O -20.4732 -1.5495 0.0 0
M  V30 END ATOM
M  V30 BEGIN BOND
M  V30 1 1 1 2
M  V30 2 2 2 3
M  V30 3 1 2 4
M  V30 4 1 3 5
M  V30 5 2 4 6
M  V30 6 2 5 7
M  V30 7 1 8 5 CFG=3
M  V30 8 1 8 9
M  V30 9 1 8 10
M  V30 10 1 9 11
M  V30 11 1 9 12
M  V30 12 1 10 13
M  V30 13 2 11 14
M  V30 14 1 11 15
M  V30 15 1 14 16
M  V30 16 2 15 17
M  V30 17 1 16 18
M  V30 18 1 16 19
M  V30 19 2 18 20
M  V30 20 1 19 21
M  V30 21 2 19 22
M  V30 22 2 21 23
M  V30 23 1 21 24
M  V30 24 1 23 25
M  V30 25 2 24 26
M  V30 26 1 25 27
M  V30 27 2 25 28
M  V30 28 2 27 29
M  V30 29 1 27 30
M  V30 30 1 29 31
M  V30 31 2 30 32
M  V30 32 2 31 33
M  V30 33 1 31 34
M  V30 34 1 34 35
M  V30 35 1 34 36
M  V30 36 1 35 37
M  V30 37 1 36 38
M  V30 38 1 37 39
M  V30 39 1 39 40
M  V30 40 1 6 7
M  V30 41 1 12 13
M  V30 42 1 17 18
M  V30 43 1 20 22
M  V30 44 1 26 28
M  V30 45 1 32 33
M  V30 46 1 38 39
M  V30 END BOND
M  V30 BEGIN COLLECTION
M  V30 MDLV30/STEABS ATOMS=(1 8)
M  V30 END COLLECTION
M  V30 END CTAB
M  END
>  <Compound ID>
189

>  <Name>
GNF-8625

>  <Uniprot>
Q16288

>  <Target>
TRKC

>  <Smiles>
OC1CCN(C2=CC(C3=CC=CC(C4=CN=C5C=CC(N6CCC[C@@H]6C6=CC=CC(F)=C6)=NN45)=N3)=CC=N2)CC1

>  <Kd (nM)>
5.4

>  <Assay (Kd)>
Kd was assessed using the KINOMEscan assay

>  <Ki (nM)>


>  <Assay (Ki)>


>  <IC50 (nM)>


>  <Assay (IC50)>


>  <EC50 (nM)>


>  <Assay (EC50)>


>  <Article DOI>
10.1021/acs.jmedchem.0c01342

>  <Molecular Weight>
535.627

>  <Exact Mass>
535.2495868

>  <XLogP3>
4.45

>  <Heavy Atom Count>
40

>  <Ring Count>
7

>  <Hydrogen Bond Acceptor Count>
8

>  <Hydrogen Bond Donor Count>
1

>  <Rotatable Bond Count>
5

>  <Topological Polar Surface Area>
82.68

>  <Molecular Formula>
C31H30FN7O

>  <InChI>
InChI=1S/C31H30FN7O/c32-23-5-1-4-22(18-23)27-8-3-15-38(27)30-10-9-29-34-20-28(39(29)36-30)26-7-2-6-25(35-26)21-11-14-33-31(19-21)37-16-12-24(40)13-17-37/h1-2,4-7,9-11,14,18-20,24,27,40H,3,8,12-13,15-17H2/t27-/m1/s1

>  <InChI Key>
BLGCSOKKBWHJMB-HHHXNRCGSA-N

>  <BindingDB>


>  <PubChem>
58335500

>  <ChEMBL>


$$$$
Compound 548
Actelion Java MolfileCreator 2.0

  0  0  0  0  0  0              0 V3000
M  V30 BEGIN CTAB
M  V30 COUNTS 31 33 0 0 0
M  V30 BEGIN ATOM
M  V30 1 S 0.0 0.0 0.0 0
M  V30 2 C 0.1654 1.501 0.0 0
M  V30 3 N -0.9455 2.5292 0.0 0
M  V30 4 N 1.4655 2.2455 0.0 0
M  V30 5 C -2.4346 2.2455 0.0 0
M  V30 6 C -0.3309 3.9002 0.0 0
M  V30 7 C 2.8129 1.631 0.0 0
M  V30 8 C 1.1582 3.7347 0.0 0
M  V30 9 C -2.931 0.8391 0.0 0
M  V30 10 C -3.4393 3.392 0.0 0
M  V30 11 O -1.0755 5.2239 0.0 0
M  V30 12 C 2.931 0.1536 0.0 0
M  V30 13 C 4.0302 2.5056 0.0 0
M  V30 14 C 1.17 5.2476 0.0 0
M  V30 15 C 2.6356 3.8766 0.0 0
M  V30 16 C -4.4202 0.5554 0.0 0
M  V30 17 C -4.9284 3.1083 0.0 0
M  V30 18 C 4.2784 -0.4609 0.0 0
M  V30 19 C 5.3776 1.891 0.0 0
M  V30 20 C -5.4248 1.7019 0.0 0
M  V30 21 C -4.9166 -0.8509 0.0 0
M  V30 22 F 4.3966 -1.9383 0.0 0
M  V30 23 C 5.4957 0.4136 0.0 0
M  V30 24 F 6.5949 2.7656 0.0 0
M  V30 25 C -6.914 1.4182 0.0 0
M  V30 26 F -5.413 -2.2574 0.0 0
M  V30 27 F -3.5102 -1.3237 0.0 0
M  V30 28 F -6.3467 -0.3545 0.0 0
M  V30 29 O 6.8431 -0.2009 0.0 0
M  V30 30 N -8.4032 1.1346 0.0 0
M  V30 31 C 6.9613 -1.6782 0.0 0
M  V30 END ATOM
M  V30 BEGIN BOND
M  V30 1 2 1 2
M  V30 2 1 2 3
M  V30 3 1 2 4
M  V30 4 1 3 5
M  V30 5 1 3 6
M  V30 6 1 4 7
M  V30 7 1 4 8
M  V30 8 2 5 9
M  V30 9 1 5 10
M  V30 10 2 6 11
M  V30 11 2 7 12
M  V30 12 1 7 13
M  V30 13 1 8 14
M  V30 14 1 8 15
M  V30 15 1 9 16
M  V30 16 2 10 17
M  V30 17 1 12 18
M  V30 18 2 13 19
M  V30 19 2 16 20
M  V30 20 1 16 21
M  V30 21 1 18 22
M  V30 22 2 18 23
M  V30 23 1 19 24
M  V30 24 1 20 25
M  V30 25 1 21 26
M  V30 26 1 21 27
M  V30 27 1 21 28
M  V30 28 1 23 29
M  V30 29 3 25 30
M  V30 30 1 29 31
M  V30 31 1 6 8
M  V30 32 1 17 20
M  V30 33 1 19 23
M  V30 END BOND
M  V30 END CTAB
M  END
>  <Compound ID>
190

>  <Name>


>  <Uniprot>
P10275

>  <Target>
AR

>  <Smiles>
COC1=C(F)C=C(N2C(=S)N(C3=CC=C(C#N)C(C(F)(F)F)=C3)C(=O)C2(C)C)C=C1F

>  <Kd (nM)>


>  <Assay (Kd)>


>  <Ki (nM)>


>  <Assay (Ki)>


>  <IC50 (nM)>


>  <Assay (IC50)>


>  <EC50 (nM)>


>  <Assay (EC50)>


>  <Article DOI>


>  <Molecular Weight>
455.408

>  <Exact Mass>
455.072688788

>  <XLogP3>
4.4

>  <Heavy Atom Count>
31

>  <Ring Count>
3

>  <Hydrogen Bond Acceptor Count>
4

>  <Hydrogen Bond Donor Count>
0

>  <Rotatable Bond Count>
3

>  <Topological Polar Surface Area>
56.57

>  <Molecular Formula>
C20H14F5N3O2S

>  <InChI>
InChI=1S/C20H14F5N3O2S/c1-19(2)17(29)27(11-5-4-10(9-26)13(6-11)20(23,24)25)18(31)28(19)12-7-14(21)16(30-3)15(22)8-12/h4-8H,1-3H3

>  <InChI Key>
MOFHRYQJPMAOHG-UHFFFAOYSA-N

>  <BindingDB>


>  <PubChem>
118884108

>  <ChEMBL>


$$$$
Compound 549
Actelion Java MolfileCreator 2.0

  0  0  0  0  0  0              0 V3000
M  V30 BEGIN CTAB
M  V30 COUNTS 28 30 0 0 0
M  V30 BEGIN ATOM
M  V30 1 S 0.0 0.0 0.0 0
M  V30 2 C -0.3194 -1.4553 0.0 0
M  V30 3 N 0.6744 -2.5556 0.0 0
M  V30 4 N -1.7037 -2.0587 0.0 0
M  V30 5 C 2.1533 -2.3781 0.0 0
M  V30 6 C -0.0828 -3.8453 0.0 0
M  V30 7 C -3.017 -1.3014 0.0 0
M  V30 8 C -1.5499 -3.5376 0.0 0
M  V30 9 C 3.0289 -3.5731 0.0 0
M  V30 10 C 2.7449 -0.9938 0.0 0
M  V30 11 O 0.5205 -5.2059 0.0 0
M  V30 12 C -3.0407 0.2129 0.0 0
M  V30 13 C -4.3304 -2.0468 0.0 0
M  V30 14 C -1.7156 -5.0166 0.0 0
M  V30 15 C -3.0644 -3.5376 0.0 0
M  V30 16 N 4.5078 -3.3957 0.0 0
M  V30 17 C 4.2239 -0.8163 0.0 0
M  V30 18 C -4.354 0.9702 0.0 0
M  V30 19 C -5.6437 -1.2896 0.0 0
M  V30 20 C 5.0994 -2.0113 0.0 0
M  V30 21 C 4.8155 0.5679 0.0 0
M  V30 22 C -5.6674 0.2248 0.0 0
M  V30 23 C 6.5784 -1.8339 0.0 0
M  V30 24 F 5.4071 1.9522 0.0 0
M  V30 25 F 6.1761 -0.0236 0.0 0
M  V30 26 F 3.4312 1.1831 0.0 0
M  V30 27 O -6.9807 0.982 0.0 0
M  V30 28 N 8.0574 -1.6564 0.0 0
M  V30 END ATOM
M  V30 BEGIN BOND
M  V30 1 2 1 2
M  V30 2 1 2 3
M  V30 3 1 2 4
M  V30 4 1 3 5
M  V30 5 1 3 6
M  V30 6 1 4 7
M  V30 7 1 4 8
M  V30 8 2 5 9
M  V30 9 1 5 10
M  V30 10 2 6 11
M  V30 11 2 7 12
M  V30 12 1 7 13
M  V30 13 1 8 14
M  V30 14 1 8 15
M  V30 15 1 9 16
M  V30 16 2 10 17
M  V30 17 1 12 18
M  V30 18 2 13 19
M  V30 19 2 16 20
M  V30 20 1 17 21
M  V30 21 2 18 22
M  V30 22 1 20 23
M  V30 23 1 21 24
M  V30 24 1 21 25
M  V30 25 1 21 26
M  V30 26 1 22 27
M  V30 27 3 23 28
M  V30 28 1 6 8
M  V30 29 1 17 20
M  V30 30 1 19 22
M  V30 END BOND
M  V30 END CTAB
M  END
>  <Compound ID>
191

>  <Name>


>  <Uniprot>
P10275

>  <Target>
AR

>  <Smiles>
CC1(C)C(=O)N(C2=CN=C(C#N)C(C(F)(F)F)=C2)C(=S)N1C1=CC=C(O)C=C1

>  <Kd (nM)>


>  <Assay (Kd)>


>  <Ki (nM)>


>  <Assay (Ki)>


>  <IC50 (nM)>


>  <Assay (IC50)>


>  <EC50 (nM)>


>  <Assay (EC50)>


>  <Article DOI>


>  <Molecular Weight>
406.389

>  <Exact Mass>
406.071131316

>  <XLogP3>
3.14

>  <Heavy Atom Count>
28

>  <Ring Count>
3

>  <Hydrogen Bond Acceptor Count>
5

>  <Hydrogen Bond Donor Count>
1

>  <Rotatable Bond Count>
2

>  <Topological Polar Surface Area>
80.46

>  <Molecular Formula>
C18H13F3N4O2S

>  <InChI>
InChI=1S/C18H13F3N4O2S/c1-17(2)15(27)24(16(28)25(17)10-3-5-12(26)6-4-10)11-7-13(18(19,20)21)14(8-22)23-9-11/h3-7,9,26H,1-2H3

>  <InChI Key>
XDMFMJFVWVJZOL-UHFFFAOYSA-N

>  <BindingDB>


>  <PubChem>
88917586

>  <ChEMBL>


$$$$
Compound 550
Actelion Java MolfileCreator 2.0

  0  0  0  0  0  0              0 V3000
M  V30 BEGIN CTAB
M  V30 COUNTS 25 27 0 0 0
M  V30 BEGIN ATOM
M  V30 1 Cl 0.0 0.0 0.0 0
M  V30 2 C -0.4594 -1.4138 0.0 0
M  V30 3 C 0.5419 -2.5095 0.0 0
M  V30 4 C -1.9322 -1.7319 0.0 0
M  V30 5 C 1.9911 -2.1678 0.0 0
M  V30 6 C 0.0824 -3.9233 0.0 0
M  V30 7 C -2.3917 -3.1457 0.0 0
M  V30 8 N 3.4402 -1.8261 0.0 0
M  V30 9 C -1.3902 -4.2414 0.0 0
M  V30 10 N -3.8644 -3.4638 0.0 0
M  V30 11 C -4.9954 -2.4623 0.0 0
M  V30 12 C -4.477 -4.8305 0.0 0
M  V30 13 S -4.8658 -0.9661 0.0 0
M  V30 14 N -6.2914 -3.2164 0.0 0
M  V30 15 O -3.723 -6.1029 0.0 0
M  V30 16 C -5.9733 -4.6773 0.0 0
M  V30 17 C -7.6817 -2.6037 0.0 0
M  V30 18 C -5.9733 -6.1618 0.0 0
M  V30 19 C -7.4696 -4.8423 0.0 0
M  V30 20 C -7.8702 -1.1074 0.0 0
M  V30 21 C -8.8952 -3.4874 0.0 0
M  V30 22 C -9.2604 -0.4948 0.0 0
M  V30 23 C -10.2855 -2.8747 0.0 0
M  V30 24 C -10.474 -1.3784 0.0 0
M  V30 25 O -11.8642 -0.7658 0.0 0
M  V30 END ATOM
M  V30 BEGIN BOND
M  V30 1 1 1 2
M  V30 2 2 2 3
M  V30 3 1 2 4
M  V30 4 1 3 5
M  V30 5 1 3 6
M  V30 6 2 4 7
M  V30 7 3 5 8
M  V30 8 2 6 9
M  V30 9 1 7 10
M  V30 10 1 10 11
M  V30 11 1 10 12
M  V30 12 2 11 13
M  V30 13 1 11 14
M  V30 14 2 12 15
M  V30 15 1 12 16
M  V30 16 1 14 17
M  V30 17 1 16 18
M  V30 18 1 16 19
M  V30 19 2 17 20
M  V30 20 1 17 21
M  V30 21 1 20 22
M  V30 22 2 21 23
M  V30 23 2 22 24
M  V30 24 1 24 25
M  V30 25 1 7 9
M  V30 26 1 14 16
M  V30 27 1 23 24
M  V30 END BOND
M  V30 END CTAB
M  END
>  <Compound ID>
192

>  <Name>


>  <Uniprot>
P10275

>  <Target>
AR

>  <Smiles>
CC1(C)C(=O)N(C2=CC=C(C#N)C(Cl)=C2)C(=S)N1C1=CC=C(O)C=C1

>  <Kd (nM)>


>  <Assay (Kd)>


>  <Ki (nM)>


>  <Assay (Ki)>


>  <IC50 (nM)>


>  <Assay (IC50)>


>  <EC50 (nM)>


>  <Assay (EC50)>


>  <Article DOI>


>  <Molecular Weight>
371.849

>  <Exact Mass>
371.049525368

>  <XLogP3>
3.62

>  <Heavy Atom Count>
25

>  <Ring Count>
3

>  <Hydrogen Bond Acceptor Count>
4

>  <Hydrogen Bond Donor Count>
1

>  <Rotatable Bond Count>
2

>  <Topological Polar Surface Area>
67.57

>  <Molecular Formula>
C18H14ClN3O2S

>  <InChI>
InChI=1S/C18H14ClN3O2S/c1-18(2)16(24)21(13-4-3-11(10-20)15(19)9-13)17(25)22(18)12-5-7-14(23)8-6-12/h3-9,23H,1-2H3

>  <InChI Key>
NSACPWWDFSZXSG-UHFFFAOYSA-N

>  <BindingDB>


>  <PubChem>
122423032

>  <ChEMBL>


$$$$
Compound 551
Actelion Java MolfileCreator 2.0

  0  0  0  0  0  0              0 V3000
M  V30 BEGIN CTAB
M  V30 COUNTS 28 30 0 0 0
M  V30 BEGIN ATOM
M  V30 1 F 0.0 0.0 0.0 0
M  V30 2 C -0.6139 -1.3578 0.0 0
M  V30 3 F -1.9954 -0.7438 0.0 0
M  V30 4 F 0.7438 -1.9482 0.0 0
M  V30 5 C -1.2279 -2.7156 0.0 0
M  V30 6 C -0.3542 -3.9082 0.0 0
M  V30 7 C -2.7275 -2.8691 0.0 0
M  V30 8 C 1.1216 -3.7311 0.0 0
M  V30 9 C -0.9682 -5.266 0.0 0
M  V30 10 C -3.3414 -4.227 0.0 0
M  V30 11 N 2.5976 -3.554 0.0 0
M  V30 12 C -2.4677 -5.4195 0.0 0
M  V30 13 N -4.841 -4.3805 0.0 0
M  V30 14 C -5.8564 -3.2588 0.0 0
M  V30 15 C -5.5966 -5.6675 0.0 0
M  V30 16 O -5.5612 -1.7829 0.0 0
M  V30 17 N -7.2379 -3.861 0.0 0
M  V30 18 O -4.9945 -7.0253 0.0 0
M  V30 19 C -7.0726 -5.3487 0.0 0
M  V30 20 C -8.5485 -3.1053 0.0 0
M  V30 21 C -7.2379 -6.8246 0.0 0
M  V30 22 C -8.5839 -5.3487 0.0 0
M  V30 23 C -8.5721 -1.5939 0.0 0
M  V30 24 C -9.8591 -3.8492 0.0 0
M  V30 25 C -9.8827 -0.8383 0.0 0
M  V30 26 C -11.1697 -3.0935 0.0 0
M  V30 27 C -11.1933 -1.5821 0.0 0
M  V30 28 O -12.504 -0.8265 0.0 0
M  V30 END ATOM
M  V30 BEGIN BOND
M  V30 1 1 1 2
M  V30 2 1 2 3
M  V30 3 1 2 4
M  V30 4 1 2 5
M  V30 5 2 5 6
M  V30 6 1 5 7
M  V30 7 1 6 8
M  V30 8 1 6 9
M  V30 9 2 7 10
M  V30 10 3 8 11
M  V30 11 2 9 12
M  V30 12 1 10 13
M  V30 13 1 13 14
M  V30 14 1 13 15
M  V30 15 2 14 16
M  V30 16 1 14 17
M  V30 17 2 15 18
M  V30 18 1 15 19
M  V30 19 1 17 20
M  V30 20 1 19 21
M  V30 21 1 19 22
M  V30 22 2 20 23
M  V30 23 1 20 24
M  V30 24 1 23 25
M  V30 25 2 24 26
M  V30 26 2 25 27
M  V30 27 1 27 28
M  V30 28 1 10 12
M  V30 29 1 17 19
M  V30 30 1 26 27
M  V30 END BOND
M  V30 END CTAB
M  END
>  <Compound ID>
193

>  <Name>


>  <Uniprot>
P10275

>  <Target>
AR

>  <Smiles>
CC1(C)C(=O)N(C2=CC=C(C#N)C(C(F)(F)F)=C2)C(=O)N1C1=CC=C(O)C=C1

>  <Kd (nM)>


>  <Assay (Kd)>


>  <Ki (nM)>


>  <Assay (Ki)>


>  <IC50 (nM)>


>  <Assay (IC50)>


>  <EC50 (nM)>


>  <Assay (EC50)>


>  <Article DOI>


>  <Molecular Weight>
389.333

>  <Exact Mass>
389.098725968

>  <XLogP3>
3.27

>  <Heavy Atom Count>
28

>  <Ring Count>
3

>  <Hydrogen Bond Acceptor Count>
4

>  <Hydrogen Bond Donor Count>
1

>  <Rotatable Bond Count>
2

>  <Topological Polar Surface Area>
84.64

>  <Molecular Formula>
C19H14F3N3O3

>  <InChI>
InChI=1S/C19H14F3N3O3/c1-18(2)16(27)24(17(28)25(18)12-5-7-14(26)8-6-12)13-4-3-11(10-23)15(9-13)19(20,21)22/h3-9,26H,1-2H3

>  <InChI Key>
YAURGAWHOGZLGR-UHFFFAOYSA-N

>  <BindingDB>


>  <PubChem>
46889417

>  <ChEMBL>
CHEMBL1086001

$$$$
Compound 552
Actelion Java MolfileCreator 2.0

  0  0  0  0  0  0              0 V3000
M  V30 BEGIN CTAB
M  V30 COUNTS 34 37 0 0 0
M  V30 BEGIN ATOM
M  V30 1 O 0.0 0.0 0.0 0
M  V30 2 C 0.2939 1.4813 0.0 0
M  V30 3 N -0.8347 2.4923 0.0 0
M  V30 4 C 1.7046 1.9633 0.0 0
M  V30 5 N -0.5407 3.9736 0.0 0
M  V30 6 C -2.2689 2.0338 0.0 0
M  V30 7 N 2.9978 1.2344 0.0 0
M  V30 8 C 1.9985 3.4446 0.0 0
M  V30 9 C 0.8699 4.4556 0.0 0
M  V30 10 C -3.3976 3.0449 0.0 0
M  V30 11 N 4.1029 2.2572 0.0 0
M  V30 12 C 3.4799 3.6209 0.0 0
M  V30 13 C 1.1638 5.937 0.0 0
M  V30 14 C -4.8318 2.5864 0.0 0
M  V30 15 C 5.5607 1.9633 0.0 0
M  V30 16 C 4.2088 4.9377 0.0 0
M  V30 17 C -5.9605 3.5974 0.0 0
M  V30 18 C 6.0192 0.5525 0.0 0
M  V30 19 C 6.5483 3.0919 0.0 0
M  V30 20 O -5.6666 5.0787 0.0 0
M  V30 21 N -7.3948 3.1389 0.0 0
M  V30 22 C 7.477 0.2586 0.0 0
M  V30 23 C 8.0061 2.798 0.0 0
M  V30 24 C -8.5234 4.15 0.0 0
M  V30 25 C 8.4646 1.3872 0.0 0
M  V30 26 C -9.9577 3.6915 0.0 0 CFG=1
M  V30 27 C 9.9224 1.0933 0.0 0
M  V30 28 C -10.2751 2.2337 0.0 0
M  V30 29 C -11.0863 4.7025 0.0 0
M  V30 30 C -11.7094 1.7752 0.0 0
M  V30 31 C -9.17 1.2461 0.0 0
M  V30 32 C -12.0268 0.3174 0.0 0
M  V30 33 C -9.4874 -0.2116 0.0 0
M  V30 34 C -10.9217 -0.6701 0.0 0
M  V30 END ATOM
M  V30 BEGIN BOND
M  V30 1 2 1 2
M  V30 2 1 2 3
M  V30 3 1 2 4
M  V30 4 1 3 5
M  V30 5 1 3 6
M  V30 6 2 4 7
M  V30 7 1 4 8
M  V30 8 2 5 9
M  V30 9 1 6 10
M  V30 10 1 7 11
M  V30 11 2 8 12
M  V30 12 1 9 13
M  V30 13 1 10 14
M  V30 14 1 11 15
M  V30 15 1 12 16
M  V30 16 1 14 17
M  V30 17 2 15 18
M  V30 18 1 15 19
M  V30 19 2 17 20
M  V30 20 1 17 21
M  V30 21 1 18 22
M  V30 22 2 19 23
M  V30 23 1 21 24
M  V30 24 2 22 25
M  V30 25 1 24 26
M  V30 26 1 25 27
M  V30 27 1 26 28
M  V30 28 1 26 29 CFG=1
M  V30 29 2 28 30
M  V30 30 1 28 31
M  V30 31 1 30 32
M  V30 32 2 31 33
M  V30 33 2 32 34
M  V30 34 1 8 9
M  V30 35 1 11 12
M  V30 36 1 23 25
M  V30 37 1 33 34
M  V30 END BOND
M  V30 BEGIN COLLECTION
M  V30 MDLV30/STERAC1 ATOMS=(1 26)
M  V30 END COLLECTION
M  V30 END CTAB
M  END
>  <Compound ID>
194

>  <Name>
Deltazinone 1

>  <Uniprot>
O43924

>  <Target>
PDEdelta

>  <Smiles>
CC1=CC=C(N2N=C3C(=O)N(CCCC(=O)NCC(C)C4=CC=CC=C4)N=C(C)C3=C2C)C=C1

>  <Kd (nM)>
8

>  <Assay (Kd)>
FP

>  <Ki (nM)>


>  <Assay (Ki)>


>  <IC50 (nM)>


>  <Assay (IC50)>


>  <EC50 (nM)>


>  <Assay (EC50)>


>  <Article DOI>
10.1038/ncomms11360

>  <Molecular Weight>
457.578

>  <Exact Mass>
457.247775232

>  <XLogP3>
4.16

>  <Heavy Atom Count>
34

>  <Ring Count>
4

>  <Hydrogen Bond Acceptor Count>
6

>  <Hydrogen Bond Donor Count>
1

>  <Rotatable Bond Count>
8

>  <Topological Polar Surface Area>
81.81

>  <Molecular Formula>
C27H31N5O2

>  <InChI>
InChI=1S/C27H31N5O2/c1-18-12-14-23(15-13-18)32-21(4)25-20(3)29-31(27(34)26(25)30-32)16-8-11-24(33)28-17-19(2)22-9-6-5-7-10-22/h5-7,9-10,12-15,19H,8,11,16-17H2,1-4H3,(H,28,33)

>  <InChI Key>
HZNKNJCWLQLQMJ-UHFFFAOYSA-N

>  <BindingDB>
50249989

>  <PubChem>
20919929

>  <ChEMBL>
CHEMBL1387422

$$$$
Compound 553
Actelion Java MolfileCreator 2.0

  0  0  0  0  0  0              0 V3000
M  V30 BEGIN CTAB
M  V30 COUNTS 31 34 0 0 0
M  V30 BEGIN ATOM
M  V30 1 Cl 0.0 0.0 0.0 0
M  V30 2 C 1.2069 0.8788 0.0 0
M  V30 3 F 2.0622 -0.328 0.0 0
M  V30 4 F 2.4138 1.7576 0.0 0
M  V30 5 O 0.328 2.1091 0.0 0
M  V30 6 C -1.1717 1.9685 0.0 0
M  V30 7 C -1.8045 0.621 0.0 0
M  V30 8 C -2.0505 3.1988 0.0 0
M  V30 9 C -3.3043 0.4804 0.0 0
M  V30 10 C -3.5504 3.0582 0.0 0
M  V30 11 C -4.1831 1.7107 0.0 0
M  V30 12 N -5.683 1.5701 0.0 0
M  V30 13 C -6.5618 2.8004 0.0 0
M  V30 14 O -5.9525 4.1714 0.0 0
M  V30 15 C -8.0616 2.6598 0.0 0
M  V30 16 C -8.9404 3.8902 0.0 0
M  V30 17 C -8.6944 1.3123 0.0 0
M  V30 18 N -10.4403 3.7496 0.0 0
M  V30 19 C -10.1942 1.1717 0.0 0
M  V30 20 C -11.073 2.402 0.0 0
M  V30 21 C -10.827 -0.1757 0.0 0
M  V30 22 N -12.5729 2.2614 0.0 0
M  V30 23 N -12.3034 -0.4687 0.0 0
M  V30 24 C -10.1005 -1.4646 0.0 0
M  V30 25 C -13.5806 3.3863 0.0 0
M  V30 26 C -13.3345 0.9842 0.0 0
M  V30 27 N -12.4791 -1.9451 0.0 0
M  V30 28 C -11.1199 -2.5544 0.0 0
M  V30 29 C -14.9632 2.8004 0.0 0 CFG=1
M  V30 30 C -14.8109 1.3123 0.0 0
M  V30 31 O -16.2639 3.5621 0.0 0
M  V30 END ATOM
M  V30 BEGIN BOND
M  V30 1 1 1 2
M  V30 2 1 2 3
M  V30 3 1 2 4
M  V30 4 1 2 5
M  V30 5 1 5 6
M  V30 6 2 6 7
M  V30 7 1 6 8
M  V30 8 1 7 9
M  V30 9 2 8 10
M  V30 10 2 9 11
M  V30 11 1 11 12
M  V30 12 1 12 13
M  V30 13 2 13 14
M  V30 14 1 13 15
M  V30 15 2 15 16
M  V30 16 1 15 17
M  V30 17 1 16 18
M  V30 18 2 17 19
M  V30 19 2 18 20
M  V30 20 1 19 21
M  V30 21 1 20 22
M  V30 22 1 21 23
M  V30 23 2 21 24
M  V30 24 1 22 25
M  V30 25 1 22 26
M  V30 26 1 23 27
M  V30 27 1 24 28
M  V30 28 1 25 29
M  V30 29 1 26 30
M  V30 30 1 29 31 CFG=1
M  V30 31 1 10 11
M  V30 32 1 19 20
M  V30 33 2 27 28
M  V30 34 1 29 30
M  V30 END BOND
M  V30 BEGIN COLLECTION
M  V30 MDLV30/STEABS ATOMS=(1 29)
M  V30 END COLLECTION
M  V30 END CTAB
M  END
>  <Compound ID>
195

>  <Name>
Asciminib

>  <Uniprot>


>  <Target>
BCR-ABL

>  <Smiles>
O=C(NC1=CC=C(OC(F)(F)Cl)C=C1)C1=CN=C(N2CC[C@@H](O)C2)C(C2=CC=N[NH]2)=C1

>  <Kd (nM)>
0.5

>  <Assay (Kd)>
ITC

>  <Ki (nM)>


>  <Assay (Ki)>


>  <IC50 (nM)>


>  <Assay (IC50)>


>  <EC50 (nM)>


>  <Assay (EC50)>


>  <Article DOI>
10.1021/acs.jmedchem.8b01040

>  <Molecular Weight>
449.845

>  <Exact Mass>
449.106623556

>  <XLogP3>
3.04

>  <Heavy Atom Count>
31

>  <Ring Count>
4

>  <Hydrogen Bond Acceptor Count>
6

>  <Hydrogen Bond Donor Count>
3

>  <Rotatable Bond Count>
6

>  <Topological Polar Surface Area>
103.37

>  <Molecular Formula>
C20H18ClF2N5O3

>  <InChI>
InChI=1S/C20H18ClF2N5O3/c21-20(22,23)31-15-3-1-13(2-4-15)26-19(30)12-9-16(17-5-7-25-27-17)18(24-10-12)28-8-6-14(29)11-28/h1-5,7,9-10,14,29H,6,8,11H2,(H,25,27)(H,26,30)/t14-/m1/s1

>  <InChI Key>
VOVZXURTCKPRDQ-CQSZACIVSA-N

>  <BindingDB>
50459091

>  <PubChem>
72165228

>  <ChEMBL>
CHEMBL4208229

$$$$
Compound 554
Actelion Java MolfileCreator 2.0

  0  0  0  0  0  0              0 V3000
M  V30 BEGIN CTAB
M  V30 COUNTS 31 34 0 0 0
M  V30 BEGIN ATOM
M  V30 1 Cl 0.0 0.0 0.0 0
M  V30 2 C 1.2069 0.8788 0.0 0
M  V30 3 F 2.0622 -0.328 0.0 0
M  V30 4 F 2.4138 1.7576 0.0 0
M  V30 5 O 0.328 2.1091 0.0 0
M  V30 6 C -1.1717 1.9685 0.0 0
M  V30 7 C -1.8045 0.621 0.0 0
M  V30 8 C -2.0505 3.1988 0.0 0
M  V30 9 C -3.3043 0.4804 0.0 0
M  V30 10 C -3.5504 3.0582 0.0 0
M  V30 11 C -4.1831 1.7107 0.0 0
M  V30 12 N -5.683 1.5701 0.0 0
M  V30 13 C -6.5618 2.8004 0.0 0
M  V30 14 O -5.9525 4.1714 0.0 0
M  V30 15 C -8.0616 2.6598 0.0 0
M  V30 16 C -8.9404 3.8902 0.0 0
M  V30 17 C -8.6944 1.3123 0.0 0
M  V30 18 N -10.4403 3.7496 0.0 0
M  V30 19 C -10.1942 1.1717 0.0 0
M  V30 20 C -11.073 2.402 0.0 0
M  V30 21 C -10.827 -0.1757 0.0 0
M  V30 22 N -12.5729 2.2614 0.0 0
M  V30 23 N -12.3034 -0.4687 0.0 0
M  V30 24 C -10.1005 -1.4646 0.0 0
M  V30 25 C -13.5806 3.3863 0.0 0
M  V30 26 C -13.3345 0.9842 0.0 0
M  V30 27 N -12.4791 -1.9451 0.0 0
M  V30 28 C -11.1199 -2.5544 0.0 0
M  V30 29 C -14.9632 2.8004 0.0 0 CFG=1
M  V30 30 C -14.8109 1.3123 0.0 0
M  V30 31 O -16.2639 3.5621 0.0 0
M  V30 END ATOM
M  V30 BEGIN BOND
M  V30 1 1 1 2
M  V30 2 1 2 3
M  V30 3 1 2 4
M  V30 4 1 2 5
M  V30 5 1 5 6
M  V30 6 2 6 7
M  V30 7 1 6 8
M  V30 8 1 7 9
M  V30 9 2 8 10
M  V30 10 2 9 11
M  V30 11 1 11 12
M  V30 12 1 12 13
M  V30 13 2 13 14
M  V30 14 1 13 15
M  V30 15 2 15 16
M  V30 16 1 15 17
M  V30 17 1 16 18
M  V30 18 2 17 19
M  V30 19 2 18 20
M  V30 20 1 19 21
M  V30 21 1 20 22
M  V30 22 1 21 23
M  V30 23 2 21 24
M  V30 24 1 22 25
M  V30 25 1 22 26
M  V30 26 1 23 27
M  V30 27 1 24 28
M  V30 28 1 25 29
M  V30 29 1 26 30
M  V30 30 1 29 31 CFG=1
M  V30 31 1 10 11
M  V30 32 1 19 20
M  V30 33 2 27 28
M  V30 34 1 29 30
M  V30 END BOND
M  V30 BEGIN COLLECTION
M  V30 MDLV30/STEABS ATOMS=(1 29)
M  V30 END COLLECTION
M  V30 END CTAB
M  END
>  <Compound ID>
195

>  <Name>
Asciminib

>  <Uniprot>


>  <Target>
BCR-ABL T315I

>  <Smiles>
O=C(NC1=CC=C(OC(F)(F)Cl)C=C1)C1=CN=C(N2CC[C@@H](O)C2)C(C2=CC=N[NH]2)=C1

>  <Kd (nM)>


>  <Assay (Kd)>


>  <Ki (nM)>


>  <Assay (Ki)>


>  <IC50 (nM)>


>  <Assay (IC50)>


>  <EC50 (nM)>
5.8

>  <Assay (EC50)>
Inhibit viability of BaF3 BCR-ABL(T315I) cells

>  <Article DOI>
10.1021/acs.jmedchem.0c00967

>  <Molecular Weight>
449.845

>  <Exact Mass>
449.106623556

>  <XLogP3>
3.04

>  <Heavy Atom Count>
31

>  <Ring Count>
4

>  <Hydrogen Bond Acceptor Count>
6

>  <Hydrogen Bond Donor Count>
3

>  <Rotatable Bond Count>
6

>  <Topological Polar Surface Area>
103.37

>  <Molecular Formula>
C20H18ClF2N5O3

>  <InChI>
InChI=1S/C20H18ClF2N5O3/c21-20(22,23)31-15-3-1-13(2-4-15)26-19(30)12-9-16(17-5-7-25-27-17)18(24-10-12)28-8-6-14(29)11-28/h1-5,7,9-10,14,29H,6,8,11H2,(H,25,27)(H,26,30)/t14-/m1/s1

>  <InChI Key>
VOVZXURTCKPRDQ-CQSZACIVSA-N

>  <BindingDB>
50459091

>  <PubChem>
72165228

>  <ChEMBL>
CHEMBL4208229

$$$$
Compound 555
Actelion Java MolfileCreator 2.0

  0  0  0  0  0  0              0 V3000
M  V30 BEGIN CTAB
M  V30 COUNTS 39 43 0 0 0
M  V30 BEGIN ATOM
M  V30 1 F 0.0 0.0 0.0 0
M  V30 2 C -1.053 -1.0648 0.0 0
M  V30 3 F -2.1415 -0.0118 0.0 0
M  V30 4 F 0.0118 -2.0942 0.0 0
M  V30 5 C -2.106 -2.1297 0.0 0
M  V30 6 C -1.7037 -3.5613 0.0 0
M  V30 7 C -3.5731 -1.751 0.0 0
M  V30 8 C -2.7567 -4.6261 0.0 0
M  V30 9 C -0.2602 -3.9162 0.0 0
M  V30 10 C -4.6261 -2.8159 0.0 0
M  V30 11 C -4.2239 -4.2475 0.0 0
M  V30 12 N 0.1419 -5.3479 0.0 0
M  V30 13 N -6.0933 -2.4373 0.0 0
M  V30 14 C -0.911 -6.4127 0.0 0
M  V30 15 C 1.5854 -5.7028 0.0 0
M  V30 16 C -6.5192 -0.982 0.0 0
M  V30 17 C -0.5087 -7.8443 0.0 0
M  V30 18 C 1.9877 -7.1344 0.0 0
M  V30 19 O -5.4898 0.1064 0.0 0
M  V30 20 C -7.9863 -0.6034 0.0 0
M  V30 21 N 0.9347 -8.1993 0.0 0
M  V30 22 C -9.0393 -1.6682 0.0 0
M  V30 23 C -8.4123 0.8518 0.0 0
M  V30 24 C 1.3369 -9.6309 0.0 0
M  V30 25 C -10.5065 -1.2896 0.0 0
M  V30 26 C -9.8794 1.2304 0.0 0
M  V30 27 C -11.5595 -2.3545 0.0 0
M  V30 28 C -10.9324 0.1656 0.0 0
M  V30 29 C -12.6125 -3.4193 0.0 0
M  V30 30 C -12.3995 0.5442 0.0 0
M  V30 31 C -13.6655 -4.4842 0.0 0
M  V30 32 N -13.4171 -5.9513 0.0 0
M  V30 33 C -15.1681 -4.2594 0.0 0
M  V30 34 N -12.1511 -6.7322 0.0 0
M  V30 35 C -14.754 -6.6493 0.0 0
M  V30 36 N -15.8426 -5.5963 0.0 0
M  V30 37 C -12.2221 -8.223 0.0 0
M  V30 38 C -14.825 -8.1401 0.0 0
M  V30 39 C -13.559 -8.921 0.0 0
M  V30 END ATOM
M  V30 BEGIN BOND
M  V30 1 1 1 2
M  V30 2 1 2 3
M  V30 3 1 2 4
M  V30 4 1 2 5
M  V30 5 2 5 6
M  V30 6 1 5 7
M  V30 7 1 6 8
M  V30 8 1 6 9
M  V30 9 2 7 10
M  V30 10 2 8 11
M  V30 11 1 9 12
M  V30 12 1 10 13
M  V30 13 1 12 14
M  V30 14 1 12 15
M  V30 15 1 13 16
M  V30 16 1 14 17
M  V30 17 1 15 18
M  V30 18 2 16 19
M  V30 19 1 16 20
M  V30 20 1 17 21
M  V30 21 2 20 22
M  V30 22 1 20 23
M  V30 23 1 21 24
M  V30 24 1 22 25
M  V30 25 2 23 26
M  V30 26 1 25 27
M  V30 27 2 25 28
M  V30 28 3 27 29
M  V30 29 1 28 30
M  V30 30 1 29 31
M  V30 31 1 31 32
M  V30 32 2 31 33
M  V30 33 1 32 34
M  V30 34 1 32 35
M  V30 35 1 33 36
M  V30 36 2 34 37
M  V30 37 1 35 38
M  V30 38 1 37 39
M  V30 39 1 10 11
M  V30 40 1 18 21
M  V30 41 1 26 28
M  V30 42 2 35 36
M  V30 43 2 38 39
M  V30 END BOND
M  V30 END CTAB
M  END
>  <Compound ID>
196

>  <Name>
Ponatinib

>  <Uniprot>
P00519

>  <Target>
ABL1

>  <Smiles>
CC1=CC=C(C(=O)NC2=CC=C(CN3CCN(C)CC3)C(C(F)(F)F)=C2)C=C1C#CC1=CN=C2C=CC=NN12

>  <Kd (nM)>


>  <Assay (Kd)>


>  <Ki (nM)>


>  <Assay (Ki)>


>  <IC50 (nM)>
0.33

>  <Assay (IC50)>
Inhibition of ABL1 expressed in insect cells after 30 mins by FRET assay

>  <EC50 (nM)>


>  <Assay (EC50)>


>  <Article DOI>
10.1021/jm301581y

>  <Molecular Weight>
532.57

>  <Exact Mass>
532.219844144

>  <XLogP3>
4.11

>  <Heavy Atom Count>
39

>  <Ring Count>
5

>  <Hydrogen Bond Acceptor Count>
6

>  <Hydrogen Bond Donor Count>
1

>  <Rotatable Bond Count>
4

>  <Topological Polar Surface Area>
65.77

>  <Molecular Formula>
C29H27F3N6O

>  <InChI>
InChI=1S/C29H27F3N6O/c1-20-5-6-22(16-21(20)8-10-25-18-33-27-4-3-11-34-38(25)27)28(39)35-24-9-7-23(26(17-24)29(30,31)32)19-37-14-12-36(2)13-15-37/h3-7,9,11,16-18H,12-15,19H2,1-2H3,(H,35,39)

>  <InChI Key>
PHXJVRSECIGDHY-UHFFFAOYSA-N

>  <BindingDB>
50322535

>  <PubChem>
24826799

>  <ChEMBL>
CHEMBL1171837

$$$$
Compound 556
Actelion Java MolfileCreator 2.0

  0  0  0  0  0  0              0 V3000
M  V30 BEGIN CTAB
M  V30 COUNTS 39 43 0 0 0
M  V30 BEGIN ATOM
M  V30 1 F 0.0 0.0 0.0 0
M  V30 2 C -1.053 -1.0648 0.0 0
M  V30 3 F -2.1415 -0.0118 0.0 0
M  V30 4 F 0.0118 -2.0942 0.0 0
M  V30 5 C -2.106 -2.1297 0.0 0
M  V30 6 C -1.7037 -3.5613 0.0 0
M  V30 7 C -3.5731 -1.751 0.0 0
M  V30 8 C -2.7567 -4.6261 0.0 0
M  V30 9 C -0.2602 -3.9162 0.0 0
M  V30 10 C -4.6261 -2.8159 0.0 0
M  V30 11 C -4.2239 -4.2475 0.0 0
M  V30 12 N 0.1419 -5.3479 0.0 0
M  V30 13 N -6.0933 -2.4373 0.0 0
M  V30 14 C -0.911 -6.4127 0.0 0
M  V30 15 C 1.5854 -5.7028 0.0 0
M  V30 16 C -6.5192 -0.982 0.0 0
M  V30 17 C -0.5087 -7.8443 0.0 0
M  V30 18 C 1.9877 -7.1344 0.0 0
M  V30 19 O -5.4898 0.1064 0.0 0
M  V30 20 C -7.9863 -0.6034 0.0 0
M  V30 21 N 0.9347 -8.1993 0.0 0
M  V30 22 C -9.0393 -1.6682 0.0 0
M  V30 23 C -8.4123 0.8518 0.0 0
M  V30 24 C 1.3369 -9.6309 0.0 0
M  V30 25 C -10.5065 -1.2896 0.0 0
M  V30 26 C -9.8794 1.2304 0.0 0
M  V30 27 C -11.5595 -2.3545 0.0 0
M  V30 28 C -10.9324 0.1656 0.0 0
M  V30 29 C -12.6125 -3.4193 0.0 0
M  V30 30 C -12.3995 0.5442 0.0 0
M  V30 31 C -13.6655 -4.4842 0.0 0
M  V30 32 N -13.4171 -5.9513 0.0 0
M  V30 33 C -15.1681 -4.2594 0.0 0
M  V30 34 N -12.1511 -6.7322 0.0 0
M  V30 35 C -14.754 -6.6493 0.0 0
M  V30 36 N -15.8426 -5.5963 0.0 0
M  V30 37 C -12.2221 -8.223 0.0 0
M  V30 38 C -14.825 -8.1401 0.0 0
M  V30 39 C -13.559 -8.921 0.0 0
M  V30 END ATOM
M  V30 BEGIN BOND
M  V30 1 1 1 2
M  V30 2 1 2 3
M  V30 3 1 2 4
M  V30 4 1 2 5
M  V30 5 2 5 6
M  V30 6 1 5 7
M  V30 7 1 6 8
M  V30 8 1 6 9
M  V30 9 2 7 10
M  V30 10 2 8 11
M  V30 11 1 9 12
M  V30 12 1 10 13
M  V30 13 1 12 14
M  V30 14 1 12 15
M  V30 15 1 13 16
M  V30 16 1 14 17
M  V30 17 1 15 18
M  V30 18 2 16 19
M  V30 19 1 16 20
M  V30 20 1 17 21
M  V30 21 2 20 22
M  V30 22 1 20 23
M  V30 23 1 21 24
M  V30 24 1 22 25
M  V30 25 2 23 26
M  V30 26 1 25 27
M  V30 27 2 25 28
M  V30 28 3 27 29
M  V30 29 1 28 30
M  V30 30 1 29 31
M  V30 31 1 31 32
M  V30 32 2 31 33
M  V30 33 1 32 34
M  V30 34 1 32 35
M  V30 35 1 33 36
M  V30 36 2 34 37
M  V30 37 1 35 38
M  V30 38 1 37 39
M  V30 39 1 10 11
M  V30 40 1 18 21
M  V30 41 1 26 28
M  V30 42 2 35 36
M  V30 43 2 38 39
M  V30 END BOND
M  V30 END CTAB
M  END
>  <Compound ID>
196

>  <Name>
Ponatinib

>  <Uniprot>
P42684

>  <Target>
ABL2

>  <Smiles>
CC1=CC=C(C(=O)NC2=CC=C(CN3CCN(C)CC3)C(C(F)(F)F)=C2)C=C1C#CC1=CN=C2C=CC=NN12

>  <Kd (nM)>
20

>  <Assay (Kd)>
Kd apparent of ABL2

>  <Ki (nM)>


>  <Assay (Ki)>


>  <IC50 (nM)>


>  <Assay (IC50)>


>  <EC50 (nM)>


>  <Assay (EC50)>


>  <Article DOI>
10.1126/science.aan4368

>  <Molecular Weight>
532.57

>  <Exact Mass>
532.219844144

>  <XLogP3>
4.11

>  <Heavy Atom Count>
39

>  <Ring Count>
5

>  <Hydrogen Bond Acceptor Count>
6

>  <Hydrogen Bond Donor Count>
1

>  <Rotatable Bond Count>
4

>  <Topological Polar Surface Area>
65.77

>  <Molecular Formula>
C29H27F3N6O

>  <InChI>
InChI=1S/C29H27F3N6O/c1-20-5-6-22(16-21(20)8-10-25-18-33-27-4-3-11-34-38(25)27)28(39)35-24-9-7-23(26(17-24)29(30,31)32)19-37-14-12-36(2)13-15-37/h3-7,9,11,16-18H,12-15,19H2,1-2H3,(H,35,39)

>  <InChI Key>
PHXJVRSECIGDHY-UHFFFAOYSA-N

>  <BindingDB>
50322535

>  <PubChem>
24826799

>  <ChEMBL>
CHEMBL1171837

$$$$
Compound 557
Actelion Java MolfileCreator 2.0

  0  0  0  0  0  0              0 V3000
M  V30 BEGIN CTAB
M  V30 COUNTS 39 43 0 0 0
M  V30 BEGIN ATOM
M  V30 1 F 0.0 0.0 0.0 0
M  V30 2 C -1.053 -1.0648 0.0 0
M  V30 3 F -2.1415 -0.0118 0.0 0
M  V30 4 F 0.0118 -2.0942 0.0 0
M  V30 5 C -2.106 -2.1297 0.0 0
M  V30 6 C -1.7037 -3.5613 0.0 0
M  V30 7 C -3.5731 -1.751 0.0 0
M  V30 8 C -2.7567 -4.6261 0.0 0
M  V30 9 C -0.2602 -3.9162 0.0 0
M  V30 10 C -4.6261 -2.8159 0.0 0
M  V30 11 C -4.2239 -4.2475 0.0 0
M  V30 12 N 0.1419 -5.3479 0.0 0
M  V30 13 N -6.0933 -2.4373 0.0 0
M  V30 14 C -0.911 -6.4127 0.0 0
M  V30 15 C 1.5854 -5.7028 0.0 0
M  V30 16 C -6.5192 -0.982 0.0 0
M  V30 17 C -0.5087 -7.8443 0.0 0
M  V30 18 C 1.9877 -7.1344 0.0 0
M  V30 19 O -5.4898 0.1064 0.0 0
M  V30 20 C -7.9863 -0.6034 0.0 0
M  V30 21 N 0.9347 -8.1993 0.0 0
M  V30 22 C -9.0393 -1.6682 0.0 0
M  V30 23 C -8.4123 0.8518 0.0 0
M  V30 24 C 1.3369 -9.6309 0.0 0
M  V30 25 C -10.5065 -1.2896 0.0 0
M  V30 26 C -9.8794 1.2304 0.0 0
M  V30 27 C -11.5595 -2.3545 0.0 0
M  V30 28 C -10.9324 0.1656 0.0 0
M  V30 29 C -12.6125 -3.4193 0.0 0
M  V30 30 C -12.3995 0.5442 0.0 0
M  V30 31 C -13.6655 -4.4842 0.0 0
M  V30 32 N -13.4171 -5.9513 0.0 0
M  V30 33 C -15.1681 -4.2594 0.0 0
M  V30 34 N -12.1511 -6.7322 0.0 0
M  V30 35 C -14.754 -6.6493 0.0 0
M  V30 36 N -15.8426 -5.5963 0.0 0
M  V30 37 C -12.2221 -8.223 0.0 0
M  V30 38 C -14.825 -8.1401 0.0 0
M  V30 39 C -13.559 -8.921 0.0 0
M  V30 END ATOM
M  V30 BEGIN BOND
M  V30 1 1 1 2
M  V30 2 1 2 3
M  V30 3 1 2 4
M  V30 4 1 2 5
M  V30 5 2 5 6
M  V30 6 1 5 7
M  V30 7 1 6 8
M  V30 8 1 6 9
M  V30 9 2 7 10
M  V30 10 2 8 11
M  V30 11 1 9 12
M  V30 12 1 10 13
M  V30 13 1 12 14
M  V30 14 1 12 15
M  V30 15 1 13 16
M  V30 16 1 14 17
M  V30 17 1 15 18
M  V30 18 2 16 19
M  V30 19 1 16 20
M  V30 20 1 17 21
M  V30 21 2 20 22
M  V30 22 1 20 23
M  V30 23 1 21 24
M  V30 24 1 22 25
M  V30 25 2 23 26
M  V30 26 1 25 27
M  V30 27 2 25 28
M  V30 28 3 27 29
M  V30 29 1 28 30
M  V30 30 1 29 31
M  V30 31 1 31 32
M  V30 32 2 31 33
M  V30 33 1 32 34
M  V30 34 1 32 35
M  V30 35 1 33 36
M  V30 36 2 34 37
M  V30 37 1 35 38
M  V30 38 1 37 39
M  V30 39 1 10 11
M  V30 40 1 18 21
M  V30 41 1 26 28
M  V30 42 2 35 36
M  V30 43 2 38 39
M  V30 END BOND
M  V30 END CTAB
M  END
>  <Compound ID>
196

>  <Name>
Ponatinib

>  <Uniprot>


>  <Target>
BCR-ABL

>  <Smiles>
CC1=CC=C(C(=O)NC2=CC=C(CN3CCN(C)CC3)C(C(F)(F)F)=C2)C=C1C#CC1=CN=C2C=CC=NN12

>  <Kd (nM)>


>  <Assay (Kd)>


>  <Ki (nM)>


>  <Assay (Ki)>


>  <IC50 (nM)>
1

>  <Assay (IC50)>
IC50 was assessed by the FRET-based Z'-Lyte assay

>  <EC50 (nM)>


>  <Assay (EC50)>


>  <Article DOI>
10.1016/j.bmcl.2015.07.006

>  <Molecular Weight>
532.57

>  <Exact Mass>
532.219844144

>  <XLogP3>
4.11

>  <Heavy Atom Count>
39

>  <Ring Count>
5

>  <Hydrogen Bond Acceptor Count>
6

>  <Hydrogen Bond Donor Count>
1

>  <Rotatable Bond Count>
4

>  <Topological Polar Surface Area>
65.77

>  <Molecular Formula>
C29H27F3N6O

>  <InChI>
InChI=1S/C29H27F3N6O/c1-20-5-6-22(16-21(20)8-10-25-18-33-27-4-3-11-34-38(25)27)28(39)35-24-9-7-23(26(17-24)29(30,31)32)19-37-14-12-36(2)13-15-37/h3-7,9,11,16-18H,12-15,19H2,1-2H3,(H,35,39)

>  <InChI Key>
PHXJVRSECIGDHY-UHFFFAOYSA-N

>  <BindingDB>
50322535

>  <PubChem>
24826799

>  <ChEMBL>
CHEMBL1171837

$$$$
Compound 558
Actelion Java MolfileCreator 2.0

  0  0  0  0  0  0              0 V3000
M  V30 BEGIN CTAB
M  V30 COUNTS 39 43 0 0 0
M  V30 BEGIN ATOM
M  V30 1 F 0.0 0.0 0.0 0
M  V30 2 C -1.053 -1.0648 0.0 0
M  V30 3 F -2.1415 -0.0118 0.0 0
M  V30 4 F 0.0118 -2.0942 0.0 0
M  V30 5 C -2.106 -2.1297 0.0 0
M  V30 6 C -1.7037 -3.5613 0.0 0
M  V30 7 C -3.5731 -1.751 0.0 0
M  V30 8 C -2.7567 -4.6261 0.0 0
M  V30 9 C -0.2602 -3.9162 0.0 0
M  V30 10 C -4.6261 -2.8159 0.0 0
M  V30 11 C -4.2239 -4.2475 0.0 0
M  V30 12 N 0.1419 -5.3479 0.0 0
M  V30 13 N -6.0933 -2.4373 0.0 0
M  V30 14 C -0.911 -6.4127 0.0 0
M  V30 15 C 1.5854 -5.7028 0.0 0
M  V30 16 C -6.5192 -0.982 0.0 0
M  V30 17 C -0.5087 -7.8443 0.0 0
M  V30 18 C 1.9877 -7.1344 0.0 0
M  V30 19 O -5.4898 0.1064 0.0 0
M  V30 20 C -7.9863 -0.6034 0.0 0
M  V30 21 N 0.9347 -8.1993 0.0 0
M  V30 22 C -9.0393 -1.6682 0.0 0
M  V30 23 C -8.4123 0.8518 0.0 0
M  V30 24 C 1.3369 -9.6309 0.0 0
M  V30 25 C -10.5065 -1.2896 0.0 0
M  V30 26 C -9.8794 1.2304 0.0 0
M  V30 27 C -11.5595 -2.3545 0.0 0
M  V30 28 C -10.9324 0.1656 0.0 0
M  V30 29 C -12.6125 -3.4193 0.0 0
M  V30 30 C -12.3995 0.5442 0.0 0
M  V30 31 C -13.6655 -4.4842 0.0 0
M  V30 32 N -13.4171 -5.9513 0.0 0
M  V30 33 C -15.1681 -4.2594 0.0 0
M  V30 34 N -12.1511 -6.7322 0.0 0
M  V30 35 C -14.754 -6.6493 0.0 0
M  V30 36 N -15.8426 -5.5963 0.0 0
M  V30 37 C -12.2221 -8.223 0.0 0
M  V30 38 C -14.825 -8.1401 0.0 0
M  V30 39 C -13.559 -8.921 0.0 0
M  V30 END ATOM
M  V30 BEGIN BOND
M  V30 1 1 1 2
M  V30 2 1 2 3
M  V30 3 1 2 4
M  V30 4 1 2 5
M  V30 5 2 5 6
M  V30 6 1 5 7
M  V30 7 1 6 8
M  V30 8 1 6 9
M  V30 9 2 7 10
M  V30 10 2 8 11
M  V30 11 1 9 12
M  V30 12 1 10 13
M  V30 13 1 12 14
M  V30 14 1 12 15
M  V30 15 1 13 16
M  V30 16 1 14 17
M  V30 17 1 15 18
M  V30 18 2 16 19
M  V30 19 1 16 20
M  V30 20 1 17 21
M  V30 21 2 20 22
M  V30 22 1 20 23
M  V30 23 1 21 24
M  V30 24 1 22 25
M  V30 25 2 23 26
M  V30 26 1 25 27
M  V30 27 2 25 28
M  V30 28 3 27 29
M  V30 29 1 28 30
M  V30 30 1 29 31
M  V30 31 1 31 32
M  V30 32 2 31 33
M  V30 33 1 32 34
M  V30 34 1 32 35
M  V30 35 1 33 36
M  V30 36 2 34 37
M  V30 37 1 35 38
M  V30 38 1 37 39
M  V30 39 1 10 11
M  V30 40 1 18 21
M  V30 41 1 26 28
M  V30 42 2 35 36
M  V30 43 2 38 39
M  V30 END BOND
M  V30 END CTAB
M  END
>  <Compound ID>
196

>  <Name>
Ponatinib

>  <Uniprot>


>  <Target>
BCR-ABL T315I

>  <Smiles>
CC1=CC=C(C(=O)NC2=CC=C(CN3CCN(C)CC3)C(C(F)(F)F)=C2)C=C1C#CC1=CN=C2C=CC=NN12

>  <Kd (nM)>


>  <Assay (Kd)>


>  <Ki (nM)>


>  <Assay (Ki)>


>  <IC50 (nM)>
0.9

>  <Assay (IC50)>
IC50 was assessed by the FRET-based Z'-Lyte assay

>  <EC50 (nM)>


>  <Assay (EC50)>


>  <Article DOI>
10.1016/j.bmcl.2015.07.006

>  <Molecular Weight>
532.57

>  <Exact Mass>
532.219844144

>  <XLogP3>
4.11

>  <Heavy Atom Count>
39

>  <Ring Count>
5

>  <Hydrogen Bond Acceptor Count>
6

>  <Hydrogen Bond Donor Count>
1

>  <Rotatable Bond Count>
4

>  <Topological Polar Surface Area>
65.77

>  <Molecular Formula>
C29H27F3N6O

>  <InChI>
InChI=1S/C29H27F3N6O/c1-20-5-6-22(16-21(20)8-10-25-18-33-27-4-3-11-34-38(25)27)28(39)35-24-9-7-23(26(17-24)29(30,31)32)19-37-14-12-36(2)13-15-37/h3-7,9,11,16-18H,12-15,19H2,1-2H3,(H,35,39)

>  <InChI Key>
PHXJVRSECIGDHY-UHFFFAOYSA-N

>  <BindingDB>
50322535

>  <PubChem>
24826799

>  <ChEMBL>
CHEMBL1171837

$$$$
Compound 559
Actelion Java MolfileCreator 2.0

  0  0  0  0  0  0              0 V3000
M  V30 BEGIN CTAB
M  V30 COUNTS 39 43 0 0 0
M  V30 BEGIN ATOM
M  V30 1 F 0.0 0.0 0.0 0
M  V30 2 C -1.053 -1.0648 0.0 0
M  V30 3 F -2.1415 -0.0118 0.0 0
M  V30 4 F 0.0118 -2.0942 0.0 0
M  V30 5 C -2.106 -2.1297 0.0 0
M  V30 6 C -1.7037 -3.5613 0.0 0
M  V30 7 C -3.5731 -1.751 0.0 0
M  V30 8 C -2.7567 -4.6261 0.0 0
M  V30 9 C -0.2602 -3.9162 0.0 0
M  V30 10 C -4.6261 -2.8159 0.0 0
M  V30 11 C -4.2239 -4.2475 0.0 0
M  V30 12 N 0.1419 -5.3479 0.0 0
M  V30 13 N -6.0933 -2.4373 0.0 0
M  V30 14 C -0.911 -6.4127 0.0 0
M  V30 15 C 1.5854 -5.7028 0.0 0
M  V30 16 C -6.5192 -0.982 0.0 0
M  V30 17 C -0.5087 -7.8443 0.0 0
M  V30 18 C 1.9877 -7.1344 0.0 0
M  V30 19 O -5.4898 0.1064 0.0 0
M  V30 20 C -7.9863 -0.6034 0.0 0
M  V30 21 N 0.9347 -8.1993 0.0 0
M  V30 22 C -9.0393 -1.6682 0.0 0
M  V30 23 C -8.4123 0.8518 0.0 0
M  V30 24 C 1.3369 -9.6309 0.0 0
M  V30 25 C -10.5065 -1.2896 0.0 0
M  V30 26 C -9.8794 1.2304 0.0 0
M  V30 27 C -11.5595 -2.3545 0.0 0
M  V30 28 C -10.9324 0.1656 0.0 0
M  V30 29 C -12.6125 -3.4193 0.0 0
M  V30 30 C -12.3995 0.5442 0.0 0
M  V30 31 C -13.6655 -4.4842 0.0 0
M  V30 32 N -13.4171 -5.9513 0.0 0
M  V30 33 C -15.1681 -4.2594 0.0 0
M  V30 34 N -12.1511 -6.7322 0.0 0
M  V30 35 C -14.754 -6.6493 0.0 0
M  V30 36 N -15.8426 -5.5963 0.0 0
M  V30 37 C -12.2221 -8.223 0.0 0
M  V30 38 C -14.825 -8.1401 0.0 0
M  V30 39 C -13.559 -8.921 0.0 0
M  V30 END ATOM
M  V30 BEGIN BOND
M  V30 1 1 1 2
M  V30 2 1 2 3
M  V30 3 1 2 4
M  V30 4 1 2 5
M  V30 5 2 5 6
M  V30 6 1 5 7
M  V30 7 1 6 8
M  V30 8 1 6 9
M  V30 9 2 7 10
M  V30 10 2 8 11
M  V30 11 1 9 12
M  V30 12 1 10 13
M  V30 13 1 12 14
M  V30 14 1 12 15
M  V30 15 1 13 16
M  V30 16 1 14 17
M  V30 17 1 15 18
M  V30 18 2 16 19
M  V30 19 1 16 20
M  V30 20 1 17 21
M  V30 21 2 20 22
M  V30 22 1 20 23
M  V30 23 1 21 24
M  V30 24 1 22 25
M  V30 25 2 23 26
M  V30 26 1 25 27
M  V30 27 2 25 28
M  V30 28 3 27 29
M  V30 29 1 28 30
M  V30 30 1 29 31
M  V30 31 1 31 32
M  V30 32 2 31 33
M  V30 33 1 32 34
M  V30 34 1 32 35
M  V30 35 1 33 36
M  V30 36 2 34 37
M  V30 37 1 35 38
M  V30 38 1 37 39
M  V30 39 1 10 11
M  V30 40 1 18 21
M  V30 41 1 26 28
M  V30 42 2 35 36
M  V30 43 2 38 39
M  V30 END BOND
M  V30 END CTAB
M  END
>  <Compound ID>
196

>  <Name>
Ponatinib

>  <Uniprot>
P51451

>  <Target>
BLK

>  <Smiles>
CC1=CC=C(C(=O)NC2=CC=C(CN3CCN(C)CC3)C(C(F)(F)F)=C2)C=C1C#CC1=CN=C2C=CC=NN12

>  <Kd (nM)>


>  <Assay (Kd)>


>  <Ki (nM)>


>  <Assay (Ki)>


>  <IC50 (nM)>


>  <Assay (IC50)>


>  <EC50 (nM)>


>  <Assay (EC50)>


>  <Article DOI>
10.1016/j.cell.2020.10.038

>  <Molecular Weight>
532.57

>  <Exact Mass>
532.219844144

>  <XLogP3>
4.11

>  <Heavy Atom Count>
39

>  <Ring Count>
5

>  <Hydrogen Bond Acceptor Count>
6

>  <Hydrogen Bond Donor Count>
1

>  <Rotatable Bond Count>
4

>  <Topological Polar Surface Area>
65.77

>  <Molecular Formula>
C29H27F3N6O

>  <InChI>
InChI=1S/C29H27F3N6O/c1-20-5-6-22(16-21(20)8-10-25-18-33-27-4-3-11-34-38(25)27)28(39)35-24-9-7-23(26(17-24)29(30,31)32)19-37-14-12-36(2)13-15-37/h3-7,9,11,16-18H,12-15,19H2,1-2H3,(H,35,39)

>  <InChI Key>
PHXJVRSECIGDHY-UHFFFAOYSA-N

>  <BindingDB>
50322535

>  <PubChem>
24826799

>  <ChEMBL>
CHEMBL1171837

$$$$
Compound 560
Actelion Java MolfileCreator 2.0

  0  0  0  0  0  0              0 V3000
M  V30 BEGIN CTAB
M  V30 COUNTS 39 43 0 0 0
M  V30 BEGIN ATOM
M  V30 1 F 0.0 0.0 0.0 0
M  V30 2 C -1.053 -1.0648 0.0 0
M  V30 3 F -2.1415 -0.0118 0.0 0
M  V30 4 F 0.0118 -2.0942 0.0 0
M  V30 5 C -2.106 -2.1297 0.0 0
M  V30 6 C -1.7037 -3.5613 0.0 0
M  V30 7 C -3.5731 -1.751 0.0 0
M  V30 8 C -2.7567 -4.6261 0.0 0
M  V30 9 C -0.2602 -3.9162 0.0 0
M  V30 10 C -4.6261 -2.8159 0.0 0
M  V30 11 C -4.2239 -4.2475 0.0 0
M  V30 12 N 0.1419 -5.3479 0.0 0
M  V30 13 N -6.0933 -2.4373 0.0 0
M  V30 14 C -0.911 -6.4127 0.0 0
M  V30 15 C 1.5854 -5.7028 0.0 0
M  V30 16 C -6.5192 -0.982 0.0 0
M  V30 17 C -0.5087 -7.8443 0.0 0
M  V30 18 C 1.9877 -7.1344 0.0 0
M  V30 19 O -5.4898 0.1064 0.0 0
M  V30 20 C -7.9863 -0.6034 0.0 0
M  V30 21 N 0.9347 -8.1993 0.0 0
M  V30 22 C -9.0393 -1.6682 0.0 0
M  V30 23 C -8.4123 0.8518 0.0 0
M  V30 24 C 1.3369 -9.6309 0.0 0
M  V30 25 C -10.5065 -1.2896 0.0 0
M  V30 26 C -9.8794 1.2304 0.0 0
M  V30 27 C -11.5595 -2.3545 0.0 0
M  V30 28 C -10.9324 0.1656 0.0 0
M  V30 29 C -12.6125 -3.4193 0.0 0
M  V30 30 C -12.3995 0.5442 0.0 0
M  V30 31 C -13.6655 -4.4842 0.0 0
M  V30 32 N -13.4171 -5.9513 0.0 0
M  V30 33 C -15.1681 -4.2594 0.0 0
M  V30 34 N -12.1511 -6.7322 0.0 0
M  V30 35 C -14.754 -6.6493 0.0 0
M  V30 36 N -15.8426 -5.5963 0.0 0
M  V30 37 C -12.2221 -8.223 0.0 0
M  V30 38 C -14.825 -8.1401 0.0 0
M  V30 39 C -13.559 -8.921 0.0 0
M  V30 END ATOM
M  V30 BEGIN BOND
M  V30 1 1 1 2
M  V30 2 1 2 3
M  V30 3 1 2 4
M  V30 4 1 2 5
M  V30 5 2 5 6
M  V30 6 1 5 7
M  V30 7 1 6 8
M  V30 8 1 6 9
M  V30 9 2 7 10
M  V30 10 2 8 11
M  V30 11 1 9 12
M  V30 12 1 10 13
M  V30 13 1 12 14
M  V30 14 1 12 15
M  V30 15 1 13 16
M  V30 16 1 14 17
M  V30 17 1 15 18
M  V30 18 2 16 19
M  V30 19 1 16 20
M  V30 20 1 17 21
M  V30 21 2 20 22
M  V30 22 1 20 23
M  V30 23 1 21 24
M  V30 24 1 22 25
M  V30 25 2 23 26
M  V30 26 1 25 27
M  V30 27 2 25 28
M  V30 28 3 27 29
M  V30 29 1 28 30
M  V30 30 1 29 31
M  V30 31 1 31 32
M  V30 32 2 31 33
M  V30 33 1 32 34
M  V30 34 1 32 35
M  V30 35 1 33 36
M  V30 36 2 34 37
M  V30 37 1 35 38
M  V30 38 1 37 39
M  V30 39 1 10 11
M  V30 40 1 18 21
M  V30 41 1 26 28
M  V30 42 2 35 36
M  V30 43 2 38 39
M  V30 END BOND
M  V30 END CTAB
M  END
>  <Compound ID>
196

>  <Name>
Ponatinib

>  <Uniprot>
O94921

>  <Target>
CDK14

>  <Smiles>
CC1=CC=C(C(=O)NC2=CC=C(CN3CCN(C)CC3)C(C(F)(F)F)=C2)C=C1C#CC1=CN=C2C=CC=NN12

>  <Kd (nM)>


>  <Assay (Kd)>


>  <Ki (nM)>


>  <Assay (Ki)>


>  <IC50 (nM)>


>  <Assay (IC50)>


>  <EC50 (nM)>


>  <Assay (EC50)>


>  <Article DOI>
10.1016/j.cell.2020.10.038

>  <Molecular Weight>
532.57

>  <Exact Mass>
532.219844144

>  <XLogP3>
4.11

>  <Heavy Atom Count>
39

>  <Ring Count>
5

>  <Hydrogen Bond Acceptor Count>
6

>  <Hydrogen Bond Donor Count>
1

>  <Rotatable Bond Count>
4

>  <Topological Polar Surface Area>
65.77

>  <Molecular Formula>
C29H27F3N6O

>  <InChI>
InChI=1S/C29H27F3N6O/c1-20-5-6-22(16-21(20)8-10-25-18-33-27-4-3-11-34-38(25)27)28(39)35-24-9-7-23(26(17-24)29(30,31)32)19-37-14-12-36(2)13-15-37/h3-7,9,11,16-18H,12-15,19H2,1-2H3,(H,35,39)

>  <InChI Key>
PHXJVRSECIGDHY-UHFFFAOYSA-N

>  <BindingDB>
50322535

>  <PubChem>
24826799

>  <ChEMBL>
CHEMBL1171837

$$$$
Compound 561
Actelion Java MolfileCreator 2.0

  0  0  0  0  0  0              0 V3000
M  V30 BEGIN CTAB
M  V30 COUNTS 39 43 0 0 0
M  V30 BEGIN ATOM
M  V30 1 F 0.0 0.0 0.0 0
M  V30 2 C -1.053 -1.0648 0.0 0
M  V30 3 F -2.1415 -0.0118 0.0 0
M  V30 4 F 0.0118 -2.0942 0.0 0
M  V30 5 C -2.106 -2.1297 0.0 0
M  V30 6 C -1.7037 -3.5613 0.0 0
M  V30 7 C -3.5731 -1.751 0.0 0
M  V30 8 C -2.7567 -4.6261 0.0 0
M  V30 9 C -0.2602 -3.9162 0.0 0
M  V30 10 C -4.6261 -2.8159 0.0 0
M  V30 11 C -4.2239 -4.2475 0.0 0
M  V30 12 N 0.1419 -5.3479 0.0 0
M  V30 13 N -6.0933 -2.4373 0.0 0
M  V30 14 C -0.911 -6.4127 0.0 0
M  V30 15 C 1.5854 -5.7028 0.0 0
M  V30 16 C -6.5192 -0.982 0.0 0
M  V30 17 C -0.5087 -7.8443 0.0 0
M  V30 18 C 1.9877 -7.1344 0.0 0
M  V30 19 O -5.4898 0.1064 0.0 0
M  V30 20 C -7.9863 -0.6034 0.0 0
M  V30 21 N 0.9347 -8.1993 0.0 0
M  V30 22 C -9.0393 -1.6682 0.0 0
M  V30 23 C -8.4123 0.8518 0.0 0
M  V30 24 C 1.3369 -9.6309 0.0 0
M  V30 25 C -10.5065 -1.2896 0.0 0
M  V30 26 C -9.8794 1.2304 0.0 0
M  V30 27 C -11.5595 -2.3545 0.0 0
M  V30 28 C -10.9324 0.1656 0.0 0
M  V30 29 C -12.6125 -3.4193 0.0 0
M  V30 30 C -12.3995 0.5442 0.0 0
M  V30 31 C -13.6655 -4.4842 0.0 0
M  V30 32 N -13.4171 -5.9513 0.0 0
M  V30 33 C -15.1681 -4.2594 0.0 0
M  V30 34 N -12.1511 -6.7322 0.0 0
M  V30 35 C -14.754 -6.6493 0.0 0
M  V30 36 N -15.8426 -5.5963 0.0 0
M  V30 37 C -12.2221 -8.223 0.0 0
M  V30 38 C -14.825 -8.1401 0.0 0
M  V30 39 C -13.559 -8.921 0.0 0
M  V30 END ATOM
M  V30 BEGIN BOND
M  V30 1 1 1 2
M  V30 2 1 2 3
M  V30 3 1 2 4
M  V30 4 1 2 5
M  V30 5 2 5 6
M  V30 6 1 5 7
M  V30 7 1 6 8
M  V30 8 1 6 9
M  V30 9 2 7 10
M  V30 10 2 8 11
M  V30 11 1 9 12
M  V30 12 1 10 13
M  V30 13 1 12 14
M  V30 14 1 12 15
M  V30 15 1 13 16
M  V30 16 1 14 17
M  V30 17 1 15 18
M  V30 18 2 16 19
M  V30 19 1 16 20
M  V30 20 1 17 21
M  V30 21 2 20 22
M  V30 22 1 20 23
M  V30 23 1 21 24
M  V30 24 1 22 25
M  V30 25 2 23 26
M  V30 26 1 25 27
M  V30 27 2 25 28
M  V30 28 3 27 29
M  V30 29 1 28 30
M  V30 30 1 29 31
M  V30 31 1 31 32
M  V30 32 2 31 33
M  V30 33 1 32 34
M  V30 34 1 32 35
M  V30 35 1 33 36
M  V30 36 2 34 37
M  V30 37 1 35 38
M  V30 38 1 37 39
M  V30 39 1 10 11
M  V30 40 1 18 21
M  V30 41 1 26 28
M  V30 42 2 35 36
M  V30 43 2 38 39
M  V30 END BOND
M  V30 END CTAB
M  END
>  <Compound ID>
196

>  <Name>
Ponatinib

>  <Uniprot>
Q00537

>  <Target>
CDK17

>  <Smiles>
CC1=CC=C(C(=O)NC2=CC=C(CN3CCN(C)CC3)C(C(F)(F)F)=C2)C=C1C#CC1=CN=C2C=CC=NN12

>  <Kd (nM)>
335

>  <Assay (Kd)>
Kd apparent of CDK17

>  <Ki (nM)>


>  <Assay (Ki)>


>  <IC50 (nM)>


>  <Assay (IC50)>


>  <EC50 (nM)>


>  <Assay (EC50)>


>  <Article DOI>
10.1126/science.aan4368

>  <Molecular Weight>
532.57

>  <Exact Mass>
532.219844144

>  <XLogP3>
4.11

>  <Heavy Atom Count>
39

>  <Ring Count>
5

>  <Hydrogen Bond Acceptor Count>
6

>  <Hydrogen Bond Donor Count>
1

>  <Rotatable Bond Count>
4

>  <Topological Polar Surface Area>
65.77

>  <Molecular Formula>
C29H27F3N6O

>  <InChI>
InChI=1S/C29H27F3N6O/c1-20-5-6-22(16-21(20)8-10-25-18-33-27-4-3-11-34-38(25)27)28(39)35-24-9-7-23(26(17-24)29(30,31)32)19-37-14-12-36(2)13-15-37/h3-7,9,11,16-18H,12-15,19H2,1-2H3,(H,35,39)

>  <InChI Key>
PHXJVRSECIGDHY-UHFFFAOYSA-N

>  <BindingDB>
50322535

>  <PubChem>
24826799

>  <ChEMBL>
CHEMBL1171837

$$$$
Compound 562
Actelion Java MolfileCreator 2.0

  0  0  0  0  0  0              0 V3000
M  V30 BEGIN CTAB
M  V30 COUNTS 39 43 0 0 0
M  V30 BEGIN ATOM
M  V30 1 F 0.0 0.0 0.0 0
M  V30 2 C -1.053 -1.0648 0.0 0
M  V30 3 F -2.1415 -0.0118 0.0 0
M  V30 4 F 0.0118 -2.0942 0.0 0
M  V30 5 C -2.106 -2.1297 0.0 0
M  V30 6 C -1.7037 -3.5613 0.0 0
M  V30 7 C -3.5731 -1.751 0.0 0
M  V30 8 C -2.7567 -4.6261 0.0 0
M  V30 9 C -0.2602 -3.9162 0.0 0
M  V30 10 C -4.6261 -2.8159 0.0 0
M  V30 11 C -4.2239 -4.2475 0.0 0
M  V30 12 N 0.1419 -5.3479 0.0 0
M  V30 13 N -6.0933 -2.4373 0.0 0
M  V30 14 C -0.911 -6.4127 0.0 0
M  V30 15 C 1.5854 -5.7028 0.0 0
M  V30 16 C -6.5192 -0.982 0.0 0
M  V30 17 C -0.5087 -7.8443 0.0 0
M  V30 18 C 1.9877 -7.1344 0.0 0
M  V30 19 O -5.4898 0.1064 0.0 0
M  V30 20 C -7.9863 -0.6034 0.0 0
M  V30 21 N 0.9347 -8.1993 0.0 0
M  V30 22 C -9.0393 -1.6682 0.0 0
M  V30 23 C -8.4123 0.8518 0.0 0
M  V30 24 C 1.3369 -9.6309 0.0 0
M  V30 25 C -10.5065 -1.2896 0.0 0
M  V30 26 C -9.8794 1.2304 0.0 0
M  V30 27 C -11.5595 -2.3545 0.0 0
M  V30 28 C -10.9324 0.1656 0.0 0
M  V30 29 C -12.6125 -3.4193 0.0 0
M  V30 30 C -12.3995 0.5442 0.0 0
M  V30 31 C -13.6655 -4.4842 0.0 0
M  V30 32 N -13.4171 -5.9513 0.0 0
M  V30 33 C -15.1681 -4.2594 0.0 0
M  V30 34 N -12.1511 -6.7322 0.0 0
M  V30 35 C -14.754 -6.6493 0.0 0
M  V30 36 N -15.8426 -5.5963 0.0 0
M  V30 37 C -12.2221 -8.223 0.0 0
M  V30 38 C -14.825 -8.1401 0.0 0
M  V30 39 C -13.559 -8.921 0.0 0
M  V30 END ATOM
M  V30 BEGIN BOND
M  V30 1 1 1 2
M  V30 2 1 2 3
M  V30 3 1 2 4
M  V30 4 1 2 5
M  V30 5 2 5 6
M  V30 6 1 5 7
M  V30 7 1 6 8
M  V30 8 1 6 9
M  V30 9 2 7 10
M  V30 10 2 8 11
M  V30 11 1 9 12
M  V30 12 1 10 13
M  V30 13 1 12 14
M  V30 14 1 12 15
M  V30 15 1 13 16
M  V30 16 1 14 17
M  V30 17 1 15 18
M  V30 18 2 16 19
M  V30 19 1 16 20
M  V30 20 1 17 21
M  V30 21 2 20 22
M  V30 22 1 20 23
M  V30 23 1 21 24
M  V30 24 1 22 25
M  V30 25 2 23 26
M  V30 26 1 25 27
M  V30 27 2 25 28
M  V30 28 3 27 29
M  V30 29 1 28 30
M  V30 30 1 29 31
M  V30 31 1 31 32
M  V30 32 2 31 33
M  V30 33 1 32 34
M  V30 34 1 32 35
M  V30 35 1 33 36
M  V30 36 2 34 37
M  V30 37 1 35 38
M  V30 38 1 37 39
M  V30 39 1 10 11
M  V30 40 1 18 21
M  V30 41 1 26 28
M  V30 42 2 35 36
M  V30 43 2 38 39
M  V30 END BOND
M  V30 END CTAB
M  END
>  <Compound ID>
196

>  <Name>
Ponatinib

>  <Uniprot>
P11802

>  <Target>
CDK4

>  <Smiles>
CC1=CC=C(C(=O)NC2=CC=C(CN3CCN(C)CC3)C(C(F)(F)F)=C2)C=C1C#CC1=CN=C2C=CC=NN12

>  <Kd (nM)>


>  <Assay (Kd)>


>  <Ki (nM)>


>  <Assay (Ki)>


>  <IC50 (nM)>


>  <Assay (IC50)>


>  <EC50 (nM)>


>  <Assay (EC50)>


>  <Article DOI>
10.1016/j.cell.2020.10.038

>  <Molecular Weight>
532.57

>  <Exact Mass>
532.219844144

>  <XLogP3>
4.11

>  <Heavy Atom Count>
39

>  <Ring Count>
5

>  <Hydrogen Bond Acceptor Count>
6

>  <Hydrogen Bond Donor Count>
1

>  <Rotatable Bond Count>
4

>  <Topological Polar Surface Area>
65.77

>  <Molecular Formula>
C29H27F3N6O

>  <InChI>
InChI=1S/C29H27F3N6O/c1-20-5-6-22(16-21(20)8-10-25-18-33-27-4-3-11-34-38(25)27)28(39)35-24-9-7-23(26(17-24)29(30,31)32)19-37-14-12-36(2)13-15-37/h3-7,9,11,16-18H,12-15,19H2,1-2H3,(H,35,39)

>  <InChI Key>
PHXJVRSECIGDHY-UHFFFAOYSA-N

>  <BindingDB>
50322535

>  <PubChem>
24826799

>  <ChEMBL>
CHEMBL1171837

$$$$
Compound 563
Actelion Java MolfileCreator 2.0

  0  0  0  0  0  0              0 V3000
M  V30 BEGIN CTAB
M  V30 COUNTS 39 43 0 0 0
M  V30 BEGIN ATOM
M  V30 1 F 0.0 0.0 0.0 0
M  V30 2 C -1.053 -1.0648 0.0 0
M  V30 3 F -2.1415 -0.0118 0.0 0
M  V30 4 F 0.0118 -2.0942 0.0 0
M  V30 5 C -2.106 -2.1297 0.0 0
M  V30 6 C -1.7037 -3.5613 0.0 0
M  V30 7 C -3.5731 -1.751 0.0 0
M  V30 8 C -2.7567 -4.6261 0.0 0
M  V30 9 C -0.2602 -3.9162 0.0 0
M  V30 10 C -4.6261 -2.8159 0.0 0
M  V30 11 C -4.2239 -4.2475 0.0 0
M  V30 12 N 0.1419 -5.3479 0.0 0
M  V30 13 N -6.0933 -2.4373 0.0 0
M  V30 14 C -0.911 -6.4127 0.0 0
M  V30 15 C 1.5854 -5.7028 0.0 0
M  V30 16 C -6.5192 -0.982 0.0 0
M  V30 17 C -0.5087 -7.8443 0.0 0
M  V30 18 C 1.9877 -7.1344 0.0 0
M  V30 19 O -5.4898 0.1064 0.0 0
M  V30 20 C -7.9863 -0.6034 0.0 0
M  V30 21 N 0.9347 -8.1993 0.0 0
M  V30 22 C -9.0393 -1.6682 0.0 0
M  V30 23 C -8.4123 0.8518 0.0 0
M  V30 24 C 1.3369 -9.6309 0.0 0
M  V30 25 C -10.5065 -1.2896 0.0 0
M  V30 26 C -9.8794 1.2304 0.0 0
M  V30 27 C -11.5595 -2.3545 0.0 0
M  V30 28 C -10.9324 0.1656 0.0 0
M  V30 29 C -12.6125 -3.4193 0.0 0
M  V30 30 C -12.3995 0.5442 0.0 0
M  V30 31 C -13.6655 -4.4842 0.0 0
M  V30 32 N -13.4171 -5.9513 0.0 0
M  V30 33 C -15.1681 -4.2594 0.0 0
M  V30 34 N -12.1511 -6.7322 0.0 0
M  V30 35 C -14.754 -6.6493 0.0 0
M  V30 36 N -15.8426 -5.5963 0.0 0
M  V30 37 C -12.2221 -8.223 0.0 0
M  V30 38 C -14.825 -8.1401 0.0 0
M  V30 39 C -13.559 -8.921 0.0 0
M  V30 END ATOM
M  V30 BEGIN BOND
M  V30 1 1 1 2
M  V30 2 1 2 3
M  V30 3 1 2 4
M  V30 4 1 2 5
M  V30 5 2 5 6
M  V30 6 1 5 7
M  V30 7 1 6 8
M  V30 8 1 6 9
M  V30 9 2 7 10
M  V30 10 2 8 11
M  V30 11 1 9 12
M  V30 12 1 10 13
M  V30 13 1 12 14
M  V30 14 1 12 15
M  V30 15 1 13 16
M  V30 16 1 14 17
M  V30 17 1 15 18
M  V30 18 2 16 19
M  V30 19 1 16 20
M  V30 20 1 17 21
M  V30 21 2 20 22
M  V30 22 1 20 23
M  V30 23 1 21 24
M  V30 24 1 22 25
M  V30 25 2 23 26
M  V30 26 1 25 27
M  V30 27 2 25 28
M  V30 28 3 27 29
M  V30 29 1 28 30
M  V30 30 1 29 31
M  V30 31 1 31 32
M  V30 32 2 31 33
M  V30 33 1 32 34
M  V30 34 1 32 35
M  V30 35 1 33 36
M  V30 36 2 34 37
M  V30 37 1 35 38
M  V30 38 1 37 39
M  V30 39 1 10 11
M  V30 40 1 18 21
M  V30 41 1 26 28
M  V30 42 2 35 36
M  V30 43 2 38 39
M  V30 END BOND
M  V30 END CTAB
M  END
>  <Compound ID>
196

>  <Name>
Ponatinib

>  <Uniprot>
Q00535

>  <Target>
CDK5

>  <Smiles>
CC1=CC=C(C(=O)NC2=CC=C(CN3CCN(C)CC3)C(C(F)(F)F)=C2)C=C1C#CC1=CN=C2C=CC=NN12

>  <Kd (nM)>


>  <Assay (Kd)>


>  <Ki (nM)>


>  <Assay (Ki)>


>  <IC50 (nM)>


>  <Assay (IC50)>


>  <EC50 (nM)>


>  <Assay (EC50)>


>  <Article DOI>
10.1016/j.cell.2020.10.038

>  <Molecular Weight>
532.57

>  <Exact Mass>
532.219844144

>  <XLogP3>
4.11

>  <Heavy Atom Count>
39

>  <Ring Count>
5

>  <Hydrogen Bond Acceptor Count>
6

>  <Hydrogen Bond Donor Count>
1

>  <Rotatable Bond Count>
4

>  <Topological Polar Surface Area>
65.77

>  <Molecular Formula>
C29H27F3N6O

>  <InChI>
InChI=1S/C29H27F3N6O/c1-20-5-6-22(16-21(20)8-10-25-18-33-27-4-3-11-34-38(25)27)28(39)35-24-9-7-23(26(17-24)29(30,31)32)19-37-14-12-36(2)13-15-37/h3-7,9,11,16-18H,12-15,19H2,1-2H3,(H,35,39)

>  <InChI Key>
PHXJVRSECIGDHY-UHFFFAOYSA-N

>  <BindingDB>
50322535

>  <PubChem>
24826799

>  <ChEMBL>
CHEMBL1171837

$$$$
Compound 564
Actelion Java MolfileCreator 2.0

  0  0  0  0  0  0              0 V3000
M  V30 BEGIN CTAB
M  V30 COUNTS 39 43 0 0 0
M  V30 BEGIN ATOM
M  V30 1 F 0.0 0.0 0.0 0
M  V30 2 C -1.053 -1.0648 0.0 0
M  V30 3 F -2.1415 -0.0118 0.0 0
M  V30 4 F 0.0118 -2.0942 0.0 0
M  V30 5 C -2.106 -2.1297 0.0 0
M  V30 6 C -1.7037 -3.5613 0.0 0
M  V30 7 C -3.5731 -1.751 0.0 0
M  V30 8 C -2.7567 -4.6261 0.0 0
M  V30 9 C -0.2602 -3.9162 0.0 0
M  V30 10 C -4.6261 -2.8159 0.0 0
M  V30 11 C -4.2239 -4.2475 0.0 0
M  V30 12 N 0.1419 -5.3479 0.0 0
M  V30 13 N -6.0933 -2.4373 0.0 0
M  V30 14 C -0.911 -6.4127 0.0 0
M  V30 15 C 1.5854 -5.7028 0.0 0
M  V30 16 C -6.5192 -0.982 0.0 0
M  V30 17 C -0.5087 -7.8443 0.0 0
M  V30 18 C 1.9877 -7.1344 0.0 0
M  V30 19 O -5.4898 0.1064 0.0 0
M  V30 20 C -7.9863 -0.6034 0.0 0
M  V30 21 N 0.9347 -8.1993 0.0 0
M  V30 22 C -9.0393 -1.6682 0.0 0
M  V30 23 C -8.4123 0.8518 0.0 0
M  V30 24 C 1.3369 -9.6309 0.0 0
M  V30 25 C -10.5065 -1.2896 0.0 0
M  V30 26 C -9.8794 1.2304 0.0 0
M  V30 27 C -11.5595 -2.3545 0.0 0
M  V30 28 C -10.9324 0.1656 0.0 0
M  V30 29 C -12.6125 -3.4193 0.0 0
M  V30 30 C -12.3995 0.5442 0.0 0
M  V30 31 C -13.6655 -4.4842 0.0 0
M  V30 32 N -13.4171 -5.9513 0.0 0
M  V30 33 C -15.1681 -4.2594 0.0 0
M  V30 34 N -12.1511 -6.7322 0.0 0
M  V30 35 C -14.754 -6.6493 0.0 0
M  V30 36 N -15.8426 -5.5963 0.0 0
M  V30 37 C -12.2221 -8.223 0.0 0
M  V30 38 C -14.825 -8.1401 0.0 0
M  V30 39 C -13.559 -8.921 0.0 0
M  V30 END ATOM
M  V30 BEGIN BOND
M  V30 1 1 1 2
M  V30 2 1 2 3
M  V30 3 1 2 4
M  V30 4 1 2 5
M  V30 5 2 5 6
M  V30 6 1 5 7
M  V30 7 1 6 8
M  V30 8 1 6 9
M  V30 9 2 7 10
M  V30 10 2 8 11
M  V30 11 1 9 12
M  V30 12 1 10 13
M  V30 13 1 12 14
M  V30 14 1 12 15
M  V30 15 1 13 16
M  V30 16 1 14 17
M  V30 17 1 15 18
M  V30 18 2 16 19
M  V30 19 1 16 20
M  V30 20 1 17 21
M  V30 21 2 20 22
M  V30 22 1 20 23
M  V30 23 1 21 24
M  V30 24 1 22 25
M  V30 25 2 23 26
M  V30 26 1 25 27
M  V30 27 2 25 28
M  V30 28 3 27 29
M  V30 29 1 28 30
M  V30 30 1 29 31
M  V30 31 1 31 32
M  V30 32 2 31 33
M  V30 33 1 32 34
M  V30 34 1 32 35
M  V30 35 1 33 36
M  V30 36 2 34 37
M  V30 37 1 35 38
M  V30 38 1 37 39
M  V30 39 1 10 11
M  V30 40 1 18 21
M  V30 41 1 26 28
M  V30 42 2 35 36
M  V30 43 2 38 39
M  V30 END BOND
M  V30 END CTAB
M  END
>  <Compound ID>
196

>  <Name>
Ponatinib

>  <Uniprot>
Q00534

>  <Target>
CDK6

>  <Smiles>
CC1=CC=C(C(=O)NC2=CC=C(CN3CCN(C)CC3)C(C(F)(F)F)=C2)C=C1C#CC1=CN=C2C=CC=NN12

>  <Kd (nM)>


>  <Assay (Kd)>


>  <Ki (nM)>


>  <Assay (Ki)>


>  <IC50 (nM)>


>  <Assay (IC50)>


>  <EC50 (nM)>


>  <Assay (EC50)>


>  <Article DOI>
10.1016/j.cell.2020.10.038

>  <Molecular Weight>
532.57

>  <Exact Mass>
532.219844144

>  <XLogP3>
4.11

>  <Heavy Atom Count>
39

>  <Ring Count>
5

>  <Hydrogen Bond Acceptor Count>
6

>  <Hydrogen Bond Donor Count>
1

>  <Rotatable Bond Count>
4

>  <Topological Polar Surface Area>
65.77

>  <Molecular Formula>
C29H27F3N6O

>  <InChI>
InChI=1S/C29H27F3N6O/c1-20-5-6-22(16-21(20)8-10-25-18-33-27-4-3-11-34-38(25)27)28(39)35-24-9-7-23(26(17-24)29(30,31)32)19-37-14-12-36(2)13-15-37/h3-7,9,11,16-18H,12-15,19H2,1-2H3,(H,35,39)

>  <InChI Key>
PHXJVRSECIGDHY-UHFFFAOYSA-N

>  <BindingDB>
50322535

>  <PubChem>
24826799

>  <ChEMBL>
CHEMBL1171837

$$$$
Compound 565
Actelion Java MolfileCreator 2.0

  0  0  0  0  0  0              0 V3000
M  V30 BEGIN CTAB
M  V30 COUNTS 39 43 0 0 0
M  V30 BEGIN ATOM
M  V30 1 F 0.0 0.0 0.0 0
M  V30 2 C -1.053 -1.0648 0.0 0
M  V30 3 F -2.1415 -0.0118 0.0 0
M  V30 4 F 0.0118 -2.0942 0.0 0
M  V30 5 C -2.106 -2.1297 0.0 0
M  V30 6 C -1.7037 -3.5613 0.0 0
M  V30 7 C -3.5731 -1.751 0.0 0
M  V30 8 C -2.7567 -4.6261 0.0 0
M  V30 9 C -0.2602 -3.9162 0.0 0
M  V30 10 C -4.6261 -2.8159 0.0 0
M  V30 11 C -4.2239 -4.2475 0.0 0
M  V30 12 N 0.1419 -5.3479 0.0 0
M  V30 13 N -6.0933 -2.4373 0.0 0
M  V30 14 C -0.911 -6.4127 0.0 0
M  V30 15 C 1.5854 -5.7028 0.0 0
M  V30 16 C -6.5192 -0.982 0.0 0
M  V30 17 C -0.5087 -7.8443 0.0 0
M  V30 18 C 1.9877 -7.1344 0.0 0
M  V30 19 O -5.4898 0.1064 0.0 0
M  V30 20 C -7.9863 -0.6034 0.0 0
M  V30 21 N 0.9347 -8.1993 0.0 0
M  V30 22 C -9.0393 -1.6682 0.0 0
M  V30 23 C -8.4123 0.8518 0.0 0
M  V30 24 C 1.3369 -9.6309 0.0 0
M  V30 25 C -10.5065 -1.2896 0.0 0
M  V30 26 C -9.8794 1.2304 0.0 0
M  V30 27 C -11.5595 -2.3545 0.0 0
M  V30 28 C -10.9324 0.1656 0.0 0
M  V30 29 C -12.6125 -3.4193 0.0 0
M  V30 30 C -12.3995 0.5442 0.0 0
M  V30 31 C -13.6655 -4.4842 0.0 0
M  V30 32 N -13.4171 -5.9513 0.0 0
M  V30 33 C -15.1681 -4.2594 0.0 0
M  V30 34 N -12.1511 -6.7322 0.0 0
M  V30 35 C -14.754 -6.6493 0.0 0
M  V30 36 N -15.8426 -5.5963 0.0 0
M  V30 37 C -12.2221 -8.223 0.0 0
M  V30 38 C -14.825 -8.1401 0.0 0
M  V30 39 C -13.559 -8.921 0.0 0
M  V30 END ATOM
M  V30 BEGIN BOND
M  V30 1 1 1 2
M  V30 2 1 2 3
M  V30 3 1 2 4
M  V30 4 1 2 5
M  V30 5 2 5 6
M  V30 6 1 5 7
M  V30 7 1 6 8
M  V30 8 1 6 9
M  V30 9 2 7 10
M  V30 10 2 8 11
M  V30 11 1 9 12
M  V30 12 1 10 13
M  V30 13 1 12 14
M  V30 14 1 12 15
M  V30 15 1 13 16
M  V30 16 1 14 17
M  V30 17 1 15 18
M  V30 18 2 16 19
M  V30 19 1 16 20
M  V30 20 1 17 21
M  V30 21 2 20 22
M  V30 22 1 20 23
M  V30 23 1 21 24
M  V30 24 1 22 25
M  V30 25 2 23 26
M  V30 26 1 25 27
M  V30 27 2 25 28
M  V30 28 3 27 29
M  V30 29 1 28 30
M  V30 30 1 29 31
M  V30 31 1 31 32
M  V30 32 2 31 33
M  V30 33 1 32 34
M  V30 34 1 32 35
M  V30 35 1 33 36
M  V30 36 2 34 37
M  V30 37 1 35 38
M  V30 38 1 37 39
M  V30 39 1 10 11
M  V30 40 1 18 21
M  V30 41 1 26 28
M  V30 42 2 35 36
M  V30 43 2 38 39
M  V30 END BOND
M  V30 END CTAB
M  END
>  <Compound ID>
196

>  <Name>
Ponatinib

>  <Uniprot>
Q8NI60

>  <Target>
COQ8A

>  <Smiles>
CC1=CC=C(C(=O)NC2=CC=C(CN3CCN(C)CC3)C(C(F)(F)F)=C2)C=C1C#CC1=CN=C2C=CC=NN12

>  <Kd (nM)>


>  <Assay (Kd)>


>  <Ki (nM)>


>  <Assay (Ki)>


>  <IC50 (nM)>


>  <Assay (IC50)>


>  <EC50 (nM)>


>  <Assay (EC50)>


>  <Article DOI>
10.1016/j.cell.2020.10.038

>  <Molecular Weight>
532.57

>  <Exact Mass>
532.219844144

>  <XLogP3>
4.11

>  <Heavy Atom Count>
39

>  <Ring Count>
5

>  <Hydrogen Bond Acceptor Count>
6

>  <Hydrogen Bond Donor Count>
1

>  <Rotatable Bond Count>
4

>  <Topological Polar Surface Area>
65.77

>  <Molecular Formula>
C29H27F3N6O

>  <InChI>
InChI=1S/C29H27F3N6O/c1-20-5-6-22(16-21(20)8-10-25-18-33-27-4-3-11-34-38(25)27)28(39)35-24-9-7-23(26(17-24)29(30,31)32)19-37-14-12-36(2)13-15-37/h3-7,9,11,16-18H,12-15,19H2,1-2H3,(H,35,39)

>  <InChI Key>
PHXJVRSECIGDHY-UHFFFAOYSA-N

>  <BindingDB>
50322535

>  <PubChem>
24826799

>  <ChEMBL>
CHEMBL1171837

$$$$
Compound 566
Actelion Java MolfileCreator 2.0

  0  0  0  0  0  0              0 V3000
M  V30 BEGIN CTAB
M  V30 COUNTS 39 43 0 0 0
M  V30 BEGIN ATOM
M  V30 1 F 0.0 0.0 0.0 0
M  V30 2 C -1.053 -1.0648 0.0 0
M  V30 3 F -2.1415 -0.0118 0.0 0
M  V30 4 F 0.0118 -2.0942 0.0 0
M  V30 5 C -2.106 -2.1297 0.0 0
M  V30 6 C -1.7037 -3.5613 0.0 0
M  V30 7 C -3.5731 -1.751 0.0 0
M  V30 8 C -2.7567 -4.6261 0.0 0
M  V30 9 C -0.2602 -3.9162 0.0 0
M  V30 10 C -4.6261 -2.8159 0.0 0
M  V30 11 C -4.2239 -4.2475 0.0 0
M  V30 12 N 0.1419 -5.3479 0.0 0
M  V30 13 N -6.0933 -2.4373 0.0 0
M  V30 14 C -0.911 -6.4127 0.0 0
M  V30 15 C 1.5854 -5.7028 0.0 0
M  V30 16 C -6.5192 -0.982 0.0 0
M  V30 17 C -0.5087 -7.8443 0.0 0
M  V30 18 C 1.9877 -7.1344 0.0 0
M  V30 19 O -5.4898 0.1064 0.0 0
M  V30 20 C -7.9863 -0.6034 0.0 0
M  V30 21 N 0.9347 -8.1993 0.0 0
M  V30 22 C -9.0393 -1.6682 0.0 0
M  V30 23 C -8.4123 0.8518 0.0 0
M  V30 24 C 1.3369 -9.6309 0.0 0
M  V30 25 C -10.5065 -1.2896 0.0 0
M  V30 26 C -9.8794 1.2304 0.0 0
M  V30 27 C -11.5595 -2.3545 0.0 0
M  V30 28 C -10.9324 0.1656 0.0 0
M  V30 29 C -12.6125 -3.4193 0.0 0
M  V30 30 C -12.3995 0.5442 0.0 0
M  V30 31 C -13.6655 -4.4842 0.0 0
M  V30 32 N -13.4171 -5.9513 0.0 0
M  V30 33 C -15.1681 -4.2594 0.0 0
M  V30 34 N -12.1511 -6.7322 0.0 0
M  V30 35 C -14.754 -6.6493 0.0 0
M  V30 36 N -15.8426 -5.5963 0.0 0
M  V30 37 C -12.2221 -8.223 0.0 0
M  V30 38 C -14.825 -8.1401 0.0 0
M  V30 39 C -13.559 -8.921 0.0 0
M  V30 END ATOM
M  V30 BEGIN BOND
M  V30 1 1 1 2
M  V30 2 1 2 3
M  V30 3 1 2 4
M  V30 4 1 2 5
M  V30 5 2 5 6
M  V30 6 1 5 7
M  V30 7 1 6 8
M  V30 8 1 6 9
M  V30 9 2 7 10
M  V30 10 2 8 11
M  V30 11 1 9 12
M  V30 12 1 10 13
M  V30 13 1 12 14
M  V30 14 1 12 15
M  V30 15 1 13 16
M  V30 16 1 14 17
M  V30 17 1 15 18
M  V30 18 2 16 19
M  V30 19 1 16 20
M  V30 20 1 17 21
M  V30 21 2 20 22
M  V30 22 1 20 23
M  V30 23 1 21 24
M  V30 24 1 22 25
M  V30 25 2 23 26
M  V30 26 1 25 27
M  V30 27 2 25 28
M  V30 28 3 27 29
M  V30 29 1 28 30
M  V30 30 1 29 31
M  V30 31 1 31 32
M  V30 32 2 31 33
M  V30 33 1 32 34
M  V30 34 1 32 35
M  V30 35 1 33 36
M  V30 36 2 34 37
M  V30 37 1 35 38
M  V30 38 1 37 39
M  V30 39 1 10 11
M  V30 40 1 18 21
M  V30 41 1 26 28
M  V30 42 2 35 36
M  V30 43 2 38 39
M  V30 END BOND
M  V30 END CTAB
M  END
>  <Compound ID>
196

>  <Name>
Ponatinib

>  <Uniprot>
P21709

>  <Target>
EPHA1

>  <Smiles>
CC1=CC=C(C(=O)NC2=CC=C(CN3CCN(C)CC3)C(C(F)(F)F)=C2)C=C1C#CC1=CN=C2C=CC=NN12

>  <Kd (nM)>


>  <Assay (Kd)>


>  <Ki (nM)>


>  <Assay (Ki)>


>  <IC50 (nM)>


>  <Assay (IC50)>


>  <EC50 (nM)>


>  <Assay (EC50)>


>  <Article DOI>
10.1016/j.cell.2020.10.038

>  <Molecular Weight>
532.57

>  <Exact Mass>
532.219844144

>  <XLogP3>
4.11

>  <Heavy Atom Count>
39

>  <Ring Count>
5

>  <Hydrogen Bond Acceptor Count>
6

>  <Hydrogen Bond Donor Count>
1

>  <Rotatable Bond Count>
4

>  <Topological Polar Surface Area>
65.77

>  <Molecular Formula>
C29H27F3N6O

>  <InChI>
InChI=1S/C29H27F3N6O/c1-20-5-6-22(16-21(20)8-10-25-18-33-27-4-3-11-34-38(25)27)28(39)35-24-9-7-23(26(17-24)29(30,31)32)19-37-14-12-36(2)13-15-37/h3-7,9,11,16-18H,12-15,19H2,1-2H3,(H,35,39)

>  <InChI Key>
PHXJVRSECIGDHY-UHFFFAOYSA-N

>  <BindingDB>
50322535

>  <PubChem>
24826799

>  <ChEMBL>
CHEMBL1171837

$$$$
Compound 567
Actelion Java MolfileCreator 2.0

  0  0  0  0  0  0              0 V3000
M  V30 BEGIN CTAB
M  V30 COUNTS 39 43 0 0 0
M  V30 BEGIN ATOM
M  V30 1 F 0.0 0.0 0.0 0
M  V30 2 C -1.053 -1.0648 0.0 0
M  V30 3 F -2.1415 -0.0118 0.0 0
M  V30 4 F 0.0118 -2.0942 0.0 0
M  V30 5 C -2.106 -2.1297 0.0 0
M  V30 6 C -1.7037 -3.5613 0.0 0
M  V30 7 C -3.5731 -1.751 0.0 0
M  V30 8 C -2.7567 -4.6261 0.0 0
M  V30 9 C -0.2602 -3.9162 0.0 0
M  V30 10 C -4.6261 -2.8159 0.0 0
M  V30 11 C -4.2239 -4.2475 0.0 0
M  V30 12 N 0.1419 -5.3479 0.0 0
M  V30 13 N -6.0933 -2.4373 0.0 0
M  V30 14 C -0.911 -6.4127 0.0 0
M  V30 15 C 1.5854 -5.7028 0.0 0
M  V30 16 C -6.5192 -0.982 0.0 0
M  V30 17 C -0.5087 -7.8443 0.0 0
M  V30 18 C 1.9877 -7.1344 0.0 0
M  V30 19 O -5.4898 0.1064 0.0 0
M  V30 20 C -7.9863 -0.6034 0.0 0
M  V30 21 N 0.9347 -8.1993 0.0 0
M  V30 22 C -9.0393 -1.6682 0.0 0
M  V30 23 C -8.4123 0.8518 0.0 0
M  V30 24 C 1.3369 -9.6309 0.0 0
M  V30 25 C -10.5065 -1.2896 0.0 0
M  V30 26 C -9.8794 1.2304 0.0 0
M  V30 27 C -11.5595 -2.3545 0.0 0
M  V30 28 C -10.9324 0.1656 0.0 0
M  V30 29 C -12.6125 -3.4193 0.0 0
M  V30 30 C -12.3995 0.5442 0.0 0
M  V30 31 C -13.6655 -4.4842 0.0 0
M  V30 32 N -13.4171 -5.9513 0.0 0
M  V30 33 C -15.1681 -4.2594 0.0 0
M  V30 34 N -12.1511 -6.7322 0.0 0
M  V30 35 C -14.754 -6.6493 0.0 0
M  V30 36 N -15.8426 -5.5963 0.0 0
M  V30 37 C -12.2221 -8.223 0.0 0
M  V30 38 C -14.825 -8.1401 0.0 0
M  V30 39 C -13.559 -8.921 0.0 0
M  V30 END ATOM
M  V30 BEGIN BOND
M  V30 1 1 1 2
M  V30 2 1 2 3
M  V30 3 1 2 4
M  V30 4 1 2 5
M  V30 5 2 5 6
M  V30 6 1 5 7
M  V30 7 1 6 8
M  V30 8 1 6 9
M  V30 9 2 7 10
M  V30 10 2 8 11
M  V30 11 1 9 12
M  V30 12 1 10 13
M  V30 13 1 12 14
M  V30 14 1 12 15
M  V30 15 1 13 16
M  V30 16 1 14 17
M  V30 17 1 15 18
M  V30 18 2 16 19
M  V30 19 1 16 20
M  V30 20 1 17 21
M  V30 21 2 20 22
M  V30 22 1 20 23
M  V30 23 1 21 24
M  V30 24 1 22 25
M  V30 25 2 23 26
M  V30 26 1 25 27
M  V30 27 2 25 28
M  V30 28 3 27 29
M  V30 29 1 28 30
M  V30 30 1 29 31
M  V30 31 1 31 32
M  V30 32 2 31 33
M  V30 33 1 32 34
M  V30 34 1 32 35
M  V30 35 1 33 36
M  V30 36 2 34 37
M  V30 37 1 35 38
M  V30 38 1 37 39
M  V30 39 1 10 11
M  V30 40 1 18 21
M  V30 41 1 26 28
M  V30 42 2 35 36
M  V30 43 2 38 39
M  V30 END BOND
M  V30 END CTAB
M  END
>  <Compound ID>
196

>  <Name>
Ponatinib

>  <Uniprot>
P29317

>  <Target>
EPHA2

>  <Smiles>
CC1=CC=C(C(=O)NC2=CC=C(CN3CCN(C)CC3)C(C(F)(F)F)=C2)C=C1C#CC1=CN=C2C=CC=NN12

>  <Kd (nM)>


>  <Assay (Kd)>


>  <Ki (nM)>


>  <Assay (Ki)>


>  <IC50 (nM)>


>  <Assay (IC50)>


>  <EC50 (nM)>


>  <Assay (EC50)>


>  <Article DOI>
10.1016/j.cell.2020.10.038

>  <Molecular Weight>
532.57

>  <Exact Mass>
532.219844144

>  <XLogP3>
4.11

>  <Heavy Atom Count>
39

>  <Ring Count>
5

>  <Hydrogen Bond Acceptor Count>
6

>  <Hydrogen Bond Donor Count>
1

>  <Rotatable Bond Count>
4

>  <Topological Polar Surface Area>
65.77

>  <Molecular Formula>
C29H27F3N6O

>  <InChI>
InChI=1S/C29H27F3N6O/c1-20-5-6-22(16-21(20)8-10-25-18-33-27-4-3-11-34-38(25)27)28(39)35-24-9-7-23(26(17-24)29(30,31)32)19-37-14-12-36(2)13-15-37/h3-7,9,11,16-18H,12-15,19H2,1-2H3,(H,35,39)

>  <InChI Key>
PHXJVRSECIGDHY-UHFFFAOYSA-N

>  <BindingDB>
50322535

>  <PubChem>
24826799

>  <ChEMBL>
CHEMBL1171837

$$$$
Compound 568
Actelion Java MolfileCreator 2.0

  0  0  0  0  0  0              0 V3000
M  V30 BEGIN CTAB
M  V30 COUNTS 39 43 0 0 0
M  V30 BEGIN ATOM
M  V30 1 F 0.0 0.0 0.0 0
M  V30 2 C -1.053 -1.0648 0.0 0
M  V30 3 F -2.1415 -0.0118 0.0 0
M  V30 4 F 0.0118 -2.0942 0.0 0
M  V30 5 C -2.106 -2.1297 0.0 0
M  V30 6 C -1.7037 -3.5613 0.0 0
M  V30 7 C -3.5731 -1.751 0.0 0
M  V30 8 C -2.7567 -4.6261 0.0 0
M  V30 9 C -0.2602 -3.9162 0.0 0
M  V30 10 C -4.6261 -2.8159 0.0 0
M  V30 11 C -4.2239 -4.2475 0.0 0
M  V30 12 N 0.1419 -5.3479 0.0 0
M  V30 13 N -6.0933 -2.4373 0.0 0
M  V30 14 C -0.911 -6.4127 0.0 0
M  V30 15 C 1.5854 -5.7028 0.0 0
M  V30 16 C -6.5192 -0.982 0.0 0
M  V30 17 C -0.5087 -7.8443 0.0 0
M  V30 18 C 1.9877 -7.1344 0.0 0
M  V30 19 O -5.4898 0.1064 0.0 0
M  V30 20 C -7.9863 -0.6034 0.0 0
M  V30 21 N 0.9347 -8.1993 0.0 0
M  V30 22 C -9.0393 -1.6682 0.0 0
M  V30 23 C -8.4123 0.8518 0.0 0
M  V30 24 C 1.3369 -9.6309 0.0 0
M  V30 25 C -10.5065 -1.2896 0.0 0
M  V30 26 C -9.8794 1.2304 0.0 0
M  V30 27 C -11.5595 -2.3545 0.0 0
M  V30 28 C -10.9324 0.1656 0.0 0
M  V30 29 C -12.6125 -3.4193 0.0 0
M  V30 30 C -12.3995 0.5442 0.0 0
M  V30 31 C -13.6655 -4.4842 0.0 0
M  V30 32 N -13.4171 -5.9513 0.0 0
M  V30 33 C -15.1681 -4.2594 0.0 0
M  V30 34 N -12.1511 -6.7322 0.0 0
M  V30 35 C -14.754 -6.6493 0.0 0
M  V30 36 N -15.8426 -5.5963 0.0 0
M  V30 37 C -12.2221 -8.223 0.0 0
M  V30 38 C -14.825 -8.1401 0.0 0
M  V30 39 C -13.559 -8.921 0.0 0
M  V30 END ATOM
M  V30 BEGIN BOND
M  V30 1 1 1 2
M  V30 2 1 2 3
M  V30 3 1 2 4
M  V30 4 1 2 5
M  V30 5 2 5 6
M  V30 6 1 5 7
M  V30 7 1 6 8
M  V30 8 1 6 9
M  V30 9 2 7 10
M  V30 10 2 8 11
M  V30 11 1 9 12
M  V30 12 1 10 13
M  V30 13 1 12 14
M  V30 14 1 12 15
M  V30 15 1 13 16
M  V30 16 1 14 17
M  V30 17 1 15 18
M  V30 18 2 16 19
M  V30 19 1 16 20
M  V30 20 1 17 21
M  V30 21 2 20 22
M  V30 22 1 20 23
M  V30 23 1 21 24
M  V30 24 1 22 25
M  V30 25 2 23 26
M  V30 26 1 25 27
M  V30 27 2 25 28
M  V30 28 3 27 29
M  V30 29 1 28 30
M  V30 30 1 29 31
M  V30 31 1 31 32
M  V30 32 2 31 33
M  V30 33 1 32 34
M  V30 34 1 32 35
M  V30 35 1 33 36
M  V30 36 2 34 37
M  V30 37 1 35 38
M  V30 38 1 37 39
M  V30 39 1 10 11
M  V30 40 1 18 21
M  V30 41 1 26 28
M  V30 42 2 35 36
M  V30 43 2 38 39
M  V30 END BOND
M  V30 END CTAB
M  END
>  <Compound ID>
196

>  <Name>
Ponatinib

>  <Uniprot>
P16591

>  <Target>
FER

>  <Smiles>
CC1=CC=C(C(=O)NC2=CC=C(CN3CCN(C)CC3)C(C(F)(F)F)=C2)C=C1C#CC1=CN=C2C=CC=NN12

>  <Kd (nM)>
>30000

>  <Assay (Kd)>
Kd apparent of FER

>  <Ki (nM)>


>  <Assay (Ki)>


>  <IC50 (nM)>


>  <Assay (IC50)>


>  <EC50 (nM)>


>  <Assay (EC50)>


>  <Article DOI>
10.1126/science.aan4368

>  <Molecular Weight>
532.57

>  <Exact Mass>
532.219844144

>  <XLogP3>
4.11

>  <Heavy Atom Count>
39

>  <Ring Count>
5

>  <Hydrogen Bond Acceptor Count>
6

>  <Hydrogen Bond Donor Count>
1

>  <Rotatable Bond Count>
4

>  <Topological Polar Surface Area>
65.77

>  <Molecular Formula>
C29H27F3N6O

>  <InChI>
InChI=1S/C29H27F3N6O/c1-20-5-6-22(16-21(20)8-10-25-18-33-27-4-3-11-34-38(25)27)28(39)35-24-9-7-23(26(17-24)29(30,31)32)19-37-14-12-36(2)13-15-37/h3-7,9,11,16-18H,12-15,19H2,1-2H3,(H,35,39)

>  <InChI Key>
PHXJVRSECIGDHY-UHFFFAOYSA-N

>  <BindingDB>
50322535

>  <PubChem>
24826799

>  <ChEMBL>
CHEMBL1171837

$$$$
Compound 569
Actelion Java MolfileCreator 2.0

  0  0  0  0  0  0              0 V3000
M  V30 BEGIN CTAB
M  V30 COUNTS 39 43 0 0 0
M  V30 BEGIN ATOM
M  V30 1 F 0.0 0.0 0.0 0
M  V30 2 C -1.053 -1.0648 0.0 0
M  V30 3 F -2.1415 -0.0118 0.0 0
M  V30 4 F 0.0118 -2.0942 0.0 0
M  V30 5 C -2.106 -2.1297 0.0 0
M  V30 6 C -1.7037 -3.5613 0.0 0
M  V30 7 C -3.5731 -1.751 0.0 0
M  V30 8 C -2.7567 -4.6261 0.0 0
M  V30 9 C -0.2602 -3.9162 0.0 0
M  V30 10 C -4.6261 -2.8159 0.0 0
M  V30 11 C -4.2239 -4.2475 0.0 0
M  V30 12 N 0.1419 -5.3479 0.0 0
M  V30 13 N -6.0933 -2.4373 0.0 0
M  V30 14 C -0.911 -6.4127 0.0 0
M  V30 15 C 1.5854 -5.7028 0.0 0
M  V30 16 C -6.5192 -0.982 0.0 0
M  V30 17 C -0.5087 -7.8443 0.0 0
M  V30 18 C 1.9877 -7.1344 0.0 0
M  V30 19 O -5.4898 0.1064 0.0 0
M  V30 20 C -7.9863 -0.6034 0.0 0
M  V30 21 N 0.9347 -8.1993 0.0 0
M  V30 22 C -9.0393 -1.6682 0.0 0
M  V30 23 C -8.4123 0.8518 0.0 0
M  V30 24 C 1.3369 -9.6309 0.0 0
M  V30 25 C -10.5065 -1.2896 0.0 0
M  V30 26 C -9.8794 1.2304 0.0 0
M  V30 27 C -11.5595 -2.3545 0.0 0
M  V30 28 C -10.9324 0.1656 0.0 0
M  V30 29 C -12.6125 -3.4193 0.0 0
M  V30 30 C -12.3995 0.5442 0.0 0
M  V30 31 C -13.6655 -4.4842 0.0 0
M  V30 32 N -13.4171 -5.9513 0.0 0
M  V30 33 C -15.1681 -4.2594 0.0 0
M  V30 34 N -12.1511 -6.7322 0.0 0
M  V30 35 C -14.754 -6.6493 0.0 0
M  V30 36 N -15.8426 -5.5963 0.0 0
M  V30 37 C -12.2221 -8.223 0.0 0
M  V30 38 C -14.825 -8.1401 0.0 0
M  V30 39 C -13.559 -8.921 0.0 0
M  V30 END ATOM
M  V30 BEGIN BOND
M  V30 1 1 1 2
M  V30 2 1 2 3
M  V30 3 1 2 4
M  V30 4 1 2 5
M  V30 5 2 5 6
M  V30 6 1 5 7
M  V30 7 1 6 8
M  V30 8 1 6 9
M  V30 9 2 7 10
M  V30 10 2 8 11
M  V30 11 1 9 12
M  V30 12 1 10 13
M  V30 13 1 12 14
M  V30 14 1 12 15
M  V30 15 1 13 16
M  V30 16 1 14 17
M  V30 17 1 15 18
M  V30 18 2 16 19
M  V30 19 1 16 20
M  V30 20 1 17 21
M  V30 21 2 20 22
M  V30 22 1 20 23
M  V30 23 1 21 24
M  V30 24 1 22 25
M  V30 25 2 23 26
M  V30 26 1 25 27
M  V30 27 2 25 28
M  V30 28 3 27 29
M  V30 29 1 28 30
M  V30 30 1 29 31
M  V30 31 1 31 32
M  V30 32 2 31 33
M  V30 33 1 32 34
M  V30 34 1 32 35
M  V30 35 1 33 36
M  V30 36 2 34 37
M  V30 37 1 35 38
M  V30 38 1 37 39
M  V30 39 1 10 11
M  V30 40 1 18 21
M  V30 41 1 26 28
M  V30 42 2 35 36
M  V30 43 2 38 39
M  V30 END BOND
M  V30 END CTAB
M  END
>  <Compound ID>
196

>  <Name>
Ponatinib

>  <Uniprot>
P06241

>  <Target>
FYN

>  <Smiles>
CC1=CC=C(C(=O)NC2=CC=C(CN3CCN(C)CC3)C(C(F)(F)F)=C2)C=C1C#CC1=CN=C2C=CC=NN12

>  <Kd (nM)>
36

>  <Assay (Kd)>
Kd apparent of FYN

>  <Ki (nM)>


>  <Assay (Ki)>


>  <IC50 (nM)>


>  <Assay (IC50)>


>  <EC50 (nM)>


>  <Assay (EC50)>


>  <Article DOI>
10.1126/science.aan4368

>  <Molecular Weight>
532.57

>  <Exact Mass>
532.219844144

>  <XLogP3>
4.11

>  <Heavy Atom Count>
39

>  <Ring Count>
5

>  <Hydrogen Bond Acceptor Count>
6

>  <Hydrogen Bond Donor Count>
1

>  <Rotatable Bond Count>
4

>  <Topological Polar Surface Area>
65.77

>  <Molecular Formula>
C29H27F3N6O

>  <InChI>
InChI=1S/C29H27F3N6O/c1-20-5-6-22(16-21(20)8-10-25-18-33-27-4-3-11-34-38(25)27)28(39)35-24-9-7-23(26(17-24)29(30,31)32)19-37-14-12-36(2)13-15-37/h3-7,9,11,16-18H,12-15,19H2,1-2H3,(H,35,39)

>  <InChI Key>
PHXJVRSECIGDHY-UHFFFAOYSA-N

>  <BindingDB>
50322535

>  <PubChem>
24826799

>  <ChEMBL>
CHEMBL1171837

$$$$
Compound 570
Actelion Java MolfileCreator 2.0

  0  0  0  0  0  0              0 V3000
M  V30 BEGIN CTAB
M  V30 COUNTS 39 43 0 0 0
M  V30 BEGIN ATOM
M  V30 1 F 0.0 0.0 0.0 0
M  V30 2 C -1.053 -1.0648 0.0 0
M  V30 3 F -2.1415 -0.0118 0.0 0
M  V30 4 F 0.0118 -2.0942 0.0 0
M  V30 5 C -2.106 -2.1297 0.0 0
M  V30 6 C -1.7037 -3.5613 0.0 0
M  V30 7 C -3.5731 -1.751 0.0 0
M  V30 8 C -2.7567 -4.6261 0.0 0
M  V30 9 C -0.2602 -3.9162 0.0 0
M  V30 10 C -4.6261 -2.8159 0.0 0
M  V30 11 C -4.2239 -4.2475 0.0 0
M  V30 12 N 0.1419 -5.3479 0.0 0
M  V30 13 N -6.0933 -2.4373 0.0 0
M  V30 14 C -0.911 -6.4127 0.0 0
M  V30 15 C 1.5854 -5.7028 0.0 0
M  V30 16 C -6.5192 -0.982 0.0 0
M  V30 17 C -0.5087 -7.8443 0.0 0
M  V30 18 C 1.9877 -7.1344 0.0 0
M  V30 19 O -5.4898 0.1064 0.0 0
M  V30 20 C -7.9863 -0.6034 0.0 0
M  V30 21 N 0.9347 -8.1993 0.0 0
M  V30 22 C -9.0393 -1.6682 0.0 0
M  V30 23 C -8.4123 0.8518 0.0 0
M  V30 24 C 1.3369 -9.6309 0.0 0
M  V30 25 C -10.5065 -1.2896 0.0 0
M  V30 26 C -9.8794 1.2304 0.0 0
M  V30 27 C -11.5595 -2.3545 0.0 0
M  V30 28 C -10.9324 0.1656 0.0 0
M  V30 29 C -12.6125 -3.4193 0.0 0
M  V30 30 C -12.3995 0.5442 0.0 0
M  V30 31 C -13.6655 -4.4842 0.0 0
M  V30 32 N -13.4171 -5.9513 0.0 0
M  V30 33 C -15.1681 -4.2594 0.0 0
M  V30 34 N -12.1511 -6.7322 0.0 0
M  V30 35 C -14.754 -6.6493 0.0 0
M  V30 36 N -15.8426 -5.5963 0.0 0
M  V30 37 C -12.2221 -8.223 0.0 0
M  V30 38 C -14.825 -8.1401 0.0 0
M  V30 39 C -13.559 -8.921 0.0 0
M  V30 END ATOM
M  V30 BEGIN BOND
M  V30 1 1 1 2
M  V30 2 1 2 3
M  V30 3 1 2 4
M  V30 4 1 2 5
M  V30 5 2 5 6
M  V30 6 1 5 7
M  V30 7 1 6 8
M  V30 8 1 6 9
M  V30 9 2 7 10
M  V30 10 2 8 11
M  V30 11 1 9 12
M  V30 12 1 10 13
M  V30 13 1 12 14
M  V30 14 1 12 15
M  V30 15 1 13 16
M  V30 16 1 14 17
M  V30 17 1 15 18
M  V30 18 2 16 19
M  V30 19 1 16 20
M  V30 20 1 17 21
M  V30 21 2 20 22
M  V30 22 1 20 23
M  V30 23 1 21 24
M  V30 24 1 22 25
M  V30 25 2 23 26
M  V30 26 1 25 27
M  V30 27 2 25 28
M  V30 28 3 27 29
M  V30 29 1 28 30
M  V30 30 1 29 31
M  V30 31 1 31 32
M  V30 32 2 31 33
M  V30 33 1 32 34
M  V30 34 1 32 35
M  V30 35 1 33 36
M  V30 36 2 34 37
M  V30 37 1 35 38
M  V30 38 1 37 39
M  V30 39 1 10 11
M  V30 40 1 18 21
M  V30 41 1 26 28
M  V30 42 2 35 36
M  V30 43 2 38 39
M  V30 END BOND
M  V30 END CTAB
M  END
>  <Compound ID>
196

>  <Name>
Ponatinib

>  <Uniprot>
O14976

>  <Target>
GAK

>  <Smiles>
CC1=CC=C(C(=O)NC2=CC=C(CN3CCN(C)CC3)C(C(F)(F)F)=C2)C=C1C#CC1=CN=C2C=CC=NN12

>  <Kd (nM)>
1862

>  <Assay (Kd)>
Kd apparent of GAK

>  <Ki (nM)>


>  <Assay (Ki)>


>  <IC50 (nM)>


>  <Assay (IC50)>


>  <EC50 (nM)>


>  <Assay (EC50)>


>  <Article DOI>
10.1126/science.aan4368

>  <Molecular Weight>
532.57

>  <Exact Mass>
532.219844144

>  <XLogP3>
4.11

>  <Heavy Atom Count>
39

>  <Ring Count>
5

>  <Hydrogen Bond Acceptor Count>
6

>  <Hydrogen Bond Donor Count>
1

>  <Rotatable Bond Count>
4

>  <Topological Polar Surface Area>
65.77

>  <Molecular Formula>
C29H27F3N6O

>  <InChI>
InChI=1S/C29H27F3N6O/c1-20-5-6-22(16-21(20)8-10-25-18-33-27-4-3-11-34-38(25)27)28(39)35-24-9-7-23(26(17-24)29(30,31)32)19-37-14-12-36(2)13-15-37/h3-7,9,11,16-18H,12-15,19H2,1-2H3,(H,35,39)

>  <InChI Key>
PHXJVRSECIGDHY-UHFFFAOYSA-N

>  <BindingDB>
50322535

>  <PubChem>
24826799

>  <ChEMBL>
CHEMBL1171837

$$$$
Compound 571
Actelion Java MolfileCreator 2.0

  0  0  0  0  0  0              0 V3000
M  V30 BEGIN CTAB
M  V30 COUNTS 39 43 0 0 0
M  V30 BEGIN ATOM
M  V30 1 F 0.0 0.0 0.0 0
M  V30 2 C -1.053 -1.0648 0.0 0
M  V30 3 F -2.1415 -0.0118 0.0 0
M  V30 4 F 0.0118 -2.0942 0.0 0
M  V30 5 C -2.106 -2.1297 0.0 0
M  V30 6 C -1.7037 -3.5613 0.0 0
M  V30 7 C -3.5731 -1.751 0.0 0
M  V30 8 C -2.7567 -4.6261 0.0 0
M  V30 9 C -0.2602 -3.9162 0.0 0
M  V30 10 C -4.6261 -2.8159 0.0 0
M  V30 11 C -4.2239 -4.2475 0.0 0
M  V30 12 N 0.1419 -5.3479 0.0 0
M  V30 13 N -6.0933 -2.4373 0.0 0
M  V30 14 C -0.911 -6.4127 0.0 0
M  V30 15 C 1.5854 -5.7028 0.0 0
M  V30 16 C -6.5192 -0.982 0.0 0
M  V30 17 C -0.5087 -7.8443 0.0 0
M  V30 18 C 1.9877 -7.1344 0.0 0
M  V30 19 O -5.4898 0.1064 0.0 0
M  V30 20 C -7.9863 -0.6034 0.0 0
M  V30 21 N 0.9347 -8.1993 0.0 0
M  V30 22 C -9.0393 -1.6682 0.0 0
M  V30 23 C -8.4123 0.8518 0.0 0
M  V30 24 C 1.3369 -9.6309 0.0 0
M  V30 25 C -10.5065 -1.2896 0.0 0
M  V30 26 C -9.8794 1.2304 0.0 0
M  V30 27 C -11.5595 -2.3545 0.0 0
M  V30 28 C -10.9324 0.1656 0.0 0
M  V30 29 C -12.6125 -3.4193 0.0 0
M  V30 30 C -12.3995 0.5442 0.0 0
M  V30 31 C -13.6655 -4.4842 0.0 0
M  V30 32 N -13.4171 -5.9513 0.0 0
M  V30 33 C -15.1681 -4.2594 0.0 0
M  V30 34 N -12.1511 -6.7322 0.0 0
M  V30 35 C -14.754 -6.6493 0.0 0
M  V30 36 N -15.8426 -5.5963 0.0 0
M  V30 37 C -12.2221 -8.223 0.0 0
M  V30 38 C -14.825 -8.1401 0.0 0
M  V30 39 C -13.559 -8.921 0.0 0
M  V30 END ATOM
M  V30 BEGIN BOND
M  V30 1 1 1 2
M  V30 2 1 2 3
M  V30 3 1 2 4
M  V30 4 1 2 5
M  V30 5 2 5 6
M  V30 6 1 5 7
M  V30 7 1 6 8
M  V30 8 1 6 9
M  V30 9 2 7 10
M  V30 10 2 8 11
M  V30 11 1 9 12
M  V30 12 1 10 13
M  V30 13 1 12 14
M  V30 14 1 12 15
M  V30 15 1 13 16
M  V30 16 1 14 17
M  V30 17 1 15 18
M  V30 18 2 16 19
M  V30 19 1 16 20
M  V30 20 1 17 21
M  V30 21 2 20 22
M  V30 22 1 20 23
M  V30 23 1 21 24
M  V30 24 1 22 25
M  V30 25 2 23 26
M  V30 26 1 25 27
M  V30 27 2 25 28
M  V30 28 3 27 29
M  V30 29 1 28 30
M  V30 30 1 29 31
M  V30 31 1 31 32
M  V30 32 2 31 33
M  V30 33 1 32 34
M  V30 34 1 32 35
M  V30 35 1 33 36
M  V30 36 2 34 37
M  V30 37 1 35 38
M  V30 38 1 37 39
M  V30 39 1 10 11
M  V30 40 1 18 21
M  V30 41 1 26 28
M  V30 42 2 35 36
M  V30 43 2 38 39
M  V30 END BOND
M  V30 END CTAB
M  END
>  <Compound ID>
196

>  <Name>
Ponatinib

>  <Uniprot>
P51617

>  <Target>
IRAK1

>  <Smiles>
CC1=CC=C(C(=O)NC2=CC=C(CN3CCN(C)CC3)C(C(F)(F)F)=C2)C=C1C#CC1=CN=C2C=CC=NN12

>  <Kd (nM)>


>  <Assay (Kd)>


>  <Ki (nM)>


>  <Assay (Ki)>


>  <IC50 (nM)>


>  <Assay (IC50)>


>  <EC50 (nM)>


>  <Assay (EC50)>


>  <Article DOI>
10.1016/j.cell.2020.10.038

>  <Molecular Weight>
532.57

>  <Exact Mass>
532.219844144

>  <XLogP3>
4.11

>  <Heavy Atom Count>
39

>  <Ring Count>
5

>  <Hydrogen Bond Acceptor Count>
6

>  <Hydrogen Bond Donor Count>
1

>  <Rotatable Bond Count>
4

>  <Topological Polar Surface Area>
65.77

>  <Molecular Formula>
C29H27F3N6O

>  <InChI>
InChI=1S/C29H27F3N6O/c1-20-5-6-22(16-21(20)8-10-25-18-33-27-4-3-11-34-38(25)27)28(39)35-24-9-7-23(26(17-24)29(30,31)32)19-37-14-12-36(2)13-15-37/h3-7,9,11,16-18H,12-15,19H2,1-2H3,(H,35,39)

>  <InChI Key>
PHXJVRSECIGDHY-UHFFFAOYSA-N

>  <BindingDB>
50322535

>  <PubChem>
24826799

>  <ChEMBL>
CHEMBL1171837

$$$$
Compound 572
Actelion Java MolfileCreator 2.0

  0  0  0  0  0  0              0 V3000
M  V30 BEGIN CTAB
M  V30 COUNTS 39 43 0 0 0
M  V30 BEGIN ATOM
M  V30 1 F 0.0 0.0 0.0 0
M  V30 2 C -1.053 -1.0648 0.0 0
M  V30 3 F -2.1415 -0.0118 0.0 0
M  V30 4 F 0.0118 -2.0942 0.0 0
M  V30 5 C -2.106 -2.1297 0.0 0
M  V30 6 C -1.7037 -3.5613 0.0 0
M  V30 7 C -3.5731 -1.751 0.0 0
M  V30 8 C -2.7567 -4.6261 0.0 0
M  V30 9 C -0.2602 -3.9162 0.0 0
M  V30 10 C -4.6261 -2.8159 0.0 0
M  V30 11 C -4.2239 -4.2475 0.0 0
M  V30 12 N 0.1419 -5.3479 0.0 0
M  V30 13 N -6.0933 -2.4373 0.0 0
M  V30 14 C -0.911 -6.4127 0.0 0
M  V30 15 C 1.5854 -5.7028 0.0 0
M  V30 16 C -6.5192 -0.982 0.0 0
M  V30 17 C -0.5087 -7.8443 0.0 0
M  V30 18 C 1.9877 -7.1344 0.0 0
M  V30 19 O -5.4898 0.1064 0.0 0
M  V30 20 C -7.9863 -0.6034 0.0 0
M  V30 21 N 0.9347 -8.1993 0.0 0
M  V30 22 C -9.0393 -1.6682 0.0 0
M  V30 23 C -8.4123 0.8518 0.0 0
M  V30 24 C 1.3369 -9.6309 0.0 0
M  V30 25 C -10.5065 -1.2896 0.0 0
M  V30 26 C -9.8794 1.2304 0.0 0
M  V30 27 C -11.5595 -2.3545 0.0 0
M  V30 28 C -10.9324 0.1656 0.0 0
M  V30 29 C -12.6125 -3.4193 0.0 0
M  V30 30 C -12.3995 0.5442 0.0 0
M  V30 31 C -13.6655 -4.4842 0.0 0
M  V30 32 N -13.4171 -5.9513 0.0 0
M  V30 33 C -15.1681 -4.2594 0.0 0
M  V30 34 N -12.1511 -6.7322 0.0 0
M  V30 35 C -14.754 -6.6493 0.0 0
M  V30 36 N -15.8426 -5.5963 0.0 0
M  V30 37 C -12.2221 -8.223 0.0 0
M  V30 38 C -14.825 -8.1401 0.0 0
M  V30 39 C -13.559 -8.921 0.0 0
M  V30 END ATOM
M  V30 BEGIN BOND
M  V30 1 1 1 2
M  V30 2 1 2 3
M  V30 3 1 2 4
M  V30 4 1 2 5
M  V30 5 2 5 6
M  V30 6 1 5 7
M  V30 7 1 6 8
M  V30 8 1 6 9
M  V30 9 2 7 10
M  V30 10 2 8 11
M  V30 11 1 9 12
M  V30 12 1 10 13
M  V30 13 1 12 14
M  V30 14 1 12 15
M  V30 15 1 13 16
M  V30 16 1 14 17
M  V30 17 1 15 18
M  V30 18 2 16 19
M  V30 19 1 16 20
M  V30 20 1 17 21
M  V30 21 2 20 22
M  V30 22 1 20 23
M  V30 23 1 21 24
M  V30 24 1 22 25
M  V30 25 2 23 26
M  V30 26 1 25 27
M  V30 27 2 25 28
M  V30 28 3 27 29
M  V30 29 1 28 30
M  V30 30 1 29 31
M  V30 31 1 31 32
M  V30 32 2 31 33
M  V30 33 1 32 34
M  V30 34 1 32 35
M  V30 35 1 33 36
M  V30 36 2 34 37
M  V30 37 1 35 38
M  V30 38 1 37 39
M  V30 39 1 10 11
M  V30 40 1 18 21
M  V30 41 1 26 28
M  V30 42 2 35 36
M  V30 43 2 38 39
M  V30 END BOND
M  V30 END CTAB
M  END
>  <Compound ID>
196

>  <Name>
Ponatinib

>  <Uniprot>
P06239

>  <Target>
LCK

>  <Smiles>
CC1=CC=C(C(=O)NC2=CC=C(CN3CCN(C)CC3)C(C(F)(F)F)=C2)C=C1C#CC1=CN=C2C=CC=NN12

>  <Kd (nM)>
24

>  <Assay (Kd)>
Kd apparent of LCK

>  <Ki (nM)>


>  <Assay (Ki)>


>  <IC50 (nM)>


>  <Assay (IC50)>


>  <EC50 (nM)>


>  <Assay (EC50)>


>  <Article DOI>
10.1126/science.aan4368

>  <Molecular Weight>
532.57

>  <Exact Mass>
532.219844144

>  <XLogP3>
4.11

>  <Heavy Atom Count>
39

>  <Ring Count>
5

>  <Hydrogen Bond Acceptor Count>
6

>  <Hydrogen Bond Donor Count>
1

>  <Rotatable Bond Count>
4

>  <Topological Polar Surface Area>
65.77

>  <Molecular Formula>
C29H27F3N6O

>  <InChI>
InChI=1S/C29H27F3N6O/c1-20-5-6-22(16-21(20)8-10-25-18-33-27-4-3-11-34-38(25)27)28(39)35-24-9-7-23(26(17-24)29(30,31)32)19-37-14-12-36(2)13-15-37/h3-7,9,11,16-18H,12-15,19H2,1-2H3,(H,35,39)

>  <InChI Key>
PHXJVRSECIGDHY-UHFFFAOYSA-N

>  <BindingDB>
50322535

>  <PubChem>
24826799

>  <ChEMBL>
CHEMBL1171837

$$$$
Compound 573
Actelion Java MolfileCreator 2.0

  0  0  0  0  0  0              0 V3000
M  V30 BEGIN CTAB
M  V30 COUNTS 39 43 0 0 0
M  V30 BEGIN ATOM
M  V30 1 F 0.0 0.0 0.0 0
M  V30 2 C -1.053 -1.0648 0.0 0
M  V30 3 F -2.1415 -0.0118 0.0 0
M  V30 4 F 0.0118 -2.0942 0.0 0
M  V30 5 C -2.106 -2.1297 0.0 0
M  V30 6 C -1.7037 -3.5613 0.0 0
M  V30 7 C -3.5731 -1.751 0.0 0
M  V30 8 C -2.7567 -4.6261 0.0 0
M  V30 9 C -0.2602 -3.9162 0.0 0
M  V30 10 C -4.6261 -2.8159 0.0 0
M  V30 11 C -4.2239 -4.2475 0.0 0
M  V30 12 N 0.1419 -5.3479 0.0 0
M  V30 13 N -6.0933 -2.4373 0.0 0
M  V30 14 C -0.911 -6.4127 0.0 0
M  V30 15 C 1.5854 -5.7028 0.0 0
M  V30 16 C -6.5192 -0.982 0.0 0
M  V30 17 C -0.5087 -7.8443 0.0 0
M  V30 18 C 1.9877 -7.1344 0.0 0
M  V30 19 O -5.4898 0.1064 0.0 0
M  V30 20 C -7.9863 -0.6034 0.0 0
M  V30 21 N 0.9347 -8.1993 0.0 0
M  V30 22 C -9.0393 -1.6682 0.0 0
M  V30 23 C -8.4123 0.8518 0.0 0
M  V30 24 C 1.3369 -9.6309 0.0 0
M  V30 25 C -10.5065 -1.2896 0.0 0
M  V30 26 C -9.8794 1.2304 0.0 0
M  V30 27 C -11.5595 -2.3545 0.0 0
M  V30 28 C -10.9324 0.1656 0.0 0
M  V30 29 C -12.6125 -3.4193 0.0 0
M  V30 30 C -12.3995 0.5442 0.0 0
M  V30 31 C -13.6655 -4.4842 0.0 0
M  V30 32 N -13.4171 -5.9513 0.0 0
M  V30 33 C -15.1681 -4.2594 0.0 0
M  V30 34 N -12.1511 -6.7322 0.0 0
M  V30 35 C -14.754 -6.6493 0.0 0
M  V30 36 N -15.8426 -5.5963 0.0 0
M  V30 37 C -12.2221 -8.223 0.0 0
M  V30 38 C -14.825 -8.1401 0.0 0
M  V30 39 C -13.559 -8.921 0.0 0
M  V30 END ATOM
M  V30 BEGIN BOND
M  V30 1 1 1 2
M  V30 2 1 2 3
M  V30 3 1 2 4
M  V30 4 1 2 5
M  V30 5 2 5 6
M  V30 6 1 5 7
M  V30 7 1 6 8
M  V30 8 1 6 9
M  V30 9 2 7 10
M  V30 10 2 8 11
M  V30 11 1 9 12
M  V30 12 1 10 13
M  V30 13 1 12 14
M  V30 14 1 12 15
M  V30 15 1 13 16
M  V30 16 1 14 17
M  V30 17 1 15 18
M  V30 18 2 16 19
M  V30 19 1 16 20
M  V30 20 1 17 21
M  V30 21 2 20 22
M  V30 22 1 20 23
M  V30 23 1 21 24
M  V30 24 1 22 25
M  V30 25 2 23 26
M  V30 26 1 25 27
M  V30 27 2 25 28
M  V30 28 3 27 29
M  V30 29 1 28 30
M  V30 30 1 29 31
M  V30 31 1 31 32
M  V30 32 2 31 33
M  V30 33 1 32 34
M  V30 34 1 32 35
M  V30 35 1 33 36
M  V30 36 2 34 37
M  V30 37 1 35 38
M  V30 38 1 37 39
M  V30 39 1 10 11
M  V30 40 1 18 21
M  V30 41 1 26 28
M  V30 42 2 35 36
M  V30 43 2 38 39
M  V30 END BOND
M  V30 END CTAB
M  END
>  <Compound ID>
196

>  <Name>
Ponatinib

>  <Uniprot>
P53667

>  <Target>
LIMK1

>  <Smiles>
CC1=CC=C(C(=O)NC2=CC=C(CN3CCN(C)CC3)C(C(F)(F)F)=C2)C=C1C#CC1=CN=C2C=CC=NN12

>  <Kd (nM)>


>  <Assay (Kd)>


>  <Ki (nM)>


>  <Assay (Ki)>


>  <IC50 (nM)>


>  <Assay (IC50)>


>  <EC50 (nM)>


>  <Assay (EC50)>


>  <Article DOI>
10.1016/j.cell.2020.10.038

>  <Molecular Weight>
532.57

>  <Exact Mass>
532.219844144

>  <XLogP3>
4.11

>  <Heavy Atom Count>
39

>  <Ring Count>
5

>  <Hydrogen Bond Acceptor Count>
6

>  <Hydrogen Bond Donor Count>
1

>  <Rotatable Bond Count>
4

>  <Topological Polar Surface Area>
65.77

>  <Molecular Formula>
C29H27F3N6O

>  <InChI>
InChI=1S/C29H27F3N6O/c1-20-5-6-22(16-21(20)8-10-25-18-33-27-4-3-11-34-38(25)27)28(39)35-24-9-7-23(26(17-24)29(30,31)32)19-37-14-12-36(2)13-15-37/h3-7,9,11,16-18H,12-15,19H2,1-2H3,(H,35,39)

>  <InChI Key>
PHXJVRSECIGDHY-UHFFFAOYSA-N

>  <BindingDB>
50322535

>  <PubChem>
24826799

>  <ChEMBL>
CHEMBL1171837

$$$$
Compound 574
Actelion Java MolfileCreator 2.0

  0  0  0  0  0  0              0 V3000
M  V30 BEGIN CTAB
M  V30 COUNTS 39 43 0 0 0
M  V30 BEGIN ATOM
M  V30 1 F 0.0 0.0 0.0 0
M  V30 2 C -1.053 -1.0648 0.0 0
M  V30 3 F -2.1415 -0.0118 0.0 0
M  V30 4 F 0.0118 -2.0942 0.0 0
M  V30 5 C -2.106 -2.1297 0.0 0
M  V30 6 C -1.7037 -3.5613 0.0 0
M  V30 7 C -3.5731 -1.751 0.0 0
M  V30 8 C -2.7567 -4.6261 0.0 0
M  V30 9 C -0.2602 -3.9162 0.0 0
M  V30 10 C -4.6261 -2.8159 0.0 0
M  V30 11 C -4.2239 -4.2475 0.0 0
M  V30 12 N 0.1419 -5.3479 0.0 0
M  V30 13 N -6.0933 -2.4373 0.0 0
M  V30 14 C -0.911 -6.4127 0.0 0
M  V30 15 C 1.5854 -5.7028 0.0 0
M  V30 16 C -6.5192 -0.982 0.0 0
M  V30 17 C -0.5087 -7.8443 0.0 0
M  V30 18 C 1.9877 -7.1344 0.0 0
M  V30 19 O -5.4898 0.1064 0.0 0
M  V30 20 C -7.9863 -0.6034 0.0 0
M  V30 21 N 0.9347 -8.1993 0.0 0
M  V30 22 C -9.0393 -1.6682 0.0 0
M  V30 23 C -8.4123 0.8518 0.0 0
M  V30 24 C 1.3369 -9.6309 0.0 0
M  V30 25 C -10.5065 -1.2896 0.0 0
M  V30 26 C -9.8794 1.2304 0.0 0
M  V30 27 C -11.5595 -2.3545 0.0 0
M  V30 28 C -10.9324 0.1656 0.0 0
M  V30 29 C -12.6125 -3.4193 0.0 0
M  V30 30 C -12.3995 0.5442 0.0 0
M  V30 31 C -13.6655 -4.4842 0.0 0
M  V30 32 N -13.4171 -5.9513 0.0 0
M  V30 33 C -15.1681 -4.2594 0.0 0
M  V30 34 N -12.1511 -6.7322 0.0 0
M  V30 35 C -14.754 -6.6493 0.0 0
M  V30 36 N -15.8426 -5.5963 0.0 0
M  V30 37 C -12.2221 -8.223 0.0 0
M  V30 38 C -14.825 -8.1401 0.0 0
M  V30 39 C -13.559 -8.921 0.0 0
M  V30 END ATOM
M  V30 BEGIN BOND
M  V30 1 1 1 2
M  V30 2 1 2 3
M  V30 3 1 2 4
M  V30 4 1 2 5
M  V30 5 2 5 6
M  V30 6 1 5 7
M  V30 7 1 6 8
M  V30 8 1 6 9
M  V30 9 2 7 10
M  V30 10 2 8 11
M  V30 11 1 9 12
M  V30 12 1 10 13
M  V30 13 1 12 14
M  V30 14 1 12 15
M  V30 15 1 13 16
M  V30 16 1 14 17
M  V30 17 1 15 18
M  V30 18 2 16 19
M  V30 19 1 16 20
M  V30 20 1 17 21
M  V30 21 2 20 22
M  V30 22 1 20 23
M  V30 23 1 21 24
M  V30 24 1 22 25
M  V30 25 2 23 26
M  V30 26 1 25 27
M  V30 27 2 25 28
M  V30 28 3 27 29
M  V30 29 1 28 30
M  V30 30 1 29 31
M  V30 31 1 31 32
M  V30 32 2 31 33
M  V30 33 1 32 34
M  V30 34 1 32 35
M  V30 35 1 33 36
M  V30 36 2 34 37
M  V30 37 1 35 38
M  V30 38 1 37 39
M  V30 39 1 10 11
M  V30 40 1 18 21
M  V30 41 1 26 28
M  V30 42 2 35 36
M  V30 43 2 38 39
M  V30 END BOND
M  V30 END CTAB
M  END
>  <Compound ID>
196

>  <Name>
Ponatinib

>  <Uniprot>
P07948

>  <Target>
LYN

>  <Smiles>
CC1=CC=C(C(=O)NC2=CC=C(CN3CCN(C)CC3)C(C(F)(F)F)=C2)C=C1C#CC1=CN=C2C=CC=NN12

>  <Kd (nM)>
27

>  <Assay (Kd)>
Kd apparent of LYN

>  <Ki (nM)>


>  <Assay (Ki)>


>  <IC50 (nM)>


>  <Assay (IC50)>


>  <EC50 (nM)>


>  <Assay (EC50)>


>  <Article DOI>
10.1126/science.aan4368

>  <Molecular Weight>
532.57

>  <Exact Mass>
532.219844144

>  <XLogP3>
4.11

>  <Heavy Atom Count>
39

>  <Ring Count>
5

>  <Hydrogen Bond Acceptor Count>
6

>  <Hydrogen Bond Donor Count>
1

>  <Rotatable Bond Count>
4

>  <Topological Polar Surface Area>
65.77

>  <Molecular Formula>
C29H27F3N6O

>  <InChI>
InChI=1S/C29H27F3N6O/c1-20-5-6-22(16-21(20)8-10-25-18-33-27-4-3-11-34-38(25)27)28(39)35-24-9-7-23(26(17-24)29(30,31)32)19-37-14-12-36(2)13-15-37/h3-7,9,11,16-18H,12-15,19H2,1-2H3,(H,35,39)

>  <InChI Key>
PHXJVRSECIGDHY-UHFFFAOYSA-N

>  <BindingDB>
50322535

>  <PubChem>
24826799

>  <ChEMBL>
CHEMBL1171837

$$$$
Compound 575
Actelion Java MolfileCreator 2.0

  0  0  0  0  0  0              0 V3000
M  V30 BEGIN CTAB
M  V30 COUNTS 39 43 0 0 0
M  V30 BEGIN ATOM
M  V30 1 F 0.0 0.0 0.0 0
M  V30 2 C -1.053 -1.0648 0.0 0
M  V30 3 F -2.1415 -0.0118 0.0 0
M  V30 4 F 0.0118 -2.0942 0.0 0
M  V30 5 C -2.106 -2.1297 0.0 0
M  V30 6 C -1.7037 -3.5613 0.0 0
M  V30 7 C -3.5731 -1.751 0.0 0
M  V30 8 C -2.7567 -4.6261 0.0 0
M  V30 9 C -0.2602 -3.9162 0.0 0
M  V30 10 C -4.6261 -2.8159 0.0 0
M  V30 11 C -4.2239 -4.2475 0.0 0
M  V30 12 N 0.1419 -5.3479 0.0 0
M  V30 13 N -6.0933 -2.4373 0.0 0
M  V30 14 C -0.911 -6.4127 0.0 0
M  V30 15 C 1.5854 -5.7028 0.0 0
M  V30 16 C -6.5192 -0.982 0.0 0
M  V30 17 C -0.5087 -7.8443 0.0 0
M  V30 18 C 1.9877 -7.1344 0.0 0
M  V30 19 O -5.4898 0.1064 0.0 0
M  V30 20 C -7.9863 -0.6034 0.0 0
M  V30 21 N 0.9347 -8.1993 0.0 0
M  V30 22 C -9.0393 -1.6682 0.0 0
M  V30 23 C -8.4123 0.8518 0.0 0
M  V30 24 C 1.3369 -9.6309 0.0 0
M  V30 25 C -10.5065 -1.2896 0.0 0
M  V30 26 C -9.8794 1.2304 0.0 0
M  V30 27 C -11.5595 -2.3545 0.0 0
M  V30 28 C -10.9324 0.1656 0.0 0
M  V30 29 C -12.6125 -3.4193 0.0 0
M  V30 30 C -12.3995 0.5442 0.0 0
M  V30 31 C -13.6655 -4.4842 0.0 0
M  V30 32 N -13.4171 -5.9513 0.0 0
M  V30 33 C -15.1681 -4.2594 0.0 0
M  V30 34 N -12.1511 -6.7322 0.0 0
M  V30 35 C -14.754 -6.6493 0.0 0
M  V30 36 N -15.8426 -5.5963 0.0 0
M  V30 37 C -12.2221 -8.223 0.0 0
M  V30 38 C -14.825 -8.1401 0.0 0
M  V30 39 C -13.559 -8.921 0.0 0
M  V30 END ATOM
M  V30 BEGIN BOND
M  V30 1 1 1 2
M  V30 2 1 2 3
M  V30 3 1 2 4
M  V30 4 1 2 5
M  V30 5 2 5 6
M  V30 6 1 5 7
M  V30 7 1 6 8
M  V30 8 1 6 9
M  V30 9 2 7 10
M  V30 10 2 8 11
M  V30 11 1 9 12
M  V30 12 1 10 13
M  V30 13 1 12 14
M  V30 14 1 12 15
M  V30 15 1 13 16
M  V30 16 1 14 17
M  V30 17 1 15 18
M  V30 18 2 16 19
M  V30 19 1 16 20
M  V30 20 1 17 21
M  V30 21 2 20 22
M  V30 22 1 20 23
M  V30 23 1 21 24
M  V30 24 1 22 25
M  V30 25 2 23 26
M  V30 26 1 25 27
M  V30 27 2 25 28
M  V30 28 3 27 29
M  V30 29 1 28 30
M  V30 30 1 29 31
M  V30 31 1 31 32
M  V30 32 2 31 33
M  V30 33 1 32 34
M  V30 34 1 32 35
M  V30 35 1 33 36
M  V30 36 2 34 37
M  V30 37 1 35 38
M  V30 38 1 37 39
M  V30 39 1 10 11
M  V30 40 1 18 21
M  V30 41 1 26 28
M  V30 42 2 35 36
M  V30 43 2 38 39
M  V30 END BOND
M  V30 END CTAB
M  END
>  <Compound ID>
196

>  <Name>
Ponatinib

>  <Uniprot>
Q13233

>  <Target>
MAP3K1

>  <Smiles>
CC1=CC=C(C(=O)NC2=CC=C(CN3CCN(C)CC3)C(C(F)(F)F)=C2)C=C1C#CC1=CN=C2C=CC=NN12

>  <Kd (nM)>


>  <Assay (Kd)>


>  <Ki (nM)>


>  <Assay (Ki)>


>  <IC50 (nM)>


>  <Assay (IC50)>


>  <EC50 (nM)>


>  <Assay (EC50)>


>  <Article DOI>
10.1016/j.cell.2020.10.038

>  <Molecular Weight>
532.57

>  <Exact Mass>
532.219844144

>  <XLogP3>
4.11

>  <Heavy Atom Count>
39

>  <Ring Count>
5

>  <Hydrogen Bond Acceptor Count>
6

>  <Hydrogen Bond Donor Count>
1

>  <Rotatable Bond Count>
4

>  <Topological Polar Surface Area>
65.77

>  <Molecular Formula>
C29H27F3N6O

>  <InChI>
InChI=1S/C29H27F3N6O/c1-20-5-6-22(16-21(20)8-10-25-18-33-27-4-3-11-34-38(25)27)28(39)35-24-9-7-23(26(17-24)29(30,31)32)19-37-14-12-36(2)13-15-37/h3-7,9,11,16-18H,12-15,19H2,1-2H3,(H,35,39)

>  <InChI Key>
PHXJVRSECIGDHY-UHFFFAOYSA-N

>  <BindingDB>
50322535

>  <PubChem>
24826799

>  <ChEMBL>
CHEMBL1171837

$$$$
Compound 576
Actelion Java MolfileCreator 2.0

  0  0  0  0  0  0              0 V3000
M  V30 BEGIN CTAB
M  V30 COUNTS 39 43 0 0 0
M  V30 BEGIN ATOM
M  V30 1 F 0.0 0.0 0.0 0
M  V30 2 C -1.053 -1.0648 0.0 0
M  V30 3 F -2.1415 -0.0118 0.0 0
M  V30 4 F 0.0118 -2.0942 0.0 0
M  V30 5 C -2.106 -2.1297 0.0 0
M  V30 6 C -1.7037 -3.5613 0.0 0
M  V30 7 C -3.5731 -1.751 0.0 0
M  V30 8 C -2.7567 -4.6261 0.0 0
M  V30 9 C -0.2602 -3.9162 0.0 0
M  V30 10 C -4.6261 -2.8159 0.0 0
M  V30 11 C -4.2239 -4.2475 0.0 0
M  V30 12 N 0.1419 -5.3479 0.0 0
M  V30 13 N -6.0933 -2.4373 0.0 0
M  V30 14 C -0.911 -6.4127 0.0 0
M  V30 15 C 1.5854 -5.7028 0.0 0
M  V30 16 C -6.5192 -0.982 0.0 0
M  V30 17 C -0.5087 -7.8443 0.0 0
M  V30 18 C 1.9877 -7.1344 0.0 0
M  V30 19 O -5.4898 0.1064 0.0 0
M  V30 20 C -7.9863 -0.6034 0.0 0
M  V30 21 N 0.9347 -8.1993 0.0 0
M  V30 22 C -9.0393 -1.6682 0.0 0
M  V30 23 C -8.4123 0.8518 0.0 0
M  V30 24 C 1.3369 -9.6309 0.0 0
M  V30 25 C -10.5065 -1.2896 0.0 0
M  V30 26 C -9.8794 1.2304 0.0 0
M  V30 27 C -11.5595 -2.3545 0.0 0
M  V30 28 C -10.9324 0.1656 0.0 0
M  V30 29 C -12.6125 -3.4193 0.0 0
M  V30 30 C -12.3995 0.5442 0.0 0
M  V30 31 C -13.6655 -4.4842 0.0 0
M  V30 32 N -13.4171 -5.9513 0.0 0
M  V30 33 C -15.1681 -4.2594 0.0 0
M  V30 34 N -12.1511 -6.7322 0.0 0
M  V30 35 C -14.754 -6.6493 0.0 0
M  V30 36 N -15.8426 -5.5963 0.0 0
M  V30 37 C -12.2221 -8.223 0.0 0
M  V30 38 C -14.825 -8.1401 0.0 0
M  V30 39 C -13.559 -8.921 0.0 0
M  V30 END ATOM
M  V30 BEGIN BOND
M  V30 1 1 1 2
M  V30 2 1 2 3
M  V30 3 1 2 4
M  V30 4 1 2 5
M  V30 5 2 5 6
M  V30 6 1 5 7
M  V30 7 1 6 8
M  V30 8 1 6 9
M  V30 9 2 7 10
M  V30 10 2 8 11
M  V30 11 1 9 12
M  V30 12 1 10 13
M  V30 13 1 12 14
M  V30 14 1 12 15
M  V30 15 1 13 16
M  V30 16 1 14 17
M  V30 17 1 15 18
M  V30 18 2 16 19
M  V30 19 1 16 20
M  V30 20 1 17 21
M  V30 21 2 20 22
M  V30 22 1 20 23
M  V30 23 1 21 24
M  V30 24 1 22 25
M  V30 25 2 23 26
M  V30 26 1 25 27
M  V30 27 2 25 28
M  V30 28 3 27 29
M  V30 29 1 28 30
M  V30 30 1 29 31
M  V30 31 1 31 32
M  V30 32 2 31 33
M  V30 33 1 32 34
M  V30 34 1 32 35
M  V30 35 1 33 36
M  V30 36 2 34 37
M  V30 37 1 35 38
M  V30 38 1 37 39
M  V30 39 1 10 11
M  V30 40 1 18 21
M  V30 41 1 26 28
M  V30 42 2 35 36
M  V30 43 2 38 39
M  V30 END BOND
M  V30 END CTAB
M  END
>  <Compound ID>
196

>  <Name>
Ponatinib

>  <Uniprot>
Q9NYL2

>  <Target>
MAP3K20

>  <Smiles>
CC1=CC=C(C(=O)NC2=CC=C(CN3CCN(C)CC3)C(C(F)(F)F)=C2)C=C1C#CC1=CN=C2C=CC=NN12

>  <Kd (nM)>


>  <Assay (Kd)>


>  <Ki (nM)>


>  <Assay (Ki)>


>  <IC50 (nM)>


>  <Assay (IC50)>


>  <EC50 (nM)>


>  <Assay (EC50)>


>  <Article DOI>
10.1016/j.cell.2020.10.038

>  <Molecular Weight>
532.57

>  <Exact Mass>
532.219844144

>  <XLogP3>
4.11

>  <Heavy Atom Count>
39

>  <Ring Count>
5

>  <Hydrogen Bond Acceptor Count>
6

>  <Hydrogen Bond Donor Count>
1

>  <Rotatable Bond Count>
4

>  <Topological Polar Surface Area>
65.77

>  <Molecular Formula>
C29H27F3N6O

>  <InChI>
InChI=1S/C29H27F3N6O/c1-20-5-6-22(16-21(20)8-10-25-18-33-27-4-3-11-34-38(25)27)28(39)35-24-9-7-23(26(17-24)29(30,31)32)19-37-14-12-36(2)13-15-37/h3-7,9,11,16-18H,12-15,19H2,1-2H3,(H,35,39)

>  <InChI Key>
PHXJVRSECIGDHY-UHFFFAOYSA-N

>  <BindingDB>
50322535

>  <PubChem>
24826799

>  <ChEMBL>
CHEMBL1171837

$$$$
Compound 577
Actelion Java MolfileCreator 2.0

  0  0  0  0  0  0              0 V3000
M  V30 BEGIN CTAB
M  V30 COUNTS 39 43 0 0 0
M  V30 BEGIN ATOM
M  V30 1 F 0.0 0.0 0.0 0
M  V30 2 C -1.053 -1.0648 0.0 0
M  V30 3 F -2.1415 -0.0118 0.0 0
M  V30 4 F 0.0118 -2.0942 0.0 0
M  V30 5 C -2.106 -2.1297 0.0 0
M  V30 6 C -1.7037 -3.5613 0.0 0
M  V30 7 C -3.5731 -1.751 0.0 0
M  V30 8 C -2.7567 -4.6261 0.0 0
M  V30 9 C -0.2602 -3.9162 0.0 0
M  V30 10 C -4.6261 -2.8159 0.0 0
M  V30 11 C -4.2239 -4.2475 0.0 0
M  V30 12 N 0.1419 -5.3479 0.0 0
M  V30 13 N -6.0933 -2.4373 0.0 0
M  V30 14 C -0.911 -6.4127 0.0 0
M  V30 15 C 1.5854 -5.7028 0.0 0
M  V30 16 C -6.5192 -0.982 0.0 0
M  V30 17 C -0.5087 -7.8443 0.0 0
M  V30 18 C 1.9877 -7.1344 0.0 0
M  V30 19 O -5.4898 0.1064 0.0 0
M  V30 20 C -7.9863 -0.6034 0.0 0
M  V30 21 N 0.9347 -8.1993 0.0 0
M  V30 22 C -9.0393 -1.6682 0.0 0
M  V30 23 C -8.4123 0.8518 0.0 0
M  V30 24 C 1.3369 -9.6309 0.0 0
M  V30 25 C -10.5065 -1.2896 0.0 0
M  V30 26 C -9.8794 1.2304 0.0 0
M  V30 27 C -11.5595 -2.3545 0.0 0
M  V30 28 C -10.9324 0.1656 0.0 0
M  V30 29 C -12.6125 -3.4193 0.0 0
M  V30 30 C -12.3995 0.5442 0.0 0
M  V30 31 C -13.6655 -4.4842 0.0 0
M  V30 32 N -13.4171 -5.9513 0.0 0
M  V30 33 C -15.1681 -4.2594 0.0 0
M  V30 34 N -12.1511 -6.7322 0.0 0
M  V30 35 C -14.754 -6.6493 0.0 0
M  V30 36 N -15.8426 -5.5963 0.0 0
M  V30 37 C -12.2221 -8.223 0.0 0
M  V30 38 C -14.825 -8.1401 0.0 0
M  V30 39 C -13.559 -8.921 0.0 0
M  V30 END ATOM
M  V30 BEGIN BOND
M  V30 1 1 1 2
M  V30 2 1 2 3
M  V30 3 1 2 4
M  V30 4 1 2 5
M  V30 5 2 5 6
M  V30 6 1 5 7
M  V30 7 1 6 8
M  V30 8 1 6 9
M  V30 9 2 7 10
M  V30 10 2 8 11
M  V30 11 1 9 12
M  V30 12 1 10 13
M  V30 13 1 12 14
M  V30 14 1 12 15
M  V30 15 1 13 16
M  V30 16 1 14 17
M  V30 17 1 15 18
M  V30 18 2 16 19
M  V30 19 1 16 20
M  V30 20 1 17 21
M  V30 21 2 20 22
M  V30 22 1 20 23
M  V30 23 1 21 24
M  V30 24 1 22 25
M  V30 25 2 23 26
M  V30 26 1 25 27
M  V30 27 2 25 28
M  V30 28 3 27 29
M  V30 29 1 28 30
M  V30 30 1 29 31
M  V30 31 1 31 32
M  V30 32 2 31 33
M  V30 33 1 32 34
M  V30 34 1 32 35
M  V30 35 1 33 36
M  V30 36 2 34 37
M  V30 37 1 35 38
M  V30 38 1 37 39
M  V30 39 1 10 11
M  V30 40 1 18 21
M  V30 41 1 26 28
M  V30 42 2 35 36
M  V30 43 2 38 39
M  V30 END BOND
M  V30 END CTAB
M  END
>  <Compound ID>
196

>  <Name>
Ponatinib

>  <Uniprot>
O43318

>  <Target>
MAP3K7

>  <Smiles>
CC1=CC=C(C(=O)NC2=CC=C(CN3CCN(C)CC3)C(C(F)(F)F)=C2)C=C1C#CC1=CN=C2C=CC=NN12

>  <Kd (nM)>
>30000

>  <Assay (Kd)>
Kd apparent of MAP3K7

>  <Ki (nM)>


>  <Assay (Ki)>


>  <IC50 (nM)>


>  <Assay (IC50)>


>  <EC50 (nM)>


>  <Assay (EC50)>


>  <Article DOI>
10.1126/science.aan4368

>  <Molecular Weight>
532.57

>  <Exact Mass>
532.219844144

>  <XLogP3>
4.11

>  <Heavy Atom Count>
39

>  <Ring Count>
5

>  <Hydrogen Bond Acceptor Count>
6

>  <Hydrogen Bond Donor Count>
1

>  <Rotatable Bond Count>
4

>  <Topological Polar Surface Area>
65.77

>  <Molecular Formula>
C29H27F3N6O

>  <InChI>
InChI=1S/C29H27F3N6O/c1-20-5-6-22(16-21(20)8-10-25-18-33-27-4-3-11-34-38(25)27)28(39)35-24-9-7-23(26(17-24)29(30,31)32)19-37-14-12-36(2)13-15-37/h3-7,9,11,16-18H,12-15,19H2,1-2H3,(H,35,39)

>  <InChI Key>
PHXJVRSECIGDHY-UHFFFAOYSA-N

>  <BindingDB>
50322535

>  <PubChem>
24826799

>  <ChEMBL>
CHEMBL1171837

$$$$
Compound 578
Actelion Java MolfileCreator 2.0

  0  0  0  0  0  0              0 V3000
M  V30 BEGIN CTAB
M  V30 COUNTS 39 43 0 0 0
M  V30 BEGIN ATOM
M  V30 1 F 0.0 0.0 0.0 0
M  V30 2 C -1.053 -1.0648 0.0 0
M  V30 3 F -2.1415 -0.0118 0.0 0
M  V30 4 F 0.0118 -2.0942 0.0 0
M  V30 5 C -2.106 -2.1297 0.0 0
M  V30 6 C -1.7037 -3.5613 0.0 0
M  V30 7 C -3.5731 -1.751 0.0 0
M  V30 8 C -2.7567 -4.6261 0.0 0
M  V30 9 C -0.2602 -3.9162 0.0 0
M  V30 10 C -4.6261 -2.8159 0.0 0
M  V30 11 C -4.2239 -4.2475 0.0 0
M  V30 12 N 0.1419 -5.3479 0.0 0
M  V30 13 N -6.0933 -2.4373 0.0 0
M  V30 14 C -0.911 -6.4127 0.0 0
M  V30 15 C 1.5854 -5.7028 0.0 0
M  V30 16 C -6.5192 -0.982 0.0 0
M  V30 17 C -0.5087 -7.8443 0.0 0
M  V30 18 C 1.9877 -7.1344 0.0 0
M  V30 19 O -5.4898 0.1064 0.0 0
M  V30 20 C -7.9863 -0.6034 0.0 0
M  V30 21 N 0.9347 -8.1993 0.0 0
M  V30 22 C -9.0393 -1.6682 0.0 0
M  V30 23 C -8.4123 0.8518 0.0 0
M  V30 24 C 1.3369 -9.6309 0.0 0
M  V30 25 C -10.5065 -1.2896 0.0 0
M  V30 26 C -9.8794 1.2304 0.0 0
M  V30 27 C -11.5595 -2.3545 0.0 0
M  V30 28 C -10.9324 0.1656 0.0 0
M  V30 29 C -12.6125 -3.4193 0.0 0
M  V30 30 C -12.3995 0.5442 0.0 0
M  V30 31 C -13.6655 -4.4842 0.0 0
M  V30 32 N -13.4171 -5.9513 0.0 0
M  V30 33 C -15.1681 -4.2594 0.0 0
M  V30 34 N -12.1511 -6.7322 0.0 0
M  V30 35 C -14.754 -6.6493 0.0 0
M  V30 36 N -15.8426 -5.5963 0.0 0
M  V30 37 C -12.2221 -8.223 0.0 0
M  V30 38 C -14.825 -8.1401 0.0 0
M  V30 39 C -13.559 -8.921 0.0 0
M  V30 END ATOM
M  V30 BEGIN BOND
M  V30 1 1 1 2
M  V30 2 1 2 3
M  V30 3 1 2 4
M  V30 4 1 2 5
M  V30 5 2 5 6
M  V30 6 1 5 7
M  V30 7 1 6 8
M  V30 8 1 6 9
M  V30 9 2 7 10
M  V30 10 2 8 11
M  V30 11 1 9 12
M  V30 12 1 10 13
M  V30 13 1 12 14
M  V30 14 1 12 15
M  V30 15 1 13 16
M  V30 16 1 14 17
M  V30 17 1 15 18
M  V30 18 2 16 19
M  V30 19 1 16 20
M  V30 20 1 17 21
M  V30 21 2 20 22
M  V30 22 1 20 23
M  V30 23 1 21 24
M  V30 24 1 22 25
M  V30 25 2 23 26
M  V30 26 1 25 27
M  V30 27 2 25 28
M  V30 28 3 27 29
M  V30 29 1 28 30
M  V30 30 1 29 31
M  V30 31 1 31 32
M  V30 32 2 31 33
M  V30 33 1 32 34
M  V30 34 1 32 35
M  V30 35 1 33 36
M  V30 36 2 34 37
M  V30 37 1 35 38
M  V30 38 1 37 39
M  V30 39 1 10 11
M  V30 40 1 18 21
M  V30 41 1 26 28
M  V30 42 2 35 36
M  V30 43 2 38 39
M  V30 END BOND
M  V30 END CTAB
M  END
>  <Compound ID>
196

>  <Name>
Ponatinib

>  <Uniprot>
Q12851

>  <Target>
MAP4K2

>  <Smiles>
CC1=CC=C(C(=O)NC2=CC=C(CN3CCN(C)CC3)C(C(F)(F)F)=C2)C=C1C#CC1=CN=C2C=CC=NN12

>  <Kd (nM)>
41

>  <Assay (Kd)>
Kd apparent of MAP4K2

>  <Ki (nM)>


>  <Assay (Ki)>


>  <IC50 (nM)>


>  <Assay (IC50)>


>  <EC50 (nM)>


>  <Assay (EC50)>


>  <Article DOI>
10.1126/science.aan4368

>  <Molecular Weight>
532.57

>  <Exact Mass>
532.219844144

>  <XLogP3>
4.11

>  <Heavy Atom Count>
39

>  <Ring Count>
5

>  <Hydrogen Bond Acceptor Count>
6

>  <Hydrogen Bond Donor Count>
1

>  <Rotatable Bond Count>
4

>  <Topological Polar Surface Area>
65.77

>  <Molecular Formula>
C29H27F3N6O

>  <InChI>
InChI=1S/C29H27F3N6O/c1-20-5-6-22(16-21(20)8-10-25-18-33-27-4-3-11-34-38(25)27)28(39)35-24-9-7-23(26(17-24)29(30,31)32)19-37-14-12-36(2)13-15-37/h3-7,9,11,16-18H,12-15,19H2,1-2H3,(H,35,39)

>  <InChI Key>
PHXJVRSECIGDHY-UHFFFAOYSA-N

>  <BindingDB>
50322535

>  <PubChem>
24826799

>  <ChEMBL>
CHEMBL1171837

$$$$
Compound 579
Actelion Java MolfileCreator 2.0

  0  0  0  0  0  0              0 V3000
M  V30 BEGIN CTAB
M  V30 COUNTS 39 43 0 0 0
M  V30 BEGIN ATOM
M  V30 1 F 0.0 0.0 0.0 0
M  V30 2 C -1.053 -1.0648 0.0 0
M  V30 3 F -2.1415 -0.0118 0.0 0
M  V30 4 F 0.0118 -2.0942 0.0 0
M  V30 5 C -2.106 -2.1297 0.0 0
M  V30 6 C -1.7037 -3.5613 0.0 0
M  V30 7 C -3.5731 -1.751 0.0 0
M  V30 8 C -2.7567 -4.6261 0.0 0
M  V30 9 C -0.2602 -3.9162 0.0 0
M  V30 10 C -4.6261 -2.8159 0.0 0
M  V30 11 C -4.2239 -4.2475 0.0 0
M  V30 12 N 0.1419 -5.3479 0.0 0
M  V30 13 N -6.0933 -2.4373 0.0 0
M  V30 14 C -0.911 -6.4127 0.0 0
M  V30 15 C 1.5854 -5.7028 0.0 0
M  V30 16 C -6.5192 -0.982 0.0 0
M  V30 17 C -0.5087 -7.8443 0.0 0
M  V30 18 C 1.9877 -7.1344 0.0 0
M  V30 19 O -5.4898 0.1064 0.0 0
M  V30 20 C -7.9863 -0.6034 0.0 0
M  V30 21 N 0.9347 -8.1993 0.0 0
M  V30 22 C -9.0393 -1.6682 0.0 0
M  V30 23 C -8.4123 0.8518 0.0 0
M  V30 24 C 1.3369 -9.6309 0.0 0
M  V30 25 C -10.5065 -1.2896 0.0 0
M  V30 26 C -9.8794 1.2304 0.0 0
M  V30 27 C -11.5595 -2.3545 0.0 0
M  V30 28 C -10.9324 0.1656 0.0 0
M  V30 29 C -12.6125 -3.4193 0.0 0
M  V30 30 C -12.3995 0.5442 0.0 0
M  V30 31 C -13.6655 -4.4842 0.0 0
M  V30 32 N -13.4171 -5.9513 0.0 0
M  V30 33 C -15.1681 -4.2594 0.0 0
M  V30 34 N -12.1511 -6.7322 0.0 0
M  V30 35 C -14.754 -6.6493 0.0 0
M  V30 36 N -15.8426 -5.5963 0.0 0
M  V30 37 C -12.2221 -8.223 0.0 0
M  V30 38 C -14.825 -8.1401 0.0 0
M  V30 39 C -13.559 -8.921 0.0 0
M  V30 END ATOM
M  V30 BEGIN BOND
M  V30 1 1 1 2
M  V30 2 1 2 3
M  V30 3 1 2 4
M  V30 4 1 2 5
M  V30 5 2 5 6
M  V30 6 1 5 7
M  V30 7 1 6 8
M  V30 8 1 6 9
M  V30 9 2 7 10
M  V30 10 2 8 11
M  V30 11 1 9 12
M  V30 12 1 10 13
M  V30 13 1 12 14
M  V30 14 1 12 15
M  V30 15 1 13 16
M  V30 16 1 14 17
M  V30 17 1 15 18
M  V30 18 2 16 19
M  V30 19 1 16 20
M  V30 20 1 17 21
M  V30 21 2 20 22
M  V30 22 1 20 23
M  V30 23 1 21 24
M  V30 24 1 22 25
M  V30 25 2 23 26
M  V30 26 1 25 27
M  V30 27 2 25 28
M  V30 28 3 27 29
M  V30 29 1 28 30
M  V30 30 1 29 31
M  V30 31 1 31 32
M  V30 32 2 31 33
M  V30 33 1 32 34
M  V30 34 1 32 35
M  V30 35 1 33 36
M  V30 36 2 34 37
M  V30 37 1 35 38
M  V30 38 1 37 39
M  V30 39 1 10 11
M  V30 40 1 18 21
M  V30 41 1 26 28
M  V30 42 2 35 36
M  V30 43 2 38 39
M  V30 END BOND
M  V30 END CTAB
M  END
>  <Compound ID>
196

>  <Name>
Ponatinib

>  <Uniprot>
Q9Y4K4

>  <Target>
MAP4K5

>  <Smiles>
CC1=CC=C(C(=O)NC2=CC=C(CN3CCN(C)CC3)C(C(F)(F)F)=C2)C=C1C#CC1=CN=C2C=CC=NN12

>  <Kd (nM)>
>30000

>  <Assay (Kd)>
Kd apparent of MAP4K5

>  <Ki (nM)>


>  <Assay (Ki)>


>  <IC50 (nM)>


>  <Assay (IC50)>


>  <EC50 (nM)>


>  <Assay (EC50)>


>  <Article DOI>
10.1126/science.aan4368

>  <Molecular Weight>
532.57

>  <Exact Mass>
532.219844144

>  <XLogP3>
4.11

>  <Heavy Atom Count>
39

>  <Ring Count>
5

>  <Hydrogen Bond Acceptor Count>
6

>  <Hydrogen Bond Donor Count>
1

>  <Rotatable Bond Count>
4

>  <Topological Polar Surface Area>
65.77

>  <Molecular Formula>
C29H27F3N6O

>  <InChI>
InChI=1S/C29H27F3N6O/c1-20-5-6-22(16-21(20)8-10-25-18-33-27-4-3-11-34-38(25)27)28(39)35-24-9-7-23(26(17-24)29(30,31)32)19-37-14-12-36(2)13-15-37/h3-7,9,11,16-18H,12-15,19H2,1-2H3,(H,35,39)

>  <InChI Key>
PHXJVRSECIGDHY-UHFFFAOYSA-N

>  <BindingDB>
50322535

>  <PubChem>
24826799

>  <ChEMBL>
CHEMBL1171837

$$$$
Compound 580
Actelion Java MolfileCreator 2.0

  0  0  0  0  0  0              0 V3000
M  V30 BEGIN CTAB
M  V30 COUNTS 39 43 0 0 0
M  V30 BEGIN ATOM
M  V30 1 F 0.0 0.0 0.0 0
M  V30 2 C -1.053 -1.0648 0.0 0
M  V30 3 F -2.1415 -0.0118 0.0 0
M  V30 4 F 0.0118 -2.0942 0.0 0
M  V30 5 C -2.106 -2.1297 0.0 0
M  V30 6 C -1.7037 -3.5613 0.0 0
M  V30 7 C -3.5731 -1.751 0.0 0
M  V30 8 C -2.7567 -4.6261 0.0 0
M  V30 9 C -0.2602 -3.9162 0.0 0
M  V30 10 C -4.6261 -2.8159 0.0 0
M  V30 11 C -4.2239 -4.2475 0.0 0
M  V30 12 N 0.1419 -5.3479 0.0 0
M  V30 13 N -6.0933 -2.4373 0.0 0
M  V30 14 C -0.911 -6.4127 0.0 0
M  V30 15 C 1.5854 -5.7028 0.0 0
M  V30 16 C -6.5192 -0.982 0.0 0
M  V30 17 C -0.5087 -7.8443 0.0 0
M  V30 18 C 1.9877 -7.1344 0.0 0
M  V30 19 O -5.4898 0.1064 0.0 0
M  V30 20 C -7.9863 -0.6034 0.0 0
M  V30 21 N 0.9347 -8.1993 0.0 0
M  V30 22 C -9.0393 -1.6682 0.0 0
M  V30 23 C -8.4123 0.8518 0.0 0
M  V30 24 C 1.3369 -9.6309 0.0 0
M  V30 25 C -10.5065 -1.2896 0.0 0
M  V30 26 C -9.8794 1.2304 0.0 0
M  V30 27 C -11.5595 -2.3545 0.0 0
M  V30 28 C -10.9324 0.1656 0.0 0
M  V30 29 C -12.6125 -3.4193 0.0 0
M  V30 30 C -12.3995 0.5442 0.0 0
M  V30 31 C -13.6655 -4.4842 0.0 0
M  V30 32 N -13.4171 -5.9513 0.0 0
M  V30 33 C -15.1681 -4.2594 0.0 0
M  V30 34 N -12.1511 -6.7322 0.0 0
M  V30 35 C -14.754 -6.6493 0.0 0
M  V30 36 N -15.8426 -5.5963 0.0 0
M  V30 37 C -12.2221 -8.223 0.0 0
M  V30 38 C -14.825 -8.1401 0.0 0
M  V30 39 C -13.559 -8.921 0.0 0
M  V30 END ATOM
M  V30 BEGIN BOND
M  V30 1 1 1 2
M  V30 2 1 2 3
M  V30 3 1 2 4
M  V30 4 1 2 5
M  V30 5 2 5 6
M  V30 6 1 5 7
M  V30 7 1 6 8
M  V30 8 1 6 9
M  V30 9 2 7 10
M  V30 10 2 8 11
M  V30 11 1 9 12
M  V30 12 1 10 13
M  V30 13 1 12 14
M  V30 14 1 12 15
M  V30 15 1 13 16
M  V30 16 1 14 17
M  V30 17 1 15 18
M  V30 18 2 16 19
M  V30 19 1 16 20
M  V30 20 1 17 21
M  V30 21 2 20 22
M  V30 22 1 20 23
M  V30 23 1 21 24
M  V30 24 1 22 25
M  V30 25 2 23 26
M  V30 26 1 25 27
M  V30 27 2 25 28
M  V30 28 3 27 29
M  V30 29 1 28 30
M  V30 30 1 29 31
M  V30 31 1 31 32
M  V30 32 2 31 33
M  V30 33 1 32 34
M  V30 34 1 32 35
M  V30 35 1 33 36
M  V30 36 2 34 37
M  V30 37 1 35 38
M  V30 38 1 37 39
M  V30 39 1 10 11
M  V30 40 1 18 21
M  V30 41 1 26 28
M  V30 42 2 35 36
M  V30 43 2 38 39
M  V30 END BOND
M  V30 END CTAB
M  END
>  <Compound ID>
196

>  <Name>
Ponatinib

>  <Uniprot>
O60307

>  <Target>
MAST3

>  <Smiles>
CC1=CC=C(C(=O)NC2=CC=C(CN3CCN(C)CC3)C(C(F)(F)F)=C2)C=C1C#CC1=CN=C2C=CC=NN12

>  <Kd (nM)>


>  <Assay (Kd)>


>  <Ki (nM)>


>  <Assay (Ki)>


>  <IC50 (nM)>


>  <Assay (IC50)>


>  <EC50 (nM)>


>  <Assay (EC50)>


>  <Article DOI>
10.1016/j.cell.2020.10.038

>  <Molecular Weight>
532.57

>  <Exact Mass>
532.219844144

>  <XLogP3>
4.11

>  <Heavy Atom Count>
39

>  <Ring Count>
5

>  <Hydrogen Bond Acceptor Count>
6

>  <Hydrogen Bond Donor Count>
1

>  <Rotatable Bond Count>
4

>  <Topological Polar Surface Area>
65.77

>  <Molecular Formula>
C29H27F3N6O

>  <InChI>
InChI=1S/C29H27F3N6O/c1-20-5-6-22(16-21(20)8-10-25-18-33-27-4-3-11-34-38(25)27)28(39)35-24-9-7-23(26(17-24)29(30,31)32)19-37-14-12-36(2)13-15-37/h3-7,9,11,16-18H,12-15,19H2,1-2H3,(H,35,39)

>  <InChI Key>
PHXJVRSECIGDHY-UHFFFAOYSA-N

>  <BindingDB>
50322535

>  <PubChem>
24826799

>  <ChEMBL>
CHEMBL1171837

$$$$
Compound 581
Actelion Java MolfileCreator 2.0

  0  0  0  0  0  0              0 V3000
M  V30 BEGIN CTAB
M  V30 COUNTS 39 43 0 0 0
M  V30 BEGIN ATOM
M  V30 1 F 0.0 0.0 0.0 0
M  V30 2 C -1.053 -1.0648 0.0 0
M  V30 3 F -2.1415 -0.0118 0.0 0
M  V30 4 F 0.0118 -2.0942 0.0 0
M  V30 5 C -2.106 -2.1297 0.0 0
M  V30 6 C -1.7037 -3.5613 0.0 0
M  V30 7 C -3.5731 -1.751 0.0 0
M  V30 8 C -2.7567 -4.6261 0.0 0
M  V30 9 C -0.2602 -3.9162 0.0 0
M  V30 10 C -4.6261 -2.8159 0.0 0
M  V30 11 C -4.2239 -4.2475 0.0 0
M  V30 12 N 0.1419 -5.3479 0.0 0
M  V30 13 N -6.0933 -2.4373 0.0 0
M  V30 14 C -0.911 -6.4127 0.0 0
M  V30 15 C 1.5854 -5.7028 0.0 0
M  V30 16 C -6.5192 -0.982 0.0 0
M  V30 17 C -0.5087 -7.8443 0.0 0
M  V30 18 C 1.9877 -7.1344 0.0 0
M  V30 19 O -5.4898 0.1064 0.0 0
M  V30 20 C -7.9863 -0.6034 0.0 0
M  V30 21 N 0.9347 -8.1993 0.0 0
M  V30 22 C -9.0393 -1.6682 0.0 0
M  V30 23 C -8.4123 0.8518 0.0 0
M  V30 24 C 1.3369 -9.6309 0.0 0
M  V30 25 C -10.5065 -1.2896 0.0 0
M  V30 26 C -9.8794 1.2304 0.0 0
M  V30 27 C -11.5595 -2.3545 0.0 0
M  V30 28 C -10.9324 0.1656 0.0 0
M  V30 29 C -12.6125 -3.4193 0.0 0
M  V30 30 C -12.3995 0.5442 0.0 0
M  V30 31 C -13.6655 -4.4842 0.0 0
M  V30 32 N -13.4171 -5.9513 0.0 0
M  V30 33 C -15.1681 -4.2594 0.0 0
M  V30 34 N -12.1511 -6.7322 0.0 0
M  V30 35 C -14.754 -6.6493 0.0 0
M  V30 36 N -15.8426 -5.5963 0.0 0
M  V30 37 C -12.2221 -8.223 0.0 0
M  V30 38 C -14.825 -8.1401 0.0 0
M  V30 39 C -13.559 -8.921 0.0 0
M  V30 END ATOM
M  V30 BEGIN BOND
M  V30 1 1 1 2
M  V30 2 1 2 3
M  V30 3 1 2 4
M  V30 4 1 2 5
M  V30 5 2 5 6
M  V30 6 1 5 7
M  V30 7 1 6 8
M  V30 8 1 6 9
M  V30 9 2 7 10
M  V30 10 2 8 11
M  V30 11 1 9 12
M  V30 12 1 10 13
M  V30 13 1 12 14
M  V30 14 1 12 15
M  V30 15 1 13 16
M  V30 16 1 14 17
M  V30 17 1 15 18
M  V30 18 2 16 19
M  V30 19 1 16 20
M  V30 20 1 17 21
M  V30 21 2 20 22
M  V30 22 1 20 23
M  V30 23 1 21 24
M  V30 24 1 22 25
M  V30 25 2 23 26
M  V30 26 1 25 27
M  V30 27 2 25 28
M  V30 28 3 27 29
M  V30 29 1 28 30
M  V30 30 1 29 31
M  V30 31 1 31 32
M  V30 32 2 31 33
M  V30 33 1 32 34
M  V30 34 1 32 35
M  V30 35 1 33 36
M  V30 36 2 34 37
M  V30 37 1 35 38
M  V30 38 1 37 39
M  V30 39 1 10 11
M  V30 40 1 18 21
M  V30 41 1 26 28
M  V30 42 2 35 36
M  V30 43 2 38 39
M  V30 END BOND
M  V30 END CTAB
M  END
>  <Compound ID>
196

>  <Name>
Ponatinib

>  <Uniprot>
Q16539

>  <Target>
p38alpha

>  <Smiles>
CC1=CC=C(C(=O)NC2=CC=C(CN3CCN(C)CC3)C(C(F)(F)F)=C2)C=C1C#CC1=CN=C2C=CC=NN12

>  <Kd (nM)>


>  <Assay (Kd)>


>  <Ki (nM)>


>  <Assay (Ki)>


>  <IC50 (nM)>


>  <Assay (IC50)>


>  <EC50 (nM)>


>  <Assay (EC50)>


>  <Article DOI>
10.1016/j.cell.2020.10.038

>  <Molecular Weight>
532.57

>  <Exact Mass>
532.219844144

>  <XLogP3>
4.11

>  <Heavy Atom Count>
39

>  <Ring Count>
5

>  <Hydrogen Bond Acceptor Count>
6

>  <Hydrogen Bond Donor Count>
1

>  <Rotatable Bond Count>
4

>  <Topological Polar Surface Area>
65.77

>  <Molecular Formula>
C29H27F3N6O

>  <InChI>
InChI=1S/C29H27F3N6O/c1-20-5-6-22(16-21(20)8-10-25-18-33-27-4-3-11-34-38(25)27)28(39)35-24-9-7-23(26(17-24)29(30,31)32)19-37-14-12-36(2)13-15-37/h3-7,9,11,16-18H,12-15,19H2,1-2H3,(H,35,39)

>  <InChI Key>
PHXJVRSECIGDHY-UHFFFAOYSA-N

>  <BindingDB>
50322535

>  <PubChem>
24826799

>  <ChEMBL>
CHEMBL1171837

$$$$
Compound 582
Actelion Java MolfileCreator 2.0

  0  0  0  0  0  0              0 V3000
M  V30 BEGIN CTAB
M  V30 COUNTS 39 43 0 0 0
M  V30 BEGIN ATOM
M  V30 1 F 0.0 0.0 0.0 0
M  V30 2 C -1.053 -1.0648 0.0 0
M  V30 3 F -2.1415 -0.0118 0.0 0
M  V30 4 F 0.0118 -2.0942 0.0 0
M  V30 5 C -2.106 -2.1297 0.0 0
M  V30 6 C -1.7037 -3.5613 0.0 0
M  V30 7 C -3.5731 -1.751 0.0 0
M  V30 8 C -2.7567 -4.6261 0.0 0
M  V30 9 C -0.2602 -3.9162 0.0 0
M  V30 10 C -4.6261 -2.8159 0.0 0
M  V30 11 C -4.2239 -4.2475 0.0 0
M  V30 12 N 0.1419 -5.3479 0.0 0
M  V30 13 N -6.0933 -2.4373 0.0 0
M  V30 14 C -0.911 -6.4127 0.0 0
M  V30 15 C 1.5854 -5.7028 0.0 0
M  V30 16 C -6.5192 -0.982 0.0 0
M  V30 17 C -0.5087 -7.8443 0.0 0
M  V30 18 C 1.9877 -7.1344 0.0 0
M  V30 19 O -5.4898 0.1064 0.0 0
M  V30 20 C -7.9863 -0.6034 0.0 0
M  V30 21 N 0.9347 -8.1993 0.0 0
M  V30 22 C -9.0393 -1.6682 0.0 0
M  V30 23 C -8.4123 0.8518 0.0 0
M  V30 24 C 1.3369 -9.6309 0.0 0
M  V30 25 C -10.5065 -1.2896 0.0 0
M  V30 26 C -9.8794 1.2304 0.0 0
M  V30 27 C -11.5595 -2.3545 0.0 0
M  V30 28 C -10.9324 0.1656 0.0 0
M  V30 29 C -12.6125 -3.4193 0.0 0
M  V30 30 C -12.3995 0.5442 0.0 0
M  V30 31 C -13.6655 -4.4842 0.0 0
M  V30 32 N -13.4171 -5.9513 0.0 0
M  V30 33 C -15.1681 -4.2594 0.0 0
M  V30 34 N -12.1511 -6.7322 0.0 0
M  V30 35 C -14.754 -6.6493 0.0 0
M  V30 36 N -15.8426 -5.5963 0.0 0
M  V30 37 C -12.2221 -8.223 0.0 0
M  V30 38 C -14.825 -8.1401 0.0 0
M  V30 39 C -13.559 -8.921 0.0 0
M  V30 END ATOM
M  V30 BEGIN BOND
M  V30 1 1 1 2
M  V30 2 1 2 3
M  V30 3 1 2 4
M  V30 4 1 2 5
M  V30 5 2 5 6
M  V30 6 1 5 7
M  V30 7 1 6 8
M  V30 8 1 6 9
M  V30 9 2 7 10
M  V30 10 2 8 11
M  V30 11 1 9 12
M  V30 12 1 10 13
M  V30 13 1 12 14
M  V30 14 1 12 15
M  V30 15 1 13 16
M  V30 16 1 14 17
M  V30 17 1 15 18
M  V30 18 2 16 19
M  V30 19 1 16 20
M  V30 20 1 17 21
M  V30 21 2 20 22
M  V30 22 1 20 23
M  V30 23 1 21 24
M  V30 24 1 22 25
M  V30 25 2 23 26
M  V30 26 1 25 27
M  V30 27 2 25 28
M  V30 28 3 27 29
M  V30 29 1 28 30
M  V30 30 1 29 31
M  V30 31 1 31 32
M  V30 32 2 31 33
M  V30 33 1 32 34
M  V30 34 1 32 35
M  V30 35 1 33 36
M  V30 36 2 34 37
M  V30 37 1 35 38
M  V30 38 1 37 39
M  V30 39 1 10 11
M  V30 40 1 18 21
M  V30 41 1 26 28
M  V30 42 2 35 36
M  V30 43 2 38 39
M  V30 END BOND
M  V30 END CTAB
M  END
>  <Compound ID>
196

>  <Name>
Ponatinib

>  <Uniprot>
Q15118

>  <Target>
PDK1

>  <Smiles>
CC1=CC=C(C(=O)NC2=CC=C(CN3CCN(C)CC3)C(C(F)(F)F)=C2)C=C1C#CC1=CN=C2C=CC=NN12

>  <Kd (nM)>


>  <Assay (Kd)>


>  <Ki (nM)>


>  <Assay (Ki)>


>  <IC50 (nM)>


>  <Assay (IC50)>


>  <EC50 (nM)>


>  <Assay (EC50)>


>  <Article DOI>
10.1016/j.cell.2020.10.038

>  <Molecular Weight>
532.57

>  <Exact Mass>
532.219844144

>  <XLogP3>
4.11

>  <Heavy Atom Count>
39

>  <Ring Count>
5

>  <Hydrogen Bond Acceptor Count>
6

>  <Hydrogen Bond Donor Count>
1

>  <Rotatable Bond Count>
4

>  <Topological Polar Surface Area>
65.77

>  <Molecular Formula>
C29H27F3N6O

>  <InChI>
InChI=1S/C29H27F3N6O/c1-20-5-6-22(16-21(20)8-10-25-18-33-27-4-3-11-34-38(25)27)28(39)35-24-9-7-23(26(17-24)29(30,31)32)19-37-14-12-36(2)13-15-37/h3-7,9,11,16-18H,12-15,19H2,1-2H3,(H,35,39)

>  <InChI Key>
PHXJVRSECIGDHY-UHFFFAOYSA-N

>  <BindingDB>
50322535

>  <PubChem>
24826799

>  <ChEMBL>
CHEMBL1171837

$$$$
Compound 583
Actelion Java MolfileCreator 2.0

  0  0  0  0  0  0              0 V3000
M  V30 BEGIN CTAB
M  V30 COUNTS 39 43 0 0 0
M  V30 BEGIN ATOM
M  V30 1 F 0.0 0.0 0.0 0
M  V30 2 C -1.053 -1.0648 0.0 0
M  V30 3 F -2.1415 -0.0118 0.0 0
M  V30 4 F 0.0118 -2.0942 0.0 0
M  V30 5 C -2.106 -2.1297 0.0 0
M  V30 6 C -1.7037 -3.5613 0.0 0
M  V30 7 C -3.5731 -1.751 0.0 0
M  V30 8 C -2.7567 -4.6261 0.0 0
M  V30 9 C -0.2602 -3.9162 0.0 0
M  V30 10 C -4.6261 -2.8159 0.0 0
M  V30 11 C -4.2239 -4.2475 0.0 0
M  V30 12 N 0.1419 -5.3479 0.0 0
M  V30 13 N -6.0933 -2.4373 0.0 0
M  V30 14 C -0.911 -6.4127 0.0 0
M  V30 15 C 1.5854 -5.7028 0.0 0
M  V30 16 C -6.5192 -0.982 0.0 0
M  V30 17 C -0.5087 -7.8443 0.0 0
M  V30 18 C 1.9877 -7.1344 0.0 0
M  V30 19 O -5.4898 0.1064 0.0 0
M  V30 20 C -7.9863 -0.6034 0.0 0
M  V30 21 N 0.9347 -8.1993 0.0 0
M  V30 22 C -9.0393 -1.6682 0.0 0
M  V30 23 C -8.4123 0.8518 0.0 0
M  V30 24 C 1.3369 -9.6309 0.0 0
M  V30 25 C -10.5065 -1.2896 0.0 0
M  V30 26 C -9.8794 1.2304 0.0 0
M  V30 27 C -11.5595 -2.3545 0.0 0
M  V30 28 C -10.9324 0.1656 0.0 0
M  V30 29 C -12.6125 -3.4193 0.0 0
M  V30 30 C -12.3995 0.5442 0.0 0
M  V30 31 C -13.6655 -4.4842 0.0 0
M  V30 32 N -13.4171 -5.9513 0.0 0
M  V30 33 C -15.1681 -4.2594 0.0 0
M  V30 34 N -12.1511 -6.7322 0.0 0
M  V30 35 C -14.754 -6.6493 0.0 0
M  V30 36 N -15.8426 -5.5963 0.0 0
M  V30 37 C -12.2221 -8.223 0.0 0
M  V30 38 C -14.825 -8.1401 0.0 0
M  V30 39 C -13.559 -8.921 0.0 0
M  V30 END ATOM
M  V30 BEGIN BOND
M  V30 1 1 1 2
M  V30 2 1 2 3
M  V30 3 1 2 4
M  V30 4 1 2 5
M  V30 5 2 5 6
M  V30 6 1 5 7
M  V30 7 1 6 8
M  V30 8 1 6 9
M  V30 9 2 7 10
M  V30 10 2 8 11
M  V30 11 1 9 12
M  V30 12 1 10 13
M  V30 13 1 12 14
M  V30 14 1 12 15
M  V30 15 1 13 16
M  V30 16 1 14 17
M  V30 17 1 15 18
M  V30 18 2 16 19
M  V30 19 1 16 20
M  V30 20 1 17 21
M  V30 21 2 20 22
M  V30 22 1 20 23
M  V30 23 1 21 24
M  V30 24 1 22 25
M  V30 25 2 23 26
M  V30 26 1 25 27
M  V30 27 2 25 28
M  V30 28 3 27 29
M  V30 29 1 28 30
M  V30 30 1 29 31
M  V30 31 1 31 32
M  V30 32 2 31 33
M  V30 33 1 32 34
M  V30 34 1 32 35
M  V30 35 1 33 36
M  V30 36 2 34 37
M  V30 37 1 35 38
M  V30 38 1 37 39
M  V30 39 1 10 11
M  V30 40 1 18 21
M  V30 41 1 26 28
M  V30 42 2 35 36
M  V30 43 2 38 39
M  V30 END BOND
M  V30 END CTAB
M  END
>  <Compound ID>
196

>  <Name>
Ponatinib

>  <Uniprot>
Q15119

>  <Target>
PDK2

>  <Smiles>
CC1=CC=C(C(=O)NC2=CC=C(CN3CCN(C)CC3)C(C(F)(F)F)=C2)C=C1C#CC1=CN=C2C=CC=NN12

>  <Kd (nM)>


>  <Assay (Kd)>


>  <Ki (nM)>


>  <Assay (Ki)>


>  <IC50 (nM)>


>  <Assay (IC50)>


>  <EC50 (nM)>


>  <Assay (EC50)>


>  <Article DOI>
10.1016/j.cell.2020.10.038

>  <Molecular Weight>
532.57

>  <Exact Mass>
532.219844144

>  <XLogP3>
4.11

>  <Heavy Atom Count>
39

>  <Ring Count>
5

>  <Hydrogen Bond Acceptor Count>
6

>  <Hydrogen Bond Donor Count>
1

>  <Rotatable Bond Count>
4

>  <Topological Polar Surface Area>
65.77

>  <Molecular Formula>
C29H27F3N6O

>  <InChI>
InChI=1S/C29H27F3N6O/c1-20-5-6-22(16-21(20)8-10-25-18-33-27-4-3-11-34-38(25)27)28(39)35-24-9-7-23(26(17-24)29(30,31)32)19-37-14-12-36(2)13-15-37/h3-7,9,11,16-18H,12-15,19H2,1-2H3,(H,35,39)

>  <InChI Key>
PHXJVRSECIGDHY-UHFFFAOYSA-N

>  <BindingDB>
50322535

>  <PubChem>
24826799

>  <ChEMBL>
CHEMBL1171837

$$$$
Compound 584
Actelion Java MolfileCreator 2.0

  0  0  0  0  0  0              0 V3000
M  V30 BEGIN CTAB
M  V30 COUNTS 39 43 0 0 0
M  V30 BEGIN ATOM
M  V30 1 F 0.0 0.0 0.0 0
M  V30 2 C -1.053 -1.0648 0.0 0
M  V30 3 F -2.1415 -0.0118 0.0 0
M  V30 4 F 0.0118 -2.0942 0.0 0
M  V30 5 C -2.106 -2.1297 0.0 0
M  V30 6 C -1.7037 -3.5613 0.0 0
M  V30 7 C -3.5731 -1.751 0.0 0
M  V30 8 C -2.7567 -4.6261 0.0 0
M  V30 9 C -0.2602 -3.9162 0.0 0
M  V30 10 C -4.6261 -2.8159 0.0 0
M  V30 11 C -4.2239 -4.2475 0.0 0
M  V30 12 N 0.1419 -5.3479 0.0 0
M  V30 13 N -6.0933 -2.4373 0.0 0
M  V30 14 C -0.911 -6.4127 0.0 0
M  V30 15 C 1.5854 -5.7028 0.0 0
M  V30 16 C -6.5192 -0.982 0.0 0
M  V30 17 C -0.5087 -7.8443 0.0 0
M  V30 18 C 1.9877 -7.1344 0.0 0
M  V30 19 O -5.4898 0.1064 0.0 0
M  V30 20 C -7.9863 -0.6034 0.0 0
M  V30 21 N 0.9347 -8.1993 0.0 0
M  V30 22 C -9.0393 -1.6682 0.0 0
M  V30 23 C -8.4123 0.8518 0.0 0
M  V30 24 C 1.3369 -9.6309 0.0 0
M  V30 25 C -10.5065 -1.2896 0.0 0
M  V30 26 C -9.8794 1.2304 0.0 0
M  V30 27 C -11.5595 -2.3545 0.0 0
M  V30 28 C -10.9324 0.1656 0.0 0
M  V30 29 C -12.6125 -3.4193 0.0 0
M  V30 30 C -12.3995 0.5442 0.0 0
M  V30 31 C -13.6655 -4.4842 0.0 0
M  V30 32 N -13.4171 -5.9513 0.0 0
M  V30 33 C -15.1681 -4.2594 0.0 0
M  V30 34 N -12.1511 -6.7322 0.0 0
M  V30 35 C -14.754 -6.6493 0.0 0
M  V30 36 N -15.8426 -5.5963 0.0 0
M  V30 37 C -12.2221 -8.223 0.0 0
M  V30 38 C -14.825 -8.1401 0.0 0
M  V30 39 C -13.559 -8.921 0.0 0
M  V30 END ATOM
M  V30 BEGIN BOND
M  V30 1 1 1 2
M  V30 2 1 2 3
M  V30 3 1 2 4
M  V30 4 1 2 5
M  V30 5 2 5 6
M  V30 6 1 5 7
M  V30 7 1 6 8
M  V30 8 1 6 9
M  V30 9 2 7 10
M  V30 10 2 8 11
M  V30 11 1 9 12
M  V30 12 1 10 13
M  V30 13 1 12 14
M  V30 14 1 12 15
M  V30 15 1 13 16
M  V30 16 1 14 17
M  V30 17 1 15 18
M  V30 18 2 16 19
M  V30 19 1 16 20
M  V30 20 1 17 21
M  V30 21 2 20 22
M  V30 22 1 20 23
M  V30 23 1 21 24
M  V30 24 1 22 25
M  V30 25 2 23 26
M  V30 26 1 25 27
M  V30 27 2 25 28
M  V30 28 3 27 29
M  V30 29 1 28 30
M  V30 30 1 29 31
M  V30 31 1 31 32
M  V30 32 2 31 33
M  V30 33 1 32 34
M  V30 34 1 32 35
M  V30 35 1 33 36
M  V30 36 2 34 37
M  V30 37 1 35 38
M  V30 38 1 37 39
M  V30 39 1 10 11
M  V30 40 1 18 21
M  V30 41 1 26 28
M  V30 42 2 35 36
M  V30 43 2 38 39
M  V30 END BOND
M  V30 END CTAB
M  END
>  <Compound ID>
196

>  <Name>
Ponatinib

>  <Uniprot>
Q15120

>  <Target>
PDK3

>  <Smiles>
CC1=CC=C(C(=O)NC2=CC=C(CN3CCN(C)CC3)C(C(F)(F)F)=C2)C=C1C#CC1=CN=C2C=CC=NN12

>  <Kd (nM)>


>  <Assay (Kd)>


>  <Ki (nM)>


>  <Assay (Ki)>


>  <IC50 (nM)>


>  <Assay (IC50)>


>  <EC50 (nM)>


>  <Assay (EC50)>


>  <Article DOI>
10.1016/j.cell.2020.10.038

>  <Molecular Weight>
532.57

>  <Exact Mass>
532.219844144

>  <XLogP3>
4.11

>  <Heavy Atom Count>
39

>  <Ring Count>
5

>  <Hydrogen Bond Acceptor Count>
6

>  <Hydrogen Bond Donor Count>
1

>  <Rotatable Bond Count>
4

>  <Topological Polar Surface Area>
65.77

>  <Molecular Formula>
C29H27F3N6O

>  <InChI>
InChI=1S/C29H27F3N6O/c1-20-5-6-22(16-21(20)8-10-25-18-33-27-4-3-11-34-38(25)27)28(39)35-24-9-7-23(26(17-24)29(30,31)32)19-37-14-12-36(2)13-15-37/h3-7,9,11,16-18H,12-15,19H2,1-2H3,(H,35,39)

>  <InChI Key>
PHXJVRSECIGDHY-UHFFFAOYSA-N

>  <BindingDB>
50322535

>  <PubChem>
24826799

>  <ChEMBL>
CHEMBL1171837

$$$$
Compound 585
Actelion Java MolfileCreator 2.0

  0  0  0  0  0  0              0 V3000
M  V30 BEGIN CTAB
M  V30 COUNTS 39 43 0 0 0
M  V30 BEGIN ATOM
M  V30 1 F 0.0 0.0 0.0 0
M  V30 2 C -1.053 -1.0648 0.0 0
M  V30 3 F -2.1415 -0.0118 0.0 0
M  V30 4 F 0.0118 -2.0942 0.0 0
M  V30 5 C -2.106 -2.1297 0.0 0
M  V30 6 C -1.7037 -3.5613 0.0 0
M  V30 7 C -3.5731 -1.751 0.0 0
M  V30 8 C -2.7567 -4.6261 0.0 0
M  V30 9 C -0.2602 -3.9162 0.0 0
M  V30 10 C -4.6261 -2.8159 0.0 0
M  V30 11 C -4.2239 -4.2475 0.0 0
M  V30 12 N 0.1419 -5.3479 0.0 0
M  V30 13 N -6.0933 -2.4373 0.0 0
M  V30 14 C -0.911 -6.4127 0.0 0
M  V30 15 C 1.5854 -5.7028 0.0 0
M  V30 16 C -6.5192 -0.982 0.0 0
M  V30 17 C -0.5087 -7.8443 0.0 0
M  V30 18 C 1.9877 -7.1344 0.0 0
M  V30 19 O -5.4898 0.1064 0.0 0
M  V30 20 C -7.9863 -0.6034 0.0 0
M  V30 21 N 0.9347 -8.1993 0.0 0
M  V30 22 C -9.0393 -1.6682 0.0 0
M  V30 23 C -8.4123 0.8518 0.0 0
M  V30 24 C 1.3369 -9.6309 0.0 0
M  V30 25 C -10.5065 -1.2896 0.0 0
M  V30 26 C -9.8794 1.2304 0.0 0
M  V30 27 C -11.5595 -2.3545 0.0 0
M  V30 28 C -10.9324 0.1656 0.0 0
M  V30 29 C -12.6125 -3.4193 0.0 0
M  V30 30 C -12.3995 0.5442 0.0 0
M  V30 31 C -13.6655 -4.4842 0.0 0
M  V30 32 N -13.4171 -5.9513 0.0 0
M  V30 33 C -15.1681 -4.2594 0.0 0
M  V30 34 N -12.1511 -6.7322 0.0 0
M  V30 35 C -14.754 -6.6493 0.0 0
M  V30 36 N -15.8426 -5.5963 0.0 0
M  V30 37 C -12.2221 -8.223 0.0 0
M  V30 38 C -14.825 -8.1401 0.0 0
M  V30 39 C -13.559 -8.921 0.0 0
M  V30 END ATOM
M  V30 BEGIN BOND
M  V30 1 1 1 2
M  V30 2 1 2 3
M  V30 3 1 2 4
M  V30 4 1 2 5
M  V30 5 2 5 6
M  V30 6 1 5 7
M  V30 7 1 6 8
M  V30 8 1 6 9
M  V30 9 2 7 10
M  V30 10 2 8 11
M  V30 11 1 9 12
M  V30 12 1 10 13
M  V30 13 1 12 14
M  V30 14 1 12 15
M  V30 15 1 13 16
M  V30 16 1 14 17
M  V30 17 1 15 18
M  V30 18 2 16 19
M  V30 19 1 16 20
M  V30 20 1 17 21
M  V30 21 2 20 22
M  V30 22 1 20 23
M  V30 23 1 21 24
M  V30 24 1 22 25
M  V30 25 2 23 26
M  V30 26 1 25 27
M  V30 27 2 25 28
M  V30 28 3 27 29
M  V30 29 1 28 30
M  V30 30 1 29 31
M  V30 31 1 31 32
M  V30 32 2 31 33
M  V30 33 1 32 34
M  V30 34 1 32 35
M  V30 35 1 33 36
M  V30 36 2 34 37
M  V30 37 1 35 38
M  V30 38 1 37 39
M  V30 39 1 10 11
M  V30 40 1 18 21
M  V30 41 1 26 28
M  V30 42 2 35 36
M  V30 43 2 38 39
M  V30 END BOND
M  V30 END CTAB
M  END
>  <Compound ID>
196

>  <Name>
Ponatinib

>  <Uniprot>
Q13546

>  <Target>
RIPK1

>  <Smiles>
CC1=CC=C(C(=O)NC2=CC=C(CN3CCN(C)CC3)C(C(F)(F)F)=C2)C=C1C#CC1=CN=C2C=CC=NN12

>  <Kd (nM)>


>  <Assay (Kd)>


>  <Ki (nM)>


>  <Assay (Ki)>


>  <IC50 (nM)>
12

>  <Assay (IC50)>
Inhibition of recombinant GST-tagged RIPK1 expressed in baculovirus infected Sf9 insect cells incubated for 4 hrs by ADP-Glo assay

>  <EC50 (nM)>


>  <Assay (EC50)>


>  <Article DOI>
10.1021/acs.jmedchem.9b01317

>  <Molecular Weight>
532.57

>  <Exact Mass>
532.219844144

>  <XLogP3>
4.11

>  <Heavy Atom Count>
39

>  <Ring Count>
5

>  <Hydrogen Bond Acceptor Count>
6

>  <Hydrogen Bond Donor Count>
1

>  <Rotatable Bond Count>
4

>  <Topological Polar Surface Area>
65.77

>  <Molecular Formula>
C29H27F3N6O

>  <InChI>
InChI=1S/C29H27F3N6O/c1-20-5-6-22(16-21(20)8-10-25-18-33-27-4-3-11-34-38(25)27)28(39)35-24-9-7-23(26(17-24)29(30,31)32)19-37-14-12-36(2)13-15-37/h3-7,9,11,16-18H,12-15,19H2,1-2H3,(H,35,39)

>  <InChI Key>
PHXJVRSECIGDHY-UHFFFAOYSA-N

>  <BindingDB>
50322535

>  <PubChem>
24826799

>  <ChEMBL>
CHEMBL1171837

$$$$
Compound 586
Actelion Java MolfileCreator 2.0

  0  0  0  0  0  0              0 V3000
M  V30 BEGIN CTAB
M  V30 COUNTS 39 43 0 0 0
M  V30 BEGIN ATOM
M  V30 1 F 0.0 0.0 0.0 0
M  V30 2 C -1.053 -1.0648 0.0 0
M  V30 3 F -2.1415 -0.0118 0.0 0
M  V30 4 F 0.0118 -2.0942 0.0 0
M  V30 5 C -2.106 -2.1297 0.0 0
M  V30 6 C -1.7037 -3.5613 0.0 0
M  V30 7 C -3.5731 -1.751 0.0 0
M  V30 8 C -2.7567 -4.6261 0.0 0
M  V30 9 C -0.2602 -3.9162 0.0 0
M  V30 10 C -4.6261 -2.8159 0.0 0
M  V30 11 C -4.2239 -4.2475 0.0 0
M  V30 12 N 0.1419 -5.3479 0.0 0
M  V30 13 N -6.0933 -2.4373 0.0 0
M  V30 14 C -0.911 -6.4127 0.0 0
M  V30 15 C 1.5854 -5.7028 0.0 0
M  V30 16 C -6.5192 -0.982 0.0 0
M  V30 17 C -0.5087 -7.8443 0.0 0
M  V30 18 C 1.9877 -7.1344 0.0 0
M  V30 19 O -5.4898 0.1064 0.0 0
M  V30 20 C -7.9863 -0.6034 0.0 0
M  V30 21 N 0.9347 -8.1993 0.0 0
M  V30 22 C -9.0393 -1.6682 0.0 0
M  V30 23 C -8.4123 0.8518 0.0 0
M  V30 24 C 1.3369 -9.6309 0.0 0
M  V30 25 C -10.5065 -1.2896 0.0 0
M  V30 26 C -9.8794 1.2304 0.0 0
M  V30 27 C -11.5595 -2.3545 0.0 0
M  V30 28 C -10.9324 0.1656 0.0 0
M  V30 29 C -12.6125 -3.4193 0.0 0
M  V30 30 C -12.3995 0.5442 0.0 0
M  V30 31 C -13.6655 -4.4842 0.0 0
M  V30 32 N -13.4171 -5.9513 0.0 0
M  V30 33 C -15.1681 -4.2594 0.0 0
M  V30 34 N -12.1511 -6.7322 0.0 0
M  V30 35 C -14.754 -6.6493 0.0 0
M  V30 36 N -15.8426 -5.5963 0.0 0
M  V30 37 C -12.2221 -8.223 0.0 0
M  V30 38 C -14.825 -8.1401 0.0 0
M  V30 39 C -13.559 -8.921 0.0 0
M  V30 END ATOM
M  V30 BEGIN BOND
M  V30 1 1 1 2
M  V30 2 1 2 3
M  V30 3 1 2 4
M  V30 4 1 2 5
M  V30 5 2 5 6
M  V30 6 1 5 7
M  V30 7 1 6 8
M  V30 8 1 6 9
M  V30 9 2 7 10
M  V30 10 2 8 11
M  V30 11 1 9 12
M  V30 12 1 10 13
M  V30 13 1 12 14
M  V30 14 1 12 15
M  V30 15 1 13 16
M  V30 16 1 14 17
M  V30 17 1 15 18
M  V30 18 2 16 19
M  V30 19 1 16 20
M  V30 20 1 17 21
M  V30 21 2 20 22
M  V30 22 1 20 23
M  V30 23 1 21 24
M  V30 24 1 22 25
M  V30 25 2 23 26
M  V30 26 1 25 27
M  V30 27 2 25 28
M  V30 28 3 27 29
M  V30 29 1 28 30
M  V30 30 1 29 31
M  V30 31 1 31 32
M  V30 32 2 31 33
M  V30 33 1 32 34
M  V30 34 1 32 35
M  V30 35 1 33 36
M  V30 36 2 34 37
M  V30 37 1 35 38
M  V30 38 1 37 39
M  V30 39 1 10 11
M  V30 40 1 18 21
M  V30 41 1 26 28
M  V30 42 2 35 36
M  V30 43 2 38 39
M  V30 END BOND
M  V30 END CTAB
M  END
>  <Compound ID>
196

>  <Name>
Ponatinib

>  <Uniprot>
O43353

>  <Target>
RIPK2

>  <Smiles>
CC1=CC=C(C(=O)NC2=CC=C(CN3CCN(C)CC3)C(C(F)(F)F)=C2)C=C1C#CC1=CN=C2C=CC=NN12

>  <Kd (nM)>
83

>  <Assay (Kd)>
Kd apparent of RIPK2

>  <Ki (nM)>


>  <Assay (Ki)>


>  <IC50 (nM)>


>  <Assay (IC50)>


>  <EC50 (nM)>


>  <Assay (EC50)>


>  <Article DOI>
10.1126/science.aan4368

>  <Molecular Weight>
532.57

>  <Exact Mass>
532.219844144

>  <XLogP3>
4.11

>  <Heavy Atom Count>
39

>  <Ring Count>
5

>  <Hydrogen Bond Acceptor Count>
6

>  <Hydrogen Bond Donor Count>
1

>  <Rotatable Bond Count>
4

>  <Topological Polar Surface Area>
65.77

>  <Molecular Formula>
C29H27F3N6O

>  <InChI>
InChI=1S/C29H27F3N6O/c1-20-5-6-22(16-21(20)8-10-25-18-33-27-4-3-11-34-38(25)27)28(39)35-24-9-7-23(26(17-24)29(30,31)32)19-37-14-12-36(2)13-15-37/h3-7,9,11,16-18H,12-15,19H2,1-2H3,(H,35,39)

>  <InChI Key>
PHXJVRSECIGDHY-UHFFFAOYSA-N

>  <BindingDB>
50322535

>  <PubChem>
24826799

>  <ChEMBL>
CHEMBL1171837

$$$$
Compound 587
Actelion Java MolfileCreator 2.0

  0  0  0  0  0  0              0 V3000
M  V30 BEGIN CTAB
M  V30 COUNTS 39 43 0 0 0
M  V30 BEGIN ATOM
M  V30 1 F 0.0 0.0 0.0 0
M  V30 2 C -1.053 -1.0648 0.0 0
M  V30 3 F -2.1415 -0.0118 0.0 0
M  V30 4 F 0.0118 -2.0942 0.0 0
M  V30 5 C -2.106 -2.1297 0.0 0
M  V30 6 C -1.7037 -3.5613 0.0 0
M  V30 7 C -3.5731 -1.751 0.0 0
M  V30 8 C -2.7567 -4.6261 0.0 0
M  V30 9 C -0.2602 -3.9162 0.0 0
M  V30 10 C -4.6261 -2.8159 0.0 0
M  V30 11 C -4.2239 -4.2475 0.0 0
M  V30 12 N 0.1419 -5.3479 0.0 0
M  V30 13 N -6.0933 -2.4373 0.0 0
M  V30 14 C -0.911 -6.4127 0.0 0
M  V30 15 C 1.5854 -5.7028 0.0 0
M  V30 16 C -6.5192 -0.982 0.0 0
M  V30 17 C -0.5087 -7.8443 0.0 0
M  V30 18 C 1.9877 -7.1344 0.0 0
M  V30 19 O -5.4898 0.1064 0.0 0
M  V30 20 C -7.9863 -0.6034 0.0 0
M  V30 21 N 0.9347 -8.1993 0.0 0
M  V30 22 C -9.0393 -1.6682 0.0 0
M  V30 23 C -8.4123 0.8518 0.0 0
M  V30 24 C 1.3369 -9.6309 0.0 0
M  V30 25 C -10.5065 -1.2896 0.0 0
M  V30 26 C -9.8794 1.2304 0.0 0
M  V30 27 C -11.5595 -2.3545 0.0 0
M  V30 28 C -10.9324 0.1656 0.0 0
M  V30 29 C -12.6125 -3.4193 0.0 0
M  V30 30 C -12.3995 0.5442 0.0 0
M  V30 31 C -13.6655 -4.4842 0.0 0
M  V30 32 N -13.4171 -5.9513 0.0 0
M  V30 33 C -15.1681 -4.2594 0.0 0
M  V30 34 N -12.1511 -6.7322 0.0 0
M  V30 35 C -14.754 -6.6493 0.0 0
M  V30 36 N -15.8426 -5.5963 0.0 0
M  V30 37 C -12.2221 -8.223 0.0 0
M  V30 38 C -14.825 -8.1401 0.0 0
M  V30 39 C -13.559 -8.921 0.0 0
M  V30 END ATOM
M  V30 BEGIN BOND
M  V30 1 1 1 2
M  V30 2 1 2 3
M  V30 3 1 2 4
M  V30 4 1 2 5
M  V30 5 2 5 6
M  V30 6 1 5 7
M  V30 7 1 6 8
M  V30 8 1 6 9
M  V30 9 2 7 10
M  V30 10 2 8 11
M  V30 11 1 9 12
M  V30 12 1 10 13
M  V30 13 1 12 14
M  V30 14 1 12 15
M  V30 15 1 13 16
M  V30 16 1 14 17
M  V30 17 1 15 18
M  V30 18 2 16 19
M  V30 19 1 16 20
M  V30 20 1 17 21
M  V30 21 2 20 22
M  V30 22 1 20 23
M  V30 23 1 21 24
M  V30 24 1 22 25
M  V30 25 2 23 26
M  V30 26 1 25 27
M  V30 27 2 25 28
M  V30 28 3 27 29
M  V30 29 1 28 30
M  V30 30 1 29 31
M  V30 31 1 31 32
M  V30 32 2 31 33
M  V30 33 1 32 34
M  V30 34 1 32 35
M  V30 35 1 33 36
M  V30 36 2 34 37
M  V30 37 1 35 38
M  V30 38 1 37 39
M  V30 39 1 10 11
M  V30 40 1 18 21
M  V30 41 1 26 28
M  V30 42 2 35 36
M  V30 43 2 38 39
M  V30 END BOND
M  V30 END CTAB
M  END
>  <Compound ID>
196

>  <Name>
Ponatinib

>  <Uniprot>
P12931

>  <Target>
Src

>  <Smiles>
CC1=CC=C(C(=O)NC2=CC=C(CN3CCN(C)CC3)C(C(F)(F)F)=C2)C=C1C#CC1=CN=C2C=CC=NN12

>  <Kd (nM)>
367

>  <Assay (Kd)>
Kd apparent of Src

>  <Ki (nM)>


>  <Assay (Ki)>


>  <IC50 (nM)>


>  <Assay (IC50)>


>  <EC50 (nM)>


>  <Assay (EC50)>


>  <Article DOI>
10.1126/science.aan4368

>  <Molecular Weight>
532.57

>  <Exact Mass>
532.219844144

>  <XLogP3>
4.11

>  <Heavy Atom Count>
39

>  <Ring Count>
5

>  <Hydrogen Bond Acceptor Count>
6

>  <Hydrogen Bond Donor Count>
1

>  <Rotatable Bond Count>
4

>  <Topological Polar Surface Area>
65.77

>  <Molecular Formula>
C29H27F3N6O

>  <InChI>
InChI=1S/C29H27F3N6O/c1-20-5-6-22(16-21(20)8-10-25-18-33-27-4-3-11-34-38(25)27)28(39)35-24-9-7-23(26(17-24)29(30,31)32)19-37-14-12-36(2)13-15-37/h3-7,9,11,16-18H,12-15,19H2,1-2H3,(H,35,39)

>  <InChI Key>
PHXJVRSECIGDHY-UHFFFAOYSA-N

>  <BindingDB>
50322535

>  <PubChem>
24826799

>  <ChEMBL>
CHEMBL1171837

$$$$
Compound 588
Actelion Java MolfileCreator 2.0

  0  0  0  0  0  0              0 V3000
M  V30 BEGIN CTAB
M  V30 COUNTS 39 43 0 0 0
M  V30 BEGIN ATOM
M  V30 1 F 0.0 0.0 0.0 0
M  V30 2 C -1.053 -1.0648 0.0 0
M  V30 3 F -2.1415 -0.0118 0.0 0
M  V30 4 F 0.0118 -2.0942 0.0 0
M  V30 5 C -2.106 -2.1297 0.0 0
M  V30 6 C -1.7037 -3.5613 0.0 0
M  V30 7 C -3.5731 -1.751 0.0 0
M  V30 8 C -2.7567 -4.6261 0.0 0
M  V30 9 C -0.2602 -3.9162 0.0 0
M  V30 10 C -4.6261 -2.8159 0.0 0
M  V30 11 C -4.2239 -4.2475 0.0 0
M  V30 12 N 0.1419 -5.3479 0.0 0
M  V30 13 N -6.0933 -2.4373 0.0 0
M  V30 14 C -0.911 -6.4127 0.0 0
M  V30 15 C 1.5854 -5.7028 0.0 0
M  V30 16 C -6.5192 -0.982 0.0 0
M  V30 17 C -0.5087 -7.8443 0.0 0
M  V30 18 C 1.9877 -7.1344 0.0 0
M  V30 19 O -5.4898 0.1064 0.0 0
M  V30 20 C -7.9863 -0.6034 0.0 0
M  V30 21 N 0.9347 -8.1993 0.0 0
M  V30 22 C -9.0393 -1.6682 0.0 0
M  V30 23 C -8.4123 0.8518 0.0 0
M  V30 24 C 1.3369 -9.6309 0.0 0
M  V30 25 C -10.5065 -1.2896 0.0 0
M  V30 26 C -9.8794 1.2304 0.0 0
M  V30 27 C -11.5595 -2.3545 0.0 0
M  V30 28 C -10.9324 0.1656 0.0 0
M  V30 29 C -12.6125 -3.4193 0.0 0
M  V30 30 C -12.3995 0.5442 0.0 0
M  V30 31 C -13.6655 -4.4842 0.0 0
M  V30 32 N -13.4171 -5.9513 0.0 0
M  V30 33 C -15.1681 -4.2594 0.0 0
M  V30 34 N -12.1511 -6.7322 0.0 0
M  V30 35 C -14.754 -6.6493 0.0 0
M  V30 36 N -15.8426 -5.5963 0.0 0
M  V30 37 C -12.2221 -8.223 0.0 0
M  V30 38 C -14.825 -8.1401 0.0 0
M  V30 39 C -13.559 -8.921 0.0 0
M  V30 END ATOM
M  V30 BEGIN BOND
M  V30 1 1 1 2
M  V30 2 1 2 3
M  V30 3 1 2 4
M  V30 4 1 2 5
M  V30 5 2 5 6
M  V30 6 1 5 7
M  V30 7 1 6 8
M  V30 8 1 6 9
M  V30 9 2 7 10
M  V30 10 2 8 11
M  V30 11 1 9 12
M  V30 12 1 10 13
M  V30 13 1 12 14
M  V30 14 1 12 15
M  V30 15 1 13 16
M  V30 16 1 14 17
M  V30 17 1 15 18
M  V30 18 2 16 19
M  V30 19 1 16 20
M  V30 20 1 17 21
M  V30 21 2 20 22
M  V30 22 1 20 23
M  V30 23 1 21 24
M  V30 24 1 22 25
M  V30 25 2 23 26
M  V30 26 1 25 27
M  V30 27 2 25 28
M  V30 28 3 27 29
M  V30 29 1 28 30
M  V30 30 1 29 31
M  V30 31 1 31 32
M  V30 32 2 31 33
M  V30 33 1 32 34
M  V30 34 1 32 35
M  V30 35 1 33 36
M  V30 36 2 34 37
M  V30 37 1 35 38
M  V30 38 1 37 39
M  V30 39 1 10 11
M  V30 40 1 18 21
M  V30 41 1 26 28
M  V30 42 2 35 36
M  V30 43 2 38 39
M  V30 END BOND
M  V30 END CTAB
M  END
>  <Compound ID>
196

>  <Name>
Ponatinib

>  <Uniprot>
O94804

>  <Target>
STK10

>  <Smiles>
CC1=CC=C(C(=O)NC2=CC=C(CN3CCN(C)CC3)C(C(F)(F)F)=C2)C=C1C#CC1=CN=C2C=CC=NN12

>  <Kd (nM)>


>  <Assay (Kd)>


>  <Ki (nM)>


>  <Assay (Ki)>


>  <IC50 (nM)>


>  <Assay (IC50)>


>  <EC50 (nM)>


>  <Assay (EC50)>


>  <Article DOI>
10.1016/j.cell.2020.10.038

>  <Molecular Weight>
532.57

>  <Exact Mass>
532.219844144

>  <XLogP3>
4.11

>  <Heavy Atom Count>
39

>  <Ring Count>
5

>  <Hydrogen Bond Acceptor Count>
6

>  <Hydrogen Bond Donor Count>
1

>  <Rotatable Bond Count>
4

>  <Topological Polar Surface Area>
65.77

>  <Molecular Formula>
C29H27F3N6O

>  <InChI>
InChI=1S/C29H27F3N6O/c1-20-5-6-22(16-21(20)8-10-25-18-33-27-4-3-11-34-38(25)27)28(39)35-24-9-7-23(26(17-24)29(30,31)32)19-37-14-12-36(2)13-15-37/h3-7,9,11,16-18H,12-15,19H2,1-2H3,(H,35,39)

>  <InChI Key>
PHXJVRSECIGDHY-UHFFFAOYSA-N

>  <BindingDB>
50322535

>  <PubChem>
24826799

>  <ChEMBL>
CHEMBL1171837

$$$$
Compound 589
Actelion Java MolfileCreator 2.0

  0  0  0  0  0  0              0 V3000
M  V30 BEGIN CTAB
M  V30 COUNTS 39 43 0 0 0
M  V30 BEGIN ATOM
M  V30 1 F 0.0 0.0 0.0 0
M  V30 2 C -1.053 -1.0648 0.0 0
M  V30 3 F -2.1415 -0.0118 0.0 0
M  V30 4 F 0.0118 -2.0942 0.0 0
M  V30 5 C -2.106 -2.1297 0.0 0
M  V30 6 C -1.7037 -3.5613 0.0 0
M  V30 7 C -3.5731 -1.751 0.0 0
M  V30 8 C -2.7567 -4.6261 0.0 0
M  V30 9 C -0.2602 -3.9162 0.0 0
M  V30 10 C -4.6261 -2.8159 0.0 0
M  V30 11 C -4.2239 -4.2475 0.0 0
M  V30 12 N 0.1419 -5.3479 0.0 0
M  V30 13 N -6.0933 -2.4373 0.0 0
M  V30 14 C -0.911 -6.4127 0.0 0
M  V30 15 C 1.5854 -5.7028 0.0 0
M  V30 16 C -6.5192 -0.982 0.0 0
M  V30 17 C -0.5087 -7.8443 0.0 0
M  V30 18 C 1.9877 -7.1344 0.0 0
M  V30 19 O -5.4898 0.1064 0.0 0
M  V30 20 C -7.9863 -0.6034 0.0 0
M  V30 21 N 0.9347 -8.1993 0.0 0
M  V30 22 C -9.0393 -1.6682 0.0 0
M  V30 23 C -8.4123 0.8518 0.0 0
M  V30 24 C 1.3369 -9.6309 0.0 0
M  V30 25 C -10.5065 -1.2896 0.0 0
M  V30 26 C -9.8794 1.2304 0.0 0
M  V30 27 C -11.5595 -2.3545 0.0 0
M  V30 28 C -10.9324 0.1656 0.0 0
M  V30 29 C -12.6125 -3.4193 0.0 0
M  V30 30 C -12.3995 0.5442 0.0 0
M  V30 31 C -13.6655 -4.4842 0.0 0
M  V30 32 N -13.4171 -5.9513 0.0 0
M  V30 33 C -15.1681 -4.2594 0.0 0
M  V30 34 N -12.1511 -6.7322 0.0 0
M  V30 35 C -14.754 -6.6493 0.0 0
M  V30 36 N -15.8426 -5.5963 0.0 0
M  V30 37 C -12.2221 -8.223 0.0 0
M  V30 38 C -14.825 -8.1401 0.0 0
M  V30 39 C -13.559 -8.921 0.0 0
M  V30 END ATOM
M  V30 BEGIN BOND
M  V30 1 1 1 2
M  V30 2 1 2 3
M  V30 3 1 2 4
M  V30 4 1 2 5
M  V30 5 2 5 6
M  V30 6 1 5 7
M  V30 7 1 6 8
M  V30 8 1 6 9
M  V30 9 2 7 10
M  V30 10 2 8 11
M  V30 11 1 9 12
M  V30 12 1 10 13
M  V30 13 1 12 14
M  V30 14 1 12 15
M  V30 15 1 13 16
M  V30 16 1 14 17
M  V30 17 1 15 18
M  V30 18 2 16 19
M  V30 19 1 16 20
M  V30 20 1 17 21
M  V30 21 2 20 22
M  V30 22 1 20 23
M  V30 23 1 21 24
M  V30 24 1 22 25
M  V30 25 2 23 26
M  V30 26 1 25 27
M  V30 27 2 25 28
M  V30 28 3 27 29
M  V30 29 1 28 30
M  V30 30 1 29 31
M  V30 31 1 31 32
M  V30 32 2 31 33
M  V30 33 1 32 34
M  V30 34 1 32 35
M  V30 35 1 33 36
M  V30 36 2 34 37
M  V30 37 1 35 38
M  V30 38 1 37 39
M  V30 39 1 10 11
M  V30 40 1 18 21
M  V30 41 1 26 28
M  V30 42 2 35 36
M  V30 43 2 38 39
M  V30 END BOND
M  V30 END CTAB
M  END
>  <Compound ID>
196

>  <Name>
Ponatinib

>  <Uniprot>
Q9H2K8

>  <Target>
TAOK3

>  <Smiles>
CC1=CC=C(C(=O)NC2=CC=C(CN3CCN(C)CC3)C(C(F)(F)F)=C2)C=C1C#CC1=CN=C2C=CC=NN12

>  <Kd (nM)>


>  <Assay (Kd)>


>  <Ki (nM)>


>  <Assay (Ki)>


>  <IC50 (nM)>


>  <Assay (IC50)>


>  <EC50 (nM)>


>  <Assay (EC50)>


>  <Article DOI>
10.1016/j.cell.2020.10.038

>  <Molecular Weight>
532.57

>  <Exact Mass>
532.219844144

>  <XLogP3>
4.11

>  <Heavy Atom Count>
39

>  <Ring Count>
5

>  <Hydrogen Bond Acceptor Count>
6

>  <Hydrogen Bond Donor Count>
1

>  <Rotatable Bond Count>
4

>  <Topological Polar Surface Area>
65.77

>  <Molecular Formula>
C29H27F3N6O

>  <InChI>
InChI=1S/C29H27F3N6O/c1-20-5-6-22(16-21(20)8-10-25-18-33-27-4-3-11-34-38(25)27)28(39)35-24-9-7-23(26(17-24)29(30,31)32)19-37-14-12-36(2)13-15-37/h3-7,9,11,16-18H,12-15,19H2,1-2H3,(H,35,39)

>  <InChI Key>
PHXJVRSECIGDHY-UHFFFAOYSA-N

>  <BindingDB>
50322535

>  <PubChem>
24826799

>  <ChEMBL>
CHEMBL1171837

$$$$
Compound 590
Actelion Java MolfileCreator 2.0

  0  0  0  0  0  0              0 V3000
M  V30 BEGIN CTAB
M  V30 COUNTS 39 43 0 0 0
M  V30 BEGIN ATOM
M  V30 1 F 0.0 0.0 0.0 0
M  V30 2 C -1.053 -1.0648 0.0 0
M  V30 3 F -2.1415 -0.0118 0.0 0
M  V30 4 F 0.0118 -2.0942 0.0 0
M  V30 5 C -2.106 -2.1297 0.0 0
M  V30 6 C -1.7037 -3.5613 0.0 0
M  V30 7 C -3.5731 -1.751 0.0 0
M  V30 8 C -2.7567 -4.6261 0.0 0
M  V30 9 C -0.2602 -3.9162 0.0 0
M  V30 10 C -4.6261 -2.8159 0.0 0
M  V30 11 C -4.2239 -4.2475 0.0 0
M  V30 12 N 0.1419 -5.3479 0.0 0
M  V30 13 N -6.0933 -2.4373 0.0 0
M  V30 14 C -0.911 -6.4127 0.0 0
M  V30 15 C 1.5854 -5.7028 0.0 0
M  V30 16 C -6.5192 -0.982 0.0 0
M  V30 17 C -0.5087 -7.8443 0.0 0
M  V30 18 C 1.9877 -7.1344 0.0 0
M  V30 19 O -5.4898 0.1064 0.0 0
M  V30 20 C -7.9863 -0.6034 0.0 0
M  V30 21 N 0.9347 -8.1993 0.0 0
M  V30 22 C -9.0393 -1.6682 0.0 0
M  V30 23 C -8.4123 0.8518 0.0 0
M  V30 24 C 1.3369 -9.6309 0.0 0
M  V30 25 C -10.5065 -1.2896 0.0 0
M  V30 26 C -9.8794 1.2304 0.0 0
M  V30 27 C -11.5595 -2.3545 0.0 0
M  V30 28 C -10.9324 0.1656 0.0 0
M  V30 29 C -12.6125 -3.4193 0.0 0
M  V30 30 C -12.3995 0.5442 0.0 0
M  V30 31 C -13.6655 -4.4842 0.0 0
M  V30 32 N -13.4171 -5.9513 0.0 0
M  V30 33 C -15.1681 -4.2594 0.0 0
M  V30 34 N -12.1511 -6.7322 0.0 0
M  V30 35 C -14.754 -6.6493 0.0 0
M  V30 36 N -15.8426 -5.5963 0.0 0
M  V30 37 C -12.2221 -8.223 0.0 0
M  V30 38 C -14.825 -8.1401 0.0 0
M  V30 39 C -13.559 -8.921 0.0 0
M  V30 END ATOM
M  V30 BEGIN BOND
M  V30 1 1 1 2
M  V30 2 1 2 3
M  V30 3 1 2 4
M  V30 4 1 2 5
M  V30 5 2 5 6
M  V30 6 1 5 7
M  V30 7 1 6 8
M  V30 8 1 6 9
M  V30 9 2 7 10
M  V30 10 2 8 11
M  V30 11 1 9 12
M  V30 12 1 10 13
M  V30 13 1 12 14
M  V30 14 1 12 15
M  V30 15 1 13 16
M  V30 16 1 14 17
M  V30 17 1 15 18
M  V30 18 2 16 19
M  V30 19 1 16 20
M  V30 20 1 17 21
M  V30 21 2 20 22
M  V30 22 1 20 23
M  V30 23 1 21 24
M  V30 24 1 22 25
M  V30 25 2 23 26
M  V30 26 1 25 27
M  V30 27 2 25 28
M  V30 28 3 27 29
M  V30 29 1 28 30
M  V30 30 1 29 31
M  V30 31 1 31 32
M  V30 32 2 31 33
M  V30 33 1 32 34
M  V30 34 1 32 35
M  V30 35 1 33 36
M  V30 36 2 34 37
M  V30 37 1 35 38
M  V30 38 1 37 39
M  V30 39 1 10 11
M  V30 40 1 18 21
M  V30 41 1 26 28
M  V30 42 2 35 36
M  V30 43 2 38 39
M  V30 END BOND
M  V30 END CTAB
M  END
>  <Compound ID>
196

>  <Name>
Ponatinib

>  <Uniprot>
P07947

>  <Target>
YES1

>  <Smiles>
CC1=CC=C(C(=O)NC2=CC=C(CN3CCN(C)CC3)C(C(F)(F)F)=C2)C=C1C#CC1=CN=C2C=CC=NN12

>  <Kd (nM)>


>  <Assay (Kd)>


>  <Ki (nM)>


>  <Assay (Ki)>


>  <IC50 (nM)>


>  <Assay (IC50)>


>  <EC50 (nM)>


>  <Assay (EC50)>


>  <Article DOI>
10.1016/j.cell.2020.10.038

>  <Molecular Weight>
532.57

>  <Exact Mass>
532.219844144

>  <XLogP3>
4.11

>  <Heavy Atom Count>
39

>  <Ring Count>
5

>  <Hydrogen Bond Acceptor Count>
6

>  <Hydrogen Bond Donor Count>
1

>  <Rotatable Bond Count>
4

>  <Topological Polar Surface Area>
65.77

>  <Molecular Formula>
C29H27F3N6O

>  <InChI>
InChI=1S/C29H27F3N6O/c1-20-5-6-22(16-21(20)8-10-25-18-33-27-4-3-11-34-38(25)27)28(39)35-24-9-7-23(26(17-24)29(30,31)32)19-37-14-12-36(2)13-15-37/h3-7,9,11,16-18H,12-15,19H2,1-2H3,(H,35,39)

>  <InChI Key>
PHXJVRSECIGDHY-UHFFFAOYSA-N

>  <BindingDB>
50322535

>  <PubChem>
24826799

>  <ChEMBL>
CHEMBL1171837

$$$$
Compound 591
Actelion Java MolfileCreator 2.0

  0  0  0  0  0  0              0 V3000
M  V30 BEGIN CTAB
M  V30 COUNTS 35 38 0 0 0
M  V30 BEGIN ATOM
M  V30 1 S 0.0 0.0 0.0 0
M  V30 2 C 0.6839 1.3443 0.0 0
M  V30 3 C 1.0377 -1.0613 0.0 0
M  V30 4 N 2.1463 1.0967 0.0 0
M  V30 5 N 0.0117 2.7005 0.0 0
M  V30 6 C 2.3703 -0.3891 0.0 0
M  V30 7 C 0.7665 -2.5236 0.0 0
M  V30 8 C -1.4976 2.8185 0.0 0
M  V30 9 C 1.9104 -3.4789 0.0 0
M  V30 10 N -2.1698 4.1746 0.0 0
M  V30 11 C -2.3467 1.5802 0.0 0
M  V30 12 C 1.6392 -4.9412 0.0 0
M  V30 13 C -3.6793 4.2926 0.0 0
M  V30 14 C -3.8562 1.6981 0.0 0
M  V30 15 C 2.7831 -5.8964 0.0 0
M  V30 16 C 0.224 -5.4483 0.0 0
M  V30 17 N -4.5284 3.0543 0.0 0
M  V30 18 C -4.3515 5.6488 0.0 0
M  V30 19 N -4.7053 0.4599 0.0 0
M  V30 20 C 2.5118 -7.3587 0.0 0
M  V30 21 C -0.0471 -6.9106 0.0 0
M  V30 22 C -6.2148 0.5778 0.0 0
M  V30 23 C -4.0567 -0.8726 0.0 0
M  V30 24 C 1.0967 -7.8658 0.0 0
M  V30 25 C 3.6558 -8.314 0.0 0
M  V30 26 C -7.0639 -0.6604 0.0 0
M  V30 27 C -4.9058 -2.1109 0.0 0
M  V30 28 N -6.4153 -1.993 0.0 0
M  V30 29 C -7.2644 -3.2312 0.0 0
M  V30 30 O -6.6158 -4.5638 0.0 0
M  V30 31 C -8.7739 -3.1133 0.0 0
M  V30 32 C -9.623 -4.3515 0.0 0
M  V30 33 C -11.1325 -4.2336 0.0 0
M  V30 34 C -11.9815 -5.4719 0.0 0
M  V30 35 C -12.8306 -6.7101 0.0 0
M  V30 END ATOM
M  V30 BEGIN BOND
M  V30 1 1 1 2
M  V30 2 1 1 3
M  V30 3 2 2 4
M  V30 4 1 2 5
M  V30 5 2 3 6
M  V30 6 1 3 7
M  V30 7 1 5 8
M  V30 8 2 7 9
M  V30 9 2 8 10
M  V30 10 1 8 11
M  V30 11 1 9 12
M  V30 12 1 10 13
M  V30 13 2 11 14
M  V30 14 2 12 15
M  V30 15 1 12 16
M  V30 16 2 13 17
M  V30 17 1 13 18
M  V30 18 1 14 19
M  V30 19 1 15 20
M  V30 20 2 16 21
M  V30 21 1 19 22
M  V30 22 1 19 23
M  V30 23 2 20 24
M  V30 24 1 20 25
M  V30 25 1 22 26
M  V30 26 1 23 27
M  V30 27 1 26 28
M  V30 28 1 28 29
M  V30 29 2 29 30
M  V30 30 1 29 31
M  V30 31 1 31 32
M  V30 32 1 32 33
M  V30 33 1 33 34
M  V30 34 3 34 35
M  V30 35 1 4 6
M  V30 36 1 14 17
M  V30 37 1 21 24
M  V30 38 1 27 28
M  V30 END BOND
M  V30 END CTAB
M  END
>  <Compound ID>
197

>  <Name>


>  <Uniprot>


>  <Target>
BCR-ABL T315I

>  <Smiles>
C#CCCCC(=O)N1CCN(C2=CC(NC3=NC=C(/C=C/C4=CC=CC(C)=C4)S3)=NC(C)=N2)CC1

>  <Kd (nM)>


>  <Assay (Kd)>


>  <Ki (nM)>


>  <Assay (Ki)>


>  <IC50 (nM)>


>  <Assay (IC50)>


>  <EC50 (nM)>
450

>  <Assay (EC50)>
Inhibit viability of BaF3 BCR-ABL(T315I) cells

>  <Article DOI>
10.1021/acs.jmedchem.0c00967

>  <Molecular Weight>
486.645

>  <Exact Mass>
486.22018058

>  <XLogP3>
5.11

>  <Heavy Atom Count>
35

>  <Ring Count>
4

>  <Hydrogen Bond Acceptor Count>
7

>  <Hydrogen Bond Donor Count>
1

>  <Rotatable Bond Count>
8

>  <Topological Polar Surface Area>
74.25

>  <Molecular Formula>
C27H30N6OS

>  <InChI>
InChI=1S/C27H30N6OS/c1-4-5-6-10-26(34)33-15-13-32(14-16-33)25-18-24(29-21(3)30-25)31-27-28-19-23(35-27)12-11-22-9-7-8-20(2)17-22/h1,7-9,11-12,17-19H,5-6,10,13-16H2,2-3H3,(H,28,29,30,31)/b12-11+

>  <InChI Key>
DGCBTTMLYPMYQE-VAWYXSNFSA-N

>  <BindingDB>


>  <PubChem>


>  <ChEMBL>


$$$$
Compound 592
Actelion Java MolfileCreator 2.0

  0  0  0  0  0  0              0 V3000
M  V30 BEGIN CTAB
M  V30 COUNTS 30 32 0 0 0
M  V30 BEGIN ATOM
M  V30 1 Br 0.0 0.0 0.0 0
M  V30 2 C -0.8033 -1.264 0.0 0
M  V30 3 C -2.3154 -1.2049 0.0 0
M  V30 4 C -0.1063 -2.5753 0.0 0
M  V30 5 O -3.036 0.1299 0.0 0
M  V30 6 N -3.1187 -2.469 0.0 0
M  V30 7 O 1.3821 -2.6107 0.0 0
M  V30 8 C -0.9096 -3.8393 0.0 0
M  V30 9 C -4.6308 -2.4099 0.0 0
M  V30 10 C -2.4217 -3.7803 0.0 0
M  V30 11 C 2.0791 -3.922 0.0 0
M  V30 12 C -5.3514 -1.075 0.0 0
M  V30 13 C -5.4341 -3.6739 0.0 0
M  V30 14 C -3.225 -5.0443 0.0 0
M  V30 15 C 3.5676 -3.9575 0.0 0
M  V30 16 C -6.8636 -1.0159 0.0 0
M  V30 17 C -4.5718 0.2126 0.0 0
M  V30 18 C -6.9463 -3.6149 0.0 0
M  V30 19 C 4.3473 -2.6698 0.0 0
M  V30 20 C 4.2646 -5.2688 0.0 0
M  V30 21 C -7.6669 -2.2799 0.0 0
M  V30 22 C -7.7496 -4.8789 0.0 0
M  V30 23 F 3.6267 -1.3349 0.0 0
M  V30 24 C 5.8358 -2.7052 0.0 0
M  V30 25 C 5.7531 -5.3042 0.0 0
M  V30 26 O -7.0526 -6.1902 0.0 0
M  V30 27 N -9.2617 -4.8198 0.0 0
M  V30 28 C 6.5328 -4.0165 0.0 0
M  V30 29 C -10.065 -6.0839 0.0 0
M  V30 30 F 8.0213 -4.052 0.0 0
M  V30 END ATOM
M  V30 BEGIN BOND
M  V30 1 1 1 2
M  V30 2 1 2 3
M  V30 3 2 2 4
M  V30 4 2 3 5
M  V30 5 1 3 6
M  V30 6 1 4 7
M  V30 7 1 4 8
M  V30 8 1 6 9
M  V30 9 1 6 10
M  V30 10 1 7 11
M  V30 11 2 9 12
M  V30 12 1 9 13
M  V30 13 1 10 14
M  V30 14 1 11 15
M  V30 15 1 12 16
M  V30 16 1 12 17
M  V30 17 2 13 18
M  V30 18 2 15 19
M  V30 19 1 15 20
M  V30 20 2 16 21
M  V30 21 1 18 22
M  V30 22 1 19 23
M  V30 23 1 19 24
M  V30 24 2 20 25
M  V30 25 2 22 26
M  V30 26 1 22 27
M  V30 27 2 24 28
M  V30 28 1 27 29
M  V30 29 1 28 30
M  V30 30 2 8 10
M  V30 31 1 18 21
M  V30 32 1 25 28
M  V30 END BOND
M  V30 END CTAB
M  END
>  <Compound ID>
198

>  <Name>
PH-797804

>  <Uniprot>
Q16539

>  <Target>
p38alpha

>  <Smiles>
CNC(=O)C1=CC=C(C)C(N2C(C)=CC(OCC3=CC=C(F)C=C3F)=C(Br)C2=O)=C1

>  <Kd (nM)>


>  <Assay (Kd)>


>  <Ki (nM)>
5.8

>  <Assay (Ki)>
Ki of p38alpha

>  <IC50 (nM)>


>  <Assay (IC50)>


>  <EC50 (nM)>


>  <Assay (EC50)>


>  <Article DOI>
10.1021/bi900655f

>  <Molecular Weight>
477.305

>  <Exact Mass>
476.054711008

>  <XLogP3>
4.25

>  <Heavy Atom Count>
30

>  <Ring Count>
3

>  <Hydrogen Bond Acceptor Count>
4

>  <Hydrogen Bond Donor Count>
1

>  <Rotatable Bond Count>
5

>  <Topological Polar Surface Area>
60.33

>  <Molecular Formula>
C22H19BrF2N2O3

>  <InChI>
InChI=1S/C22H19BrF2N2O3/c1-12-4-5-14(21(28)26-3)9-18(12)27-13(2)8-19(20(23)22(27)29)30-11-15-6-7-16(24)10-17(15)25/h4-10H,11H2,1-3H3,(H,26,28)

>  <InChI Key>
KCAJXIDMCNPGHZ-UHFFFAOYSA-N

>  <BindingDB>
50314073

>  <PubChem>
22049997

>  <ChEMBL>
CHEMBL1088751

$$$$
Compound 593
Actelion Java MolfileCreator 2.0

  0  0  0  0  0  0              0 V3000
M  V30 BEGIN CTAB
M  V30 COUNTS 30 32 0 0 0
M  V30 BEGIN ATOM
M  V30 1 Br 0.0 0.0 0.0 0
M  V30 2 C -0.8033 -1.264 0.0 0
M  V30 3 C -2.3154 -1.2049 0.0 0
M  V30 4 C -0.1063 -2.5753 0.0 0
M  V30 5 O -3.036 0.1299 0.0 0
M  V30 6 N -3.1187 -2.469 0.0 0
M  V30 7 O 1.3821 -2.6107 0.0 0
M  V30 8 C -0.9096 -3.8393 0.0 0
M  V30 9 C -4.6308 -2.4099 0.0 0
M  V30 10 C -2.4217 -3.7803 0.0 0
M  V30 11 C 2.0791 -3.922 0.0 0
M  V30 12 C -5.3514 -1.075 0.0 0
M  V30 13 C -5.4341 -3.6739 0.0 0
M  V30 14 C -3.225 -5.0443 0.0 0
M  V30 15 C 3.5676 -3.9575 0.0 0
M  V30 16 C -6.8636 -1.0159 0.0 0
M  V30 17 C -4.5718 0.2126 0.0 0
M  V30 18 C -6.9463 -3.6149 0.0 0
M  V30 19 C 4.3473 -2.6698 0.0 0
M  V30 20 C 4.2646 -5.2688 0.0 0
M  V30 21 C -7.6669 -2.2799 0.0 0
M  V30 22 C -7.7496 -4.8789 0.0 0
M  V30 23 F 3.6267 -1.3349 0.0 0
M  V30 24 C 5.8358 -2.7052 0.0 0
M  V30 25 C 5.7531 -5.3042 0.0 0
M  V30 26 O -7.0526 -6.1902 0.0 0
M  V30 27 N -9.2617 -4.8198 0.0 0
M  V30 28 C 6.5328 -4.0165 0.0 0
M  V30 29 C -10.065 -6.0839 0.0 0
M  V30 30 F 8.0213 -4.052 0.0 0
M  V30 END ATOM
M  V30 BEGIN BOND
M  V30 1 1 1 2
M  V30 2 1 2 3
M  V30 3 2 2 4
M  V30 4 2 3 5
M  V30 5 1 3 6
M  V30 6 1 4 7
M  V30 7 1 4 8
M  V30 8 1 6 9
M  V30 9 1 6 10
M  V30 10 1 7 11
M  V30 11 2 9 12
M  V30 12 1 9 13
M  V30 13 1 10 14
M  V30 14 1 11 15
M  V30 15 1 12 16
M  V30 16 1 12 17
M  V30 17 2 13 18
M  V30 18 2 15 19
M  V30 19 1 15 20
M  V30 20 2 16 21
M  V30 21 1 18 22
M  V30 22 1 19 23
M  V30 23 1 19 24
M  V30 24 2 20 25
M  V30 25 2 22 26
M  V30 26 1 22 27
M  V30 27 2 24 28
M  V30 28 1 27 29
M  V30 29 1 28 30
M  V30 30 2 8 10
M  V30 31 1 18 21
M  V30 32 1 25 28
M  V30 END BOND
M  V30 END CTAB
M  END
>  <Compound ID>
198

>  <Name>
PH-797804

>  <Uniprot>
Q15759

>  <Target>
p38beta

>  <Smiles>
CNC(=O)C1=CC=C(C)C(N2C(C)=CC(OCC3=CC=C(F)C=C3F)=C(Br)C2=O)=C1

>  <Kd (nM)>


>  <Assay (Kd)>


>  <Ki (nM)>
40

>  <Assay (Ki)>
Ki of p38beta

>  <IC50 (nM)>


>  <Assay (IC50)>


>  <EC50 (nM)>


>  <Assay (EC50)>


>  <Article DOI>
10.1021/bi900655f

>  <Molecular Weight>
477.305

>  <Exact Mass>
476.054711008

>  <XLogP3>
4.25

>  <Heavy Atom Count>
30

>  <Ring Count>
3

>  <Hydrogen Bond Acceptor Count>
4

>  <Hydrogen Bond Donor Count>
1

>  <Rotatable Bond Count>
5

>  <Topological Polar Surface Area>
60.33

>  <Molecular Formula>
C22H19BrF2N2O3

>  <InChI>
InChI=1S/C22H19BrF2N2O3/c1-12-4-5-14(21(28)26-3)9-18(12)27-13(2)8-19(20(23)22(27)29)30-11-15-6-7-16(24)10-17(15)25/h4-10H,11H2,1-3H3,(H,26,28)

>  <InChI Key>
KCAJXIDMCNPGHZ-UHFFFAOYSA-N

>  <BindingDB>
50314073

>  <PubChem>
22049997

>  <ChEMBL>
CHEMBL1088751

$$$$
Compound 594
Actelion Java MolfileCreator 2.0

  0  0  0  0  0  0              0 V3000
M  V30 BEGIN CTAB
M  V30 COUNTS 47 52 0 0 0
M  V30 BEGIN ATOM
M  V30 1 S 0.0 0.0 0.0 0
M  V30 2 C 1.1758 -0.9054 0.0 0
M  V30 3 C 0.4938 1.4228 0.0 0
M  V30 4 N 2.3988 -0.047 0.0 0
M  V30 5 N 1.117 -2.387 0.0 0
M  V30 6 C 1.9754 1.3875 0.0 0
M  V30 7 C -0.2234 2.7515 0.0 0
M  V30 8 C -0.2116 -3.0808 0.0 0
M  V30 9 C 2.7515 2.6692 0.0 0
M  V30 10 C 0.5526 4.0332 0.0 0
M  V30 11 O -1.4933 -2.2812 0.0 0
M  V30 12 C -0.2704 -4.5624 0.0 0
M  V30 13 C 2.0342 3.998 0.0 0
M  V30 14 C -1.5992 -5.2562 0.0 0
M  V30 15 C 0.9877 -5.3385 0.0 0
M  V30 16 C -1.6579 -6.7378 0.0 0
M  V30 17 C -2.8809 -4.4565 0.0 0
M  V30 18 C 0.9289 -6.8201 0.0 0
M  V30 19 C -0.3998 -7.5138 0.0 0
M  V30 20 C -2.9867 -7.4315 0.0 0
M  V30 21 N -4.2096 -5.1503 0.0 0
M  V30 22 C -4.2684 -6.6319 0.0 0
M  V30 23 C -5.4913 -4.3507 0.0 0
M  V30 24 S -6.8789 -4.9034 0.0 0
M  V30 25 N -5.6207 -2.8456 0.0 0
M  V30 26 C -7.8549 -3.751 0.0 0
M  V30 27 C -7.0788 -2.4811 0.0 0
M  V30 28 C -9.36 -3.8568 0.0 0
M  V30 29 C -7.655 -1.0935 0.0 0
M  V30 30 C -10.2184 -2.6104 0.0 0
M  V30 31 O -9.1483 -0.8819 0.0 0
M  V30 32 O -6.7613 0.1058 0.0 0
M  V30 33 C -11.7235 -2.7162 0.0 0
M  V30 34 O -12.5819 -1.4698 0.0 0
M  V30 35 C -14.087 -1.5756 0.0 0
M  V30 36 C -14.7455 -2.9161 0.0 0
M  V30 37 C -14.9454 -0.3292 0.0 0
M  V30 38 F -13.9107 -4.1391 0.0 0
M  V30 39 C -16.2507 -3.022 0.0 0
M  V30 40 C -16.4506 -0.435 0.0 0
M  V30 41 C -17.1091 -1.7755 0.0 0
M  V30 42 C -18.6142 -1.8814 0.0 0
M  V30 43 C -20.1193 -1.9872 0.0 0
M  V30 44 C -21.6245 -2.093 0.0 0
M  V30 45 N -22.4828 -0.8466 0.0 0
M  V30 46 C -23.988 -0.9524 0.0 0
M  V30 47 C -21.8479 0.5173 0.0 0
M  V30 END ATOM
M  V30 BEGIN BOND
M  V30 1 1 1 2
M  V30 2 1 1 3
M  V30 3 2 2 4
M  V30 4 1 2 5
M  V30 5 2 3 6
M  V30 6 1 3 7
M  V30 7 1 5 8
M  V30 8 1 6 9
M  V30 9 2 7 10
M  V30 10 2 8 11
M  V30 11 1 8 12
M  V30 12 2 9 13
M  V30 13 2 12 14
M  V30 14 1 12 15
M  V30 15 1 14 16
M  V30 16 1 14 17
M  V30 17 2 15 18
M  V30 18 2 16 19
M  V30 19 1 16 20
M  V30 20 1 17 21
M  V30 21 1 20 22
M  V30 22 1 21 23
M  V30 23 1 23 24
M  V30 24 2 23 25
M  V30 25 1 24 26
M  V30 26 1 25 27
M  V30 27 1 26 28
M  V30 28 1 27 29
M  V30 29 1 28 30
M  V30 30 2 29 31
M  V30 31 1 29 32
M  V30 32 1 30 33
M  V30 33 1 33 34
M  V30 34 1 34 35
M  V30 35 2 35 36
M  V30 36 1 35 37
M  V30 37 1 36 38
M  V30 38 1 36 39
M  V30 39 2 37 40
M  V30 40 2 39 41
M  V30 41 1 41 42
M  V30 42 3 42 43
M  V30 43 1 43 44
M  V30 44 1 44 45
M  V30 45 1 45 46
M  V30 46 1 45 47
M  V30 47 1 4 6
M  V30 48 1 10 13
M  V30 49 1 18 19
M  V30 50 1 21 22
M  V30 51 2 26 27
M  V30 52 1 40 41
M  V30 END BOND
M  V30 END CTAB
M  END
>  <Compound ID>
199

>  <Name>
A-1155463

>  <Uniprot>
Q07817

>  <Target>
BCL-xL

>  <Smiles>
CN(C)CC#CC1=CC=C(OCCCC2=C(C(=O)O)N=C(N3CCC4=CC=CC(C(=O)NC5=NC6=CC=CC=C6S5)=C4C3)S2)C(F)=C1

>  <Kd (nM)>


>  <Assay (Kd)>


>  <Ki (nM)>
<0.01

>  <Assay (Ki)>
Ki was assessed by TR-FRET assay

>  <IC50 (nM)>


>  <Assay (IC50)>


>  <EC50 (nM)>


>  <Assay (EC50)>


>  <Article DOI>
10.1021/ml5001867

>  <Molecular Weight>
669.804

>  <Exact Mass>
669.187974724

>  <XLogP3>
4.79

>  <Heavy Atom Count>
47

>  <Ring Count>
6

>  <Hydrogen Bond Acceptor Count>
9

>  <Hydrogen Bond Donor Count>
2

>  <Rotatable Bond Count>
10

>  <Topological Polar Surface Area>
107.89

>  <Molecular Formula>
C35H32FN5O4S2

>  <InChI>
InChI=1S/C35H32FN5O4S2/c1-40(2)17-6-8-22-14-15-28(26(36)20-22)45-19-7-13-30-31(33(43)44)38-35(47-30)41-18-16-23-9-5-10-24(25(23)21-41)32(42)39-34-37-27-11-3-4-12-29(27)46-34/h3-5,9-12,14-15,20H,7,13,16-19,21H2,1-2H3,(H,43,44)(H,37,39,42)

>  <InChI Key>
SOYCFODXNRVBTI-UHFFFAOYSA-N

>  <BindingDB>
50030754

>  <PubChem>
59447577

>  <ChEMBL>
CHEMBL3342332

$$$$
Compound 595
Actelion Java MolfileCreator 2.0

  0  0  0  0  0  0              0 V3000
M  V30 BEGIN CTAB
M  V30 COUNTS 31 34 0 0 0
M  V30 BEGIN ATOM
M  V30 1 Cl 0.0 0.0 0.0 0
M  V30 2 C 1.269 -0.7946 0.0 0
M  V30 3 C 2.5855 -0.083 0.0 0
M  V30 4 C 1.1978 -2.289 0.0 0
M  V30 5 C 3.8545 -0.8776 0.0 0
M  V30 6 C 2.4669 -3.0836 0.0 0
M  V30 7 C 3.7833 -2.372 0.0 0
M  V30 8 N 5.0524 -3.1666 0.0 0
M  V30 9 C 4.9812 -4.661 0.0 0 CFG=1
M  V30 10 C 6.2503 -5.4556 0.0 0
M  V30 11 C 3.641 -5.3489 0.0 0
M  V30 12 C 6.1791 -6.95 0.0 0
M  V30 13 C 7.5667 -4.744 0.0 0
M  V30 14 C 3.5699 -6.8433 0.0 0 CFG=1
M  V30 15 N 4.8389 -7.6379 0.0 0
M  V30 16 C 7.4481 -7.7446 0.0 0
M  V30 17 C 8.8358 -5.5387 0.0 0
M  V30 18 C 2.2297 -7.5312 0.0 0
M  V30 19 C 4.7677 -9.1323 0.0 0
M  V30 20 C 8.7646 -7.033 0.0 0
M  V30 21 C 10.1523 -4.8152 0.0 0
M  V30 22 O 6.0368 -9.9269 0.0 0
M  V30 23 C 3.4275 -9.8202 0.0 0
M  V30 24 C 11.4213 -5.6098 0.0 0
M  V30 25 C 10.1997 -3.2971 0.0 0
M  V30 26 C 12.7378 -4.8982 0.0 0
M  V30 27 C 11.5162 -2.5855 0.0 0
M  V30 28 C 12.7852 -3.3801 0.0 0
M  V30 29 C 14.1017 -2.6685 0.0 0
M  V30 30 O 14.1491 -1.1504 0.0 0
M  V30 31 O 15.3707 -3.4631 0.0 0
M  V30 END ATOM
M  V30 BEGIN BOND
M  V30 1 1 1 2
M  V30 2 2 2 3
M  V30 3 1 2 4
M  V30 4 1 3 5
M  V30 5 2 4 6
M  V30 6 2 5 7
M  V30 7 1 7 8
M  V30 8 1 9 8 CFG=1
M  V30 9 1 9 10
M  V30 10 1 9 11
M  V30 11 2 10 12
M  V30 12 1 10 13
M  V30 13 1 11 14
M  V30 14 1 12 15
M  V30 15 1 12 16
M  V30 16 2 13 17
M  V30 17 1 14 18 CFG=1
M  V30 18 1 15 19
M  V30 19 2 16 20
M  V30 20 1 17 21
M  V30 21 2 19 22
M  V30 22 1 19 23
M  V30 23 2 21 24
M  V30 24 1 21 25
M  V30 25 1 24 26
M  V30 26 2 25 27
M  V30 27 2 26 28
M  V30 28 1 28 29
M  V30 29 2 29 30
M  V30 30 1 29 31
M  V30 31 1 6 7
M  V30 32 1 14 15
M  V30 33 1 17 20
M  V30 34 1 27 28
M  V30 END BOND
M  V30 BEGIN COLLECTION
M  V30 MDLV30/STEABS ATOMS=(2 9 14)
M  V30 END COLLECTION
M  V30 END CTAB
M  END
>  <Compound ID>
200

>  <Name>
I-BET726

>  <Uniprot>
P25440

>  <Target>
BRD2

>  <Smiles>
CC(=O)N1C2=CC=C(C3=CC=C(C(=O)O)C=C3)C=C2[C@H](NC2=CC=C(Cl)C=C2)C[C@@H]1C

>  <Kd (nM)>
25

>  <Assay (Kd)>
SPR

>  <Ki (nM)>


>  <Assay (Ki)>


>  <IC50 (nM)>
39.8

>  <Assay (IC50)>
Peptide-based FRET

>  <EC50 (nM)>


>  <Assay (EC50)>


>  <Article DOI>
10.1021/jm5010539

>  <Molecular Weight>
434.923

>  <Exact Mass>
434.139720276

>  <XLogP3>
5.14

>  <Heavy Atom Count>
31

>  <Ring Count>
4

>  <Hydrogen Bond Acceptor Count>
3

>  <Hydrogen Bond Donor Count>
2

>  <Rotatable Bond Count>
4

>  <Topological Polar Surface Area>
69.64

>  <Molecular Formula>
C25H23ClN2O3

>  <InChI>
InChI=1S/C25H23ClN2O3/c1-15-13-23(27-21-10-8-20(26)9-11-21)22-14-19(7-12-24(22)28(15)16(2)29)17-3-5-18(6-4-17)25(30)31/h3-12,14-15,23,27H,13H2,1-2H3,(H,30,31)/t15-,23+/m0/s1

>  <InChI Key>
FAWSUKOIROHXAP-NPMXOYFQSA-N

>  <BindingDB>
50028142

>  <PubChem>
52912222

>  <ChEMBL>
CHEMBL2177300

$$$$
Compound 596
Actelion Java MolfileCreator 2.0

  0  0  0  0  0  0              0 V3000
M  V30 BEGIN CTAB
M  V30 COUNTS 31 34 0 0 0
M  V30 BEGIN ATOM
M  V30 1 Cl 0.0 0.0 0.0 0
M  V30 2 C 1.269 -0.7946 0.0 0
M  V30 3 C 2.5855 -0.083 0.0 0
M  V30 4 C 1.1978 -2.289 0.0 0
M  V30 5 C 3.8545 -0.8776 0.0 0
M  V30 6 C 2.4669 -3.0836 0.0 0
M  V30 7 C 3.7833 -2.372 0.0 0
M  V30 8 N 5.0524 -3.1666 0.0 0
M  V30 9 C 4.9812 -4.661 0.0 0 CFG=1
M  V30 10 C 6.2503 -5.4556 0.0 0
M  V30 11 C 3.641 -5.3489 0.0 0
M  V30 12 C 6.1791 -6.95 0.0 0
M  V30 13 C 7.5667 -4.744 0.0 0
M  V30 14 C 3.5699 -6.8433 0.0 0 CFG=1
M  V30 15 N 4.8389 -7.6379 0.0 0
M  V30 16 C 7.4481 -7.7446 0.0 0
M  V30 17 C 8.8358 -5.5387 0.0 0
M  V30 18 C 2.2297 -7.5312 0.0 0
M  V30 19 C 4.7677 -9.1323 0.0 0
M  V30 20 C 8.7646 -7.033 0.0 0
M  V30 21 C 10.1523 -4.8152 0.0 0
M  V30 22 O 6.0368 -9.9269 0.0 0
M  V30 23 C 3.4275 -9.8202 0.0 0
M  V30 24 C 11.4213 -5.6098 0.0 0
M  V30 25 C 10.1997 -3.2971 0.0 0
M  V30 26 C 12.7378 -4.8982 0.0 0
M  V30 27 C 11.5162 -2.5855 0.0 0
M  V30 28 C 12.7852 -3.3801 0.0 0
M  V30 29 C 14.1017 -2.6685 0.0 0
M  V30 30 O 14.1491 -1.1504 0.0 0
M  V30 31 O 15.3707 -3.4631 0.0 0
M  V30 END ATOM
M  V30 BEGIN BOND
M  V30 1 1 1 2
M  V30 2 2 2 3
M  V30 3 1 2 4
M  V30 4 1 3 5
M  V30 5 2 4 6
M  V30 6 2 5 7
M  V30 7 1 7 8
M  V30 8 1 9 8 CFG=1
M  V30 9 1 9 10
M  V30 10 1 9 11
M  V30 11 2 10 12
M  V30 12 1 10 13
M  V30 13 1 11 14
M  V30 14 1 12 15
M  V30 15 1 12 16
M  V30 16 2 13 17
M  V30 17 1 14 18 CFG=1
M  V30 18 1 15 19
M  V30 19 2 16 20
M  V30 20 1 17 21
M  V30 21 2 19 22
M  V30 22 1 19 23
M  V30 23 2 21 24
M  V30 24 1 21 25
M  V30 25 1 24 26
M  V30 26 2 25 27
M  V30 27 2 26 28
M  V30 28 1 28 29
M  V30 29 2 29 30
M  V30 30 1 29 31
M  V30 31 1 6 7
M  V30 32 1 14 15
M  V30 33 1 17 20
M  V30 34 1 27 28
M  V30 END BOND
M  V30 BEGIN COLLECTION
M  V30 MDLV30/STEABS ATOMS=(2 9 14)
M  V30 END COLLECTION
M  V30 END CTAB
M  END
>  <Compound ID>
200

>  <Name>
I-BET726

>  <Uniprot>
Q15059

>  <Target>
BRD3

>  <Smiles>
CC(=O)N1C2=CC=C(C3=CC=C(C(=O)O)C=C3)C=C2[C@H](NC2=CC=C(Cl)C=C2)C[C@@H]1C

>  <Kd (nM)>
20

>  <Assay (Kd)>
SPR

>  <Ki (nM)>


>  <Assay (Ki)>


>  <IC50 (nM)>
79.4

>  <Assay (IC50)>
Peptide-based FRET

>  <EC50 (nM)>


>  <Assay (EC50)>


>  <Article DOI>
10.1021/jm5010539

>  <Molecular Weight>
434.923

>  <Exact Mass>
434.139720276

>  <XLogP3>
5.14

>  <Heavy Atom Count>
31

>  <Ring Count>
4

>  <Hydrogen Bond Acceptor Count>
3

>  <Hydrogen Bond Donor Count>
2

>  <Rotatable Bond Count>
4

>  <Topological Polar Surface Area>
69.64

>  <Molecular Formula>
C25H23ClN2O3

>  <InChI>
InChI=1S/C25H23ClN2O3/c1-15-13-23(27-21-10-8-20(26)9-11-21)22-14-19(7-12-24(22)28(15)16(2)29)17-3-5-18(6-4-17)25(30)31/h3-12,14-15,23,27H,13H2,1-2H3,(H,30,31)/t15-,23+/m0/s1

>  <InChI Key>
FAWSUKOIROHXAP-NPMXOYFQSA-N

>  <BindingDB>
50028142

>  <PubChem>
52912222

>  <ChEMBL>
CHEMBL2177300

$$$$
Compound 597
Actelion Java MolfileCreator 2.0

  0  0  0  0  0  0              0 V3000
M  V30 BEGIN CTAB
M  V30 COUNTS 31 34 0 0 0
M  V30 BEGIN ATOM
M  V30 1 Cl 0.0 0.0 0.0 0
M  V30 2 C 1.269 -0.7946 0.0 0
M  V30 3 C 2.5855 -0.083 0.0 0
M  V30 4 C 1.1978 -2.289 0.0 0
M  V30 5 C 3.8545 -0.8776 0.0 0
M  V30 6 C 2.4669 -3.0836 0.0 0
M  V30 7 C 3.7833 -2.372 0.0 0
M  V30 8 N 5.0524 -3.1666 0.0 0
M  V30 9 C 4.9812 -4.661 0.0 0 CFG=1
M  V30 10 C 6.2503 -5.4556 0.0 0
M  V30 11 C 3.641 -5.3489 0.0 0
M  V30 12 C 6.1791 -6.95 0.0 0
M  V30 13 C 7.5667 -4.744 0.0 0
M  V30 14 C 3.5699 -6.8433 0.0 0 CFG=1
M  V30 15 N 4.8389 -7.6379 0.0 0
M  V30 16 C 7.4481 -7.7446 0.0 0
M  V30 17 C 8.8358 -5.5387 0.0 0
M  V30 18 C 2.2297 -7.5312 0.0 0
M  V30 19 C 4.7677 -9.1323 0.0 0
M  V30 20 C 8.7646 -7.033 0.0 0
M  V30 21 C 10.1523 -4.8152 0.0 0
M  V30 22 O 6.0368 -9.9269 0.0 0
M  V30 23 C 3.4275 -9.8202 0.0 0
M  V30 24 C 11.4213 -5.6098 0.0 0
M  V30 25 C 10.1997 -3.2971 0.0 0
M  V30 26 C 12.7378 -4.8982 0.0 0
M  V30 27 C 11.5162 -2.5855 0.0 0
M  V30 28 C 12.7852 -3.3801 0.0 0
M  V30 29 C 14.1017 -2.6685 0.0 0
M  V30 30 O 14.1491 -1.1504 0.0 0
M  V30 31 O 15.3707 -3.4631 0.0 0
M  V30 END ATOM
M  V30 BEGIN BOND
M  V30 1 1 1 2
M  V30 2 2 2 3
M  V30 3 1 2 4
M  V30 4 1 3 5
M  V30 5 2 4 6
M  V30 6 2 5 7
M  V30 7 1 7 8
M  V30 8 1 9 8 CFG=1
M  V30 9 1 9 10
M  V30 10 1 9 11
M  V30 11 2 10 12
M  V30 12 1 10 13
M  V30 13 1 11 14
M  V30 14 1 12 15
M  V30 15 1 12 16
M  V30 16 2 13 17
M  V30 17 1 14 18 CFG=1
M  V30 18 1 15 19
M  V30 19 2 16 20
M  V30 20 1 17 21
M  V30 21 2 19 22
M  V30 22 1 19 23
M  V30 23 2 21 24
M  V30 24 1 21 25
M  V30 25 1 24 26
M  V30 26 2 25 27
M  V30 27 2 26 28
M  V30 28 1 28 29
M  V30 29 2 29 30
M  V30 30 1 29 31
M  V30 31 1 6 7
M  V30 32 1 14 15
M  V30 33 1 17 20
M  V30 34 1 27 28
M  V30 END BOND
M  V30 BEGIN COLLECTION
M  V30 MDLV30/STEABS ATOMS=(2 9 14)
M  V30 END COLLECTION
M  V30 END CTAB
M  END
>  <Compound ID>
200

>  <Name>
I-BET726

>  <Uniprot>
O60885

>  <Target>
BRD4

>  <Smiles>
CC(=O)N1C2=CC=C(C3=CC=C(C(=O)O)C=C3)C=C2[C@H](NC2=CC=C(Cl)C=C2)C[C@@H]1C

>  <Kd (nM)>
23/4.4

>  <Assay (Kd)>
ITC

>  <Ki (nM)>


>  <Assay (Ki)>


>  <IC50 (nM)>
100

>  <Assay (IC50)>
Peptide-based FRET

>  <EC50 (nM)>


>  <Assay (EC50)>


>  <Article DOI>
10.1021/jm5010539

>  <Molecular Weight>
434.923

>  <Exact Mass>
434.139720276

>  <XLogP3>
5.14

>  <Heavy Atom Count>
31

>  <Ring Count>
4

>  <Hydrogen Bond Acceptor Count>
3

>  <Hydrogen Bond Donor Count>
2

>  <Rotatable Bond Count>
4

>  <Topological Polar Surface Area>
69.64

>  <Molecular Formula>
C25H23ClN2O3

>  <InChI>
InChI=1S/C25H23ClN2O3/c1-15-13-23(27-21-10-8-20(26)9-11-21)22-14-19(7-12-24(22)28(15)16(2)29)17-3-5-18(6-4-17)25(30)31/h3-12,14-15,23,27H,13H2,1-2H3,(H,30,31)/t15-,23+/m0/s1

>  <InChI Key>
FAWSUKOIROHXAP-NPMXOYFQSA-N

>  <BindingDB>
50028142

>  <PubChem>
52912222

>  <ChEMBL>
CHEMBL2177300

$$$$
Compound 598
Actelion Java MolfileCreator 2.0

  0  0  0  0  0  0              0 V3000
M  V30 BEGIN CTAB
M  V30 COUNTS 40 44 0 0 0
M  V30 BEGIN ATOM
M  V30 1 F 0.0 0.0 0.0 0
M  V30 2 C -1.1849 -0.9151 0.0 0
M  V30 3 F -0.2698 -2.0766 0.0 0
M  V30 4 F -2.1235 0.2698 0.0 0
M  V30 5 C -2.3699 -1.8302 0.0 0
M  V30 6 C -3.766 -1.267 0.0 0
M  V30 7 C -2.1704 -3.2967 0.0 0
M  V30 8 O -3.9889 0.2229 0.0 0
M  V30 9 N -4.951 -2.1822 0.0 0
M  V30 10 N -3.3554 -4.2119 0.0 0
M  V30 11 C -5.3851 0.786 0.0 0
M  V30 12 C -4.7515 -3.6487 0.0 0
M  V30 13 C -5.608 2.276 0.0 0
M  V30 14 C -6.5701 -0.129 0.0 0
M  V30 15 N -5.9365 -4.5638 0.0 0
M  V30 16 C -4.6694 3.4375 0.0 0
M  V30 17 C -7.0042 2.8392 0.0 0
M  V30 18 C -7.9662 0.434 0.0 0
M  V30 19 C -7.3327 -4.0007 0.0 0
M  V30 20 O -3.1911 3.3554 0.0 0
M  V30 21 C -5.4789 4.7163 0.0 0
M  V30 22 C -8.1891 1.9241 0.0 0
M  V30 23 C -6.922 4.3409 0.0 0
M  V30 24 C -8.5176 -4.9158 0.0 0
M  V30 25 C -7.5556 -2.5107 0.0 0
M  V30 26 O -8.3182 -6.3823 0.0 0
M  V30 27 C -9.9138 -4.3526 0.0 0
M  V30 28 C -8.9517 -1.9475 0.0 0
M  V30 29 C -9.5031 -7.2975 0.0 0
M  V30 30 C -10.1367 -2.8626 0.0 0
M  V30 31 C -11.5328 -2.2995 0.0 0
M  V30 32 O -12.7178 -3.2146 0.0 0
M  V30 33 N -11.7557 -0.8095 0.0 0
M  V30 34 C -13.1519 -0.2463 0.0 0
M  V30 35 C -13.3748 1.2436 0.0 0
M  V30 36 C -14.3369 -1.1615 0.0 0
M  V30 37 C -14.771 1.8067 0.0 0
M  V30 38 C -15.733 -0.5983 0.0 0
M  V30 39 N -15.9559 0.8916 0.0 0
M  V30 40 C -17.3521 1.4548 0.0 0
M  V30 END ATOM
M  V30 BEGIN BOND
M  V30 1 1 1 2
M  V30 2 1 2 3
M  V30 3 1 2 4
M  V30 4 1 2 5
M  V30 5 2 5 6
M  V30 6 1 5 7
M  V30 7 1 6 8
M  V30 8 1 6 9
M  V30 9 2 7 10
M  V30 10 1 8 11
M  V30 11 2 9 12
M  V30 12 2 11 13
M  V30 13 1 11 14
M  V30 14 1 12 15
M  V30 15 1 13 16
M  V30 16 1 13 17
M  V30 17 2 14 18
M  V30 18 1 15 19
M  V30 19 2 16 20
M  V30 20 1 16 21
M  V30 21 2 17 22
M  V30 22 1 17 23
M  V30 23 2 19 24
M  V30 24 1 19 25
M  V30 25 1 24 26
M  V30 26 1 24 27
M  V30 27 2 25 28
M  V30 28 1 26 29
M  V30 29 2 27 30
M  V30 30 1 30 31
M  V30 31 2 31 32
M  V30 32 1 31 33
M  V30 33 1 33 34
M  V30 34 1 34 35
M  V30 35 1 34 36
M  V30 36 1 35 37
M  V30 37 1 36 38
M  V30 38 1 37 39
M  V30 39 1 39 40
M  V30 40 1 10 12
M  V30 41 1 18 22
M  V30 42 1 21 23
M  V30 43 1 28 30
M  V30 44 1 38 39
M  V30 END BOND
M  V30 END CTAB
M  END
>  <Compound ID>
201

>  <Name>
BI-4464

>  <Uniprot>
Q05397

>  <Target>
FAK

>  <Smiles>
COC1=CC(C(=O)NC2CCN(C)CC2)=CC=C1NC1=NC=C(C(F)(F)F)C(OC2=CC=CC3=C2C(=O)CC3)=N1

>  <Kd (nM)>


>  <Assay (Kd)>


>  <Ki (nM)>


>  <Assay (Ki)>


>  <IC50 (nM)>
17

>  <Assay (IC50)>
Inhibition of FAK

>  <EC50 (nM)>


>  <Assay (EC50)>


>  <Article DOI>
10.1021/acs.jmedchem.8b01826

>  <Molecular Weight>
555.557

>  <Exact Mass>
555.209339036

>  <XLogP3>
4.41

>  <Heavy Atom Count>
40

>  <Ring Count>
5

>  <Hydrogen Bond Acceptor Count>
8

>  <Hydrogen Bond Donor Count>
2

>  <Rotatable Bond Count>
7

>  <Topological Polar Surface Area>
105.68

>  <Molecular Formula>
C28H28F3N5O4

>  <InChI>
InChI=1S/C28H28F3N5O4/c1-36-12-10-18(11-13-36)33-25(38)17-6-8-20(23(14-17)39-2)34-27-32-15-19(28(29,30)31)26(35-27)40-22-5-3-4-16-7-9-21(37)24(16)22/h3-6,8,14-15,18H,7,9-13H2,1-2H3,(H,33,38)(H,32,34,35)

>  <InChI Key>
QUSSZSMDFABHLI-UHFFFAOYSA-N

>  <BindingDB>
134019

>  <PubChem>
58522530

>  <ChEMBL>
CHEMBL3657265

$$$$
Compound 599
Actelion Java MolfileCreator 2.0

  0  0  0  0  0  0              0 V3000
M  V30 BEGIN CTAB
M  V30 COUNTS 43 48 0 0 0
M  V30 BEGIN ATOM
M  V30 1 Cl 0.0 0.0 0.0 0
M  V30 2 C 0.4348 1.4456 0.0 0
M  V30 3 C -0.5994 2.5621 0.0 0
M  V30 4 C 1.8805 1.7864 0.0 0
M  V30 5 C -2.0685 2.2448 0.0 0
M  V30 6 C -0.1645 4.0078 0.0 0
M  V30 7 C 2.3153 3.2321 0.0 0
M  V30 8 N -2.5269 0.8227 0.0 0
M  V30 9 C -3.1028 3.3614 0.0 0
M  V30 10 C 1.281 4.3486 0.0 0
M  V30 11 C -1.1988 5.1243 0.0 0
M  V30 12 C -3.996 0.5053 0.0 0
M  V30 13 C -1.5161 -0.2703 0.0 0
M  V30 14 C -2.6679 4.807 0.0 0
M  V30 15 C -4.4544 -0.9167 0.0 0
M  V30 16 C -1.9745 -1.6924 0.0 0
M  V30 17 N -5.9235 -1.234 0.0 0
M  V30 18 C -3.4436 -2.0097 0.0 0
M  V30 19 C -6.3819 -2.6562 0.0 0
M  V30 20 C -3.902 -3.4319 0.0 0
M  V30 21 O -7.8511 -2.9735 0.0 0
M  V30 22 N -5.3711 -3.7492 0.0 0
M  V30 23 N -2.8912 -4.5249 0.0 0
M  V30 24 C -8.8853 -1.857 0.0 0
M  V30 25 C -1.4456 -4.1841 0.0 0
M  V30 26 C -3.3496 -5.9471 0.0 0
M  V30 27 C -10.3545 -2.1743 0.0 0 CFG=1
M  V30 28 C -0.4348 -5.2771 0.0 0 CFG=1
M  V30 29 C -2.3388 -7.0401 0.0 0
M  V30 30 N -11.4946 -1.1753 0.0 0
M  V30 31 C -10.9539 -3.5377 0.0 0
M  V30 32 N -0.8932 -6.6993 0.0 0
M  V30 33 C 1.0107 -4.9363 0.0 0
M  V30 34 C -12.7992 -1.9275 0.0 0
M  V30 35 C -11.3653 0.329 0.0 0
M  V30 36 C -12.4583 -3.3849 0.0 0
M  V30 37 C 0.1175 -7.7923 0.0 0
M  V30 38 C 1.4456 -3.4906 0.0 0
M  V30 39 O 1.5631 -7.4515 0.0 0
M  V30 40 C -0.3408 -9.2144 0.0 0
M  V30 41 N 1.8805 -2.045 0.0 0
M  V30 42 F -1.8099 -9.5318 0.0 0
M  V30 43 C 0.6699 -10.3075 0.0 0
M  V30 END ATOM
M  V30 BEGIN BOND
M  V30 1 1 1 2
M  V30 2 1 2 3
M  V30 3 2 2 4
M  V30 4 2 3 5
M  V30 5 1 3 6
M  V30 6 1 4 7
M  V30 7 1 5 8
M  V30 8 1 5 9
M  V30 9 1 6 10
M  V30 10 2 6 11
M  V30 11 1 8 12
M  V30 12 1 8 13
M  V30 13 2 9 14
M  V30 14 1 12 15
M  V30 15 1 13 16
M  V30 16 2 15 17
M  V30 17 1 15 18
M  V30 18 1 17 19
M  V30 19 2 18 20
M  V30 20 1 19 21
M  V30 21 2 19 22
M  V30 22 1 20 23
M  V30 23 1 21 24
M  V30 24 1 23 25
M  V30 25 1 23 26
M  V30 26 1 27 24 CFG=3
M  V30 27 1 25 28
M  V30 28 1 26 29
M  V30 29 1 27 30
M  V30 30 1 27 31
M  V30 31 1 28 32
M  V30 32 1 28 33 CFG=3
M  V30 33 1 30 34
M  V30 34 1 30 35
M  V30 35 1 31 36
M  V30 36 1 32 37
M  V30 37 1 33 38
M  V30 38 2 37 39
M  V30 39 1 37 40
M  V30 40 3 38 41
M  V30 41 1 40 42
M  V30 42 2 40 43
M  V30 43 2 7 10
M  V30 44 1 11 14
M  V30 45 1 16 18
M  V30 46 1 20 22
M  V30 47 1 29 32
M  V30 48 1 34 36
M  V30 END BOND
M  V30 BEGIN COLLECTION
M  V30 MDLV30/STEABS ATOMS=(2 27 28)
M  V30 END COLLECTION
M  V30 END CTAB
M  END
>  <Compound ID>
202

>  <Name>
MRTX849

>  <Uniprot>
P01116

>  <Target>
KRAS G12C

>  <Smiles>
C=C(F)C(=O)N1CCN(C2=NC(OC[C@@H]3CCCN3C)=NC3=C2CCN(C2=CC=CC4=CC=CC(Cl)=C24)C3)C[C@@H]1CC#N

>  <Kd (nM)>


>  <Assay (Kd)>


>  <Ki (nM)>


>  <Assay (Ki)>


>  <IC50 (nM)>
2800/440

>  <Assay (IC50)>
Inhibit viability of NCI-H2030/NCI-H23 cells

>  <EC50 (nM)>


>  <Assay (EC50)>


>  <Article DOI>
10.1021/acscentsci.0c00411

>  <Molecular Weight>
604.13

>  <Exact Mass>
603.25247926

>  <XLogP3>
5.05

>  <Heavy Atom Count>
43

>  <Ring Count>
6

>  <Hydrogen Bond Acceptor Count>
8

>  <Hydrogen Bond Donor Count>
0

>  <Rotatable Bond Count>
7

>  <Topological Polar Surface Area>
88.83

>  <Molecular Formula>
C32H35ClFN7O2

>  <InChI>
InChI=1S/C32H35ClFN7O2/c1-21(34)31(42)41-17-16-40(18-23(41)11-13-35)30-25-12-15-39(28-10-4-7-22-6-3-9-26(33)29(22)28)19-27(25)36-32(37-30)43-20-24-8-5-14-38(24)2/h3-4,6-7,9-10,23-24H,1,5,8,11-12,14-20H2,2H3/t23-,24-/m0/s1

>  <InChI Key>
PEMUGDMSUDYLHU-ZEQRLZLVSA-N

>  <BindingDB>


>  <PubChem>
138611145

>  <ChEMBL>


$$$$
Compound 600
Actelion Java MolfileCreator 2.0

  0  0  0  0  0  0              0 V3000
M  V30 BEGIN CTAB
M  V30 COUNTS 18 20 0 0 0
M  V30 BEGIN ATOM
M  V30 1 Cl 0.0 0.0 0.0 0
M  V30 2 C -1.286 -0.7787 0.0 0
M  V30 3 C -1.2506 -2.2653 0.0 0
M  V30 4 C -2.6193 -0.0589 0.0 0
M  V30 5 C 0.0589 -2.9614 0.0 0
M  V30 6 C -2.5367 -3.044 0.0 0
M  V30 7 C -3.9053 -0.8377 0.0 0
M  V30 8 N 1.3686 -3.6575 0.0 0
M  V30 9 C -3.8699 -2.3243 0.0 0
M  V30 10 O -5.2386 -0.1179 0.0 0
M  V30 11 C -6.5246 -0.8966 0.0 0 CFG=2
M  V30 12 C -6.4892 -2.3833 0.0 0
M  V30 13 C -7.8579 -0.1769 0.0 0
M  V30 14 C -7.7753 -3.162 0.0 0 CFG=1
M  V30 15 C -9.0495 -1.0972 0.0 0 CFG=2
M  V30 16 N -7.6809 -1.6518 0.0 0
M  V30 17 C -9.2383 -3.5041 0.0 0
M  V30 18 C -10.0288 -2.2299 0.0 0
M  V30 END ATOM
M  V30 BEGIN BOND
M  V30 1 1 1 2
M  V30 2 2 2 3
M  V30 3 1 2 4
M  V30 4 1 3 5
M  V30 5 1 3 6
M  V30 6 2 4 7
M  V30 7 3 5 8
M  V30 8 2 6 9
M  V30 9 1 7 10
M  V30 10 1 11 10 CFG=3
M  V30 11 1 11 12
M  V30 12 1 11 13
M  V30 13 1 12 14
M  V30 14 1 13 15
M  V30 15 1 14 16 CFG=1
M  V30 16 1 14 17
M  V30 17 1 15 18
M  V30 18 1 7 9
M  V30 19 1 15 16 CFG=1
M  V30 20 1 17 18
M  V30 END BOND
M  V30 BEGIN COLLECTION
M  V30 MDLV30/STEABS ATOMS=(3 11 14 15)
M  V30 END COLLECTION
M  V30 END CTAB
M  END
>  <Compound ID>
203

>  <Name>


>  <Uniprot>
P10275

>  <Target>
AR

>  <Smiles>
N#CC1=CC=C(O[C@@H]2C[C@@H]3CC[C@H](C2)N3)C=C1Cl

>  <Kd (nM)>


>  <Assay (Kd)>


>  <Ki (nM)>


>  <Assay (Ki)>


>  <IC50 (nM)>


>  <Assay (IC50)>


>  <EC50 (nM)>


>  <Assay (EC50)>


>  <Article DOI>
10.1016/j.ejmech.2021.113307

>  <Molecular Weight>
262.74

>  <Exact Mass>
262.08729078

>  <XLogP3>
2.98

>  <Heavy Atom Count>
18

>  <Ring Count>
3

>  <Hydrogen Bond Acceptor Count>
3

>  <Hydrogen Bond Donor Count>
1

>  <Rotatable Bond Count>
2

>  <Topological Polar Surface Area>
45.05

>  <Molecular Formula>
C14H15ClN2O

>  <InChI>
InChI=1S/C14H15ClN2O/c15-14-7-12(4-1-9(14)8-16)18-13-5-10-2-3-11(6-13)17-10/h1,4,7,10-11,13,17H,2-3,5-6H2/t10-,11+,13+

>  <InChI Key>
HISMEXSZSTZMDK-PJXYFTJBSA-N

>  <BindingDB>


>  <PubChem>


>  <ChEMBL>


$$$$
Compound 601
Actelion Java MolfileCreator 2.0

  0  0  0  0  0  0              0 V3000
M  V30 BEGIN CTAB
M  V30 COUNTS 17 19 0 0 0
M  V30 BEGIN ATOM
M  V30 1 S 0.0 0.0 0.0 0
M  V30 2 C 0.4497 -1.4202 0.0 0
M  V30 3 C -1.5148 0.0118 0.0 0
M  V30 4 N -0.7811 -2.296 0.0 0
M  V30 5 N 1.8699 -1.8699 0.0 0
M  V30 6 C -1.9882 -1.4083 0.0 0
M  V30 7 C 2.1658 -3.3256 0.0 0
M  V30 8 C 2.9706 -0.8521 0.0 0
M  V30 9 C -3.4321 -1.8581 0.0 0
M  V30 10 C 3.586 -3.7753 0.0 0
M  V30 11 C 4.3908 -1.3018 0.0 0
M  V30 12 C -4.5565 -0.8402 0.0 0
M  V30 13 C -3.7517 -3.3138 0.0 0
M  V30 14 O 4.6867 -2.7575 0.0 0
M  V30 15 C -6.0004 -1.29 0.0 0
M  V30 16 C -5.1956 -3.7635 0.0 0
M  V30 17 C -6.3199 -2.7457 0.0 0
M  V30 END ATOM
M  V30 BEGIN BOND
M  V30 1 1 1 2
M  V30 2 1 1 3
M  V30 3 2 2 4
M  V30 4 1 2 5
M  V30 5 2 3 6
M  V30 6 1 5 7
M  V30 7 1 5 8
M  V30 8 1 6 9
M  V30 9 1 7 10
M  V30 10 1 8 11
M  V30 11 2 9 12
M  V30 12 1 9 13
M  V30 13 1 10 14
M  V30 14 1 12 15
M  V30 15 2 13 16
M  V30 16 2 15 17
M  V30 17 1 4 6
M  V30 18 1 11 14
M  V30 19 1 16 17
M  V30 END BOND
M  V30 END CTAB
M  END
>  <Compound ID>
204

>  <Name>
VPC-14228

>  <Uniprot>
P10275

>  <Target>
AR

>  <Smiles>
C1=CC=C(C2=CSC(N3CCOCC3)=N2)C=C1

>  <Kd (nM)>


>  <Assay (Kd)>


>  <Ki (nM)>


>  <Assay (Ki)>


>  <IC50 (nM)>
280

>  <Assay (IC50)>
Inhibition of the PSA expression

>  <EC50 (nM)>


>  <Assay (EC50)>


>  <Article DOI>
10.1021/jm500802j

>  <Molecular Weight>
246.335

>  <Exact Mass>
246.082684068

>  <XLogP3>
2.7

>  <Heavy Atom Count>
17

>  <Ring Count>
3

>  <Hydrogen Bond Acceptor Count>
4

>  <Hydrogen Bond Donor Count>
0

>  <Rotatable Bond Count>
2

>  <Topological Polar Surface Area>
25.36

>  <Molecular Formula>
C13H14N2OS

>  <InChI>
InChI=1S/C13H14N2OS/c1-2-4-11(5-3-1)12-10-17-13(14-12)15-6-8-16-9-7-15/h1-5,10H,6-9H2

>  <InChI Key>
MRNNJVNMXOZEQC-UHFFFAOYSA-N

>  <BindingDB>
50497993

>  <PubChem>
727584

>  <ChEMBL>
CHEMBL1623389

$$$$
Compound 602
Actelion Java MolfileCreator 2.0

  0  0  0  0  0  0              0 V3000
M  V30 BEGIN CTAB
M  V30 COUNTS 17 19 0 0 0
M  V30 BEGIN ATOM
M  V30 1 S 0.0 0.0 0.0 0
M  V30 2 C 0.4497 -1.4202 0.0 0
M  V30 3 C -1.5148 0.0118 0.0 0
M  V30 4 N -0.7811 -2.296 0.0 0
M  V30 5 N 1.8699 -1.8699 0.0 0
M  V30 6 C -1.9882 -1.4083 0.0 0
M  V30 7 C 2.1658 -3.3256 0.0 0
M  V30 8 C 2.9706 -0.8521 0.0 0
M  V30 9 C -3.4321 -1.8581 0.0 0
M  V30 10 C 3.586 -3.7753 0.0 0
M  V30 11 C 4.3908 -1.3018 0.0 0
M  V30 12 C -4.5565 -0.8402 0.0 0
M  V30 13 C -3.7517 -3.3138 0.0 0
M  V30 14 O 4.6867 -2.7575 0.0 0
M  V30 15 C -6.0004 -1.29 0.0 0
M  V30 16 C -5.1956 -3.7635 0.0 0
M  V30 17 C -6.3199 -2.7457 0.0 0
M  V30 END ATOM
M  V30 BEGIN BOND
M  V30 1 1 1 2
M  V30 2 1 1 3
M  V30 3 2 2 4
M  V30 4 1 2 5
M  V30 5 2 3 6
M  V30 6 1 5 7
M  V30 7 1 5 8
M  V30 8 1 6 9
M  V30 9 1 7 10
M  V30 10 1 8 11
M  V30 11 2 9 12
M  V30 12 1 9 13
M  V30 13 1 10 14
M  V30 14 1 12 15
M  V30 15 2 13 16
M  V30 16 2 15 17
M  V30 17 1 4 6
M  V30 18 1 11 14
M  V30 19 1 16 17
M  V30 END BOND
M  V30 END CTAB
M  END
>  <Compound ID>
204

>  <Name>
VPC-14228

>  <Uniprot>
P10275

>  <Target>
AR-V7

>  <Smiles>
C1=CC=C(C2=CSC(N3CCOCC3)=N2)C=C1

>  <Kd (nM)>


>  <Assay (Kd)>


>  <Ki (nM)>


>  <Assay (Ki)>


>  <IC50 (nM)>
280

>  <Assay (IC50)>
Inhibition of the PSA expression

>  <EC50 (nM)>


>  <Assay (EC50)>


>  <Article DOI>
10.1021/jm500802j

>  <Molecular Weight>
246.335

>  <Exact Mass>
246.082684068

>  <XLogP3>
2.7

>  <Heavy Atom Count>
17

>  <Ring Count>
3

>  <Hydrogen Bond Acceptor Count>
4

>  <Hydrogen Bond Donor Count>
0

>  <Rotatable Bond Count>
2

>  <Topological Polar Surface Area>
25.36

>  <Molecular Formula>
C13H14N2OS

>  <InChI>
InChI=1S/C13H14N2OS/c1-2-4-11(5-3-1)12-10-17-13(14-12)15-6-8-16-9-7-15/h1-5,10H,6-9H2

>  <InChI Key>
MRNNJVNMXOZEQC-UHFFFAOYSA-N

>  <BindingDB>
50497993

>  <PubChem>
727584

>  <ChEMBL>
CHEMBL1623389

$$$$
Compound 603
Actelion Java MolfileCreator 2.0

  0  0  0  0  0  0              0 V3000
M  V30 BEGIN CTAB
M  V30 COUNTS 35 38 0 0 0
M  V30 BEGIN ATOM
M  V30 1 S 0.0 0.0 0.0 0
M  V30 2 O -0.5997 -1.364 0.0 0
M  V30 3 O 0.5761 1.3875 0.0 0
M  V30 4 N -1.3875 0.5997 0.0 0
M  V30 5 C 1.364 -0.5761 0.0 0
M  V30 6 C -2.5987 -0.2822 0.0 0
M  V30 7 C 1.5286 -2.0578 0.0 0
M  V30 8 C 2.5516 0.3292 0.0 0
M  V30 9 C -3.9862 0.3174 0.0 0
M  V30 10 C -2.4341 -1.7638 0.0 0
M  V30 11 F 0.3174 -2.9397 0.0 0
M  V30 12 C 2.8927 -2.634 0.0 0
M  V30 13 F 2.3635 1.8344 0.0 0
M  V30 14 C 3.9157 -0.2469 0.0 0
M  V30 15 F -4.1744 1.8226 0.0 0
M  V30 16 C -5.1974 -0.5644 0.0 0
M  V30 17 C -3.6452 -2.6457 0.0 0
M  V30 18 C 4.0803 -1.7285 0.0 0
M  V30 19 C -6.585 0.0352 0.0 0
M  V30 20 C -5.0328 -2.046 0.0 0
M  V30 21 N -6.926 1.5051 0.0 0
M  V30 22 C -7.8902 -0.7172 0.0 0
M  V30 23 C -8.4311 1.658 0.0 0
M  V30 24 S -9.0308 0.2822 0.0 0
M  V30 25 C -8.0431 -2.1989 0.0 0
M  V30 26 C -9.2072 2.9632 0.0 0
M  V30 27 N -9.4189 -2.8103 0.0 0
M  V30 28 C -6.8319 -3.0573 0.0 0
M  V30 29 C -10.5125 2.2106 0.0 0
M  V30 30 C -7.9255 3.7393 0.0 0
M  V30 31 C -9.9833 4.2685 0.0 0
M  V30 32 C -9.5718 -4.292 0.0 0
M  V30 33 C -6.9848 -4.5389 0.0 0
M  V30 34 N -8.3606 -5.1504 0.0 0
M  V30 35 N -10.9476 -4.9034 0.0 0
M  V30 END ATOM
M  V30 BEGIN BOND
M  V30 1 2 1 2
M  V30 2 2 1 3
M  V30 3 1 1 4
M  V30 4 1 1 5
M  V30 5 1 4 6
M  V30 6 2 5 7
M  V30 7 1 5 8
M  V30 8 2 6 9
M  V30 9 1 6 10
M  V30 10 1 7 11
M  V30 11 1 7 12
M  V30 12 1 8 13
M  V30 13 2 8 14
M  V30 14 1 9 15
M  V30 15 1 9 16
M  V30 16 2 10 17
M  V30 17 2 12 18
M  V30 18 1 16 19
M  V30 19 2 16 20
M  V30 20 1 19 21
M  V30 21 2 19 22
M  V30 22 2 21 23
M  V30 23 1 22 24
M  V30 24 1 22 25
M  V30 25 1 23 26
M  V30 26 2 25 27
M  V30 27 1 25 28
M  V30 28 1 26 29
M  V30 29 1 26 30
M  V30 30 1 26 31
M  V30 31 1 27 32
M  V30 32 2 28 33
M  V30 33 2 32 34
M  V30 34 1 32 35
M  V30 35 1 14 18
M  V30 36 1 17 20
M  V30 37 1 23 24
M  V30 38 1 33 34
M  V30 END BOND
M  V30 END CTAB
M  END
>  <Compound ID>
205

>  <Name>
Dabrafenib

>  <Uniprot>
O14965

>  <Target>
AURKA

>  <Smiles>
CC(C)(C)C1=NC(C2=CC=CC(NS(=O)(=O)C3=C(F)C=CC=C3F)=C2F)=C(C2=CC=NC(N)=N2)S1

>  <Kd (nM)>


>  <Assay (Kd)>


>  <Ki (nM)>


>  <Assay (Ki)>


>  <IC50 (nM)>


>  <Assay (IC50)>


>  <EC50 (nM)>


>  <Assay (EC50)>


>  <Article DOI>
10.1016/j.cell.2020.10.038

>  <Molecular Weight>
519.574

>  <Exact Mass>
519.10105154

>  <XLogP3>
4.78

>  <Heavy Atom Count>
35

>  <Ring Count>
4

>  <Hydrogen Bond Acceptor Count>
7

>  <Hydrogen Bond Donor Count>
2

>  <Rotatable Bond Count>
5

>  <Topological Polar Surface Area>
110.86

>  <Molecular Formula>
C23H20F3N5O2S2

>  <InChI>
InChI=1S/C23H20F3N5O2S2/c1-23(2,3)21-30-18(19(34-21)16-10-11-28-22(27)29-16)12-6-4-9-15(17(12)26)31-35(32,33)20-13(24)7-5-8-14(20)25/h4-11,31H,1-3H3,(H2,27,28,29)

>  <InChI Key>
BFSMGDJOXZAERB-UHFFFAOYSA-N

>  <BindingDB>
50428286

>  <PubChem>
44462760

>  <ChEMBL>
CHEMBL2028663

$$$$
Compound 604
Actelion Java MolfileCreator 2.0

  0  0  0  0  0  0              0 V3000
M  V30 BEGIN CTAB
M  V30 COUNTS 35 38 0 0 0
M  V30 BEGIN ATOM
M  V30 1 S 0.0 0.0 0.0 0
M  V30 2 O -0.5997 -1.364 0.0 0
M  V30 3 O 0.5761 1.3875 0.0 0
M  V30 4 N -1.3875 0.5997 0.0 0
M  V30 5 C 1.364 -0.5761 0.0 0
M  V30 6 C -2.5987 -0.2822 0.0 0
M  V30 7 C 1.5286 -2.0578 0.0 0
M  V30 8 C 2.5516 0.3292 0.0 0
M  V30 9 C -3.9862 0.3174 0.0 0
M  V30 10 C -2.4341 -1.7638 0.0 0
M  V30 11 F 0.3174 -2.9397 0.0 0
M  V30 12 C 2.8927 -2.634 0.0 0
M  V30 13 F 2.3635 1.8344 0.0 0
M  V30 14 C 3.9157 -0.2469 0.0 0
M  V30 15 F -4.1744 1.8226 0.0 0
M  V30 16 C -5.1974 -0.5644 0.0 0
M  V30 17 C -3.6452 -2.6457 0.0 0
M  V30 18 C 4.0803 -1.7285 0.0 0
M  V30 19 C -6.585 0.0352 0.0 0
M  V30 20 C -5.0328 -2.046 0.0 0
M  V30 21 N -6.926 1.5051 0.0 0
M  V30 22 C -7.8902 -0.7172 0.0 0
M  V30 23 C -8.4311 1.658 0.0 0
M  V30 24 S -9.0308 0.2822 0.0 0
M  V30 25 C -8.0431 -2.1989 0.0 0
M  V30 26 C -9.2072 2.9632 0.0 0
M  V30 27 N -9.4189 -2.8103 0.0 0
M  V30 28 C -6.8319 -3.0573 0.0 0
M  V30 29 C -10.5125 2.2106 0.0 0
M  V30 30 C -7.9255 3.7393 0.0 0
M  V30 31 C -9.9833 4.2685 0.0 0
M  V30 32 C -9.5718 -4.292 0.0 0
M  V30 33 C -6.9848 -4.5389 0.0 0
M  V30 34 N -8.3606 -5.1504 0.0 0
M  V30 35 N -10.9476 -4.9034 0.0 0
M  V30 END ATOM
M  V30 BEGIN BOND
M  V30 1 2 1 2
M  V30 2 2 1 3
M  V30 3 1 1 4
M  V30 4 1 1 5
M  V30 5 1 4 6
M  V30 6 2 5 7
M  V30 7 1 5 8
M  V30 8 2 6 9
M  V30 9 1 6 10
M  V30 10 1 7 11
M  V30 11 1 7 12
M  V30 12 1 8 13
M  V30 13 2 8 14
M  V30 14 1 9 15
M  V30 15 1 9 16
M  V30 16 2 10 17
M  V30 17 2 12 18
M  V30 18 1 16 19
M  V30 19 2 16 20
M  V30 20 1 19 21
M  V30 21 2 19 22
M  V30 22 2 21 23
M  V30 23 1 22 24
M  V30 24 1 22 25
M  V30 25 1 23 26
M  V30 26 2 25 27
M  V30 27 1 25 28
M  V30 28 1 26 29
M  V30 29 1 26 30
M  V30 30 1 26 31
M  V30 31 1 27 32
M  V30 32 2 28 33
M  V30 33 2 32 34
M  V30 34 1 32 35
M  V30 35 1 14 18
M  V30 36 1 17 20
M  V30 37 1 23 24
M  V30 38 1 33 34
M  V30 END BOND
M  V30 END CTAB
M  END
>  <Compound ID>
205

>  <Name>
Dabrafenib

>  <Uniprot>
O14874

>  <Target>
BCKDK

>  <Smiles>
CC(C)(C)C1=NC(C2=CC=CC(NS(=O)(=O)C3=C(F)C=CC=C3F)=C2F)=C(C2=CC=NC(N)=N2)S1

>  <Kd (nM)>


>  <Assay (Kd)>


>  <Ki (nM)>


>  <Assay (Ki)>


>  <IC50 (nM)>


>  <Assay (IC50)>


>  <EC50 (nM)>


>  <Assay (EC50)>


>  <Article DOI>
10.1016/j.cell.2020.10.038

>  <Molecular Weight>
519.574

>  <Exact Mass>
519.10105154

>  <XLogP3>
4.78

>  <Heavy Atom Count>
35

>  <Ring Count>
4

>  <Hydrogen Bond Acceptor Count>
7

>  <Hydrogen Bond Donor Count>
2

>  <Rotatable Bond Count>
5

>  <Topological Polar Surface Area>
110.86

>  <Molecular Formula>
C23H20F3N5O2S2

>  <InChI>
InChI=1S/C23H20F3N5O2S2/c1-23(2,3)21-30-18(19(34-21)16-10-11-28-22(27)29-16)12-6-4-9-15(17(12)26)31-35(32,33)20-13(24)7-5-8-14(20)25/h4-11,31H,1-3H3,(H2,27,28,29)

>  <InChI Key>
BFSMGDJOXZAERB-UHFFFAOYSA-N

>  <BindingDB>
50428286

>  <PubChem>
44462760

>  <ChEMBL>
CHEMBL2028663

$$$$
Compound 605
Actelion Java MolfileCreator 2.0

  0  0  0  0  0  0              0 V3000
M  V30 BEGIN CTAB
M  V30 COUNTS 35 38 0 0 0
M  V30 BEGIN ATOM
M  V30 1 S 0.0 0.0 0.0 0
M  V30 2 O -0.5997 -1.364 0.0 0
M  V30 3 O 0.5761 1.3875 0.0 0
M  V30 4 N -1.3875 0.5997 0.0 0
M  V30 5 C 1.364 -0.5761 0.0 0
M  V30 6 C -2.5987 -0.2822 0.0 0
M  V30 7 C 1.5286 -2.0578 0.0 0
M  V30 8 C 2.5516 0.3292 0.0 0
M  V30 9 C -3.9862 0.3174 0.0 0
M  V30 10 C -2.4341 -1.7638 0.0 0
M  V30 11 F 0.3174 -2.9397 0.0 0
M  V30 12 C 2.8927 -2.634 0.0 0
M  V30 13 F 2.3635 1.8344 0.0 0
M  V30 14 C 3.9157 -0.2469 0.0 0
M  V30 15 F -4.1744 1.8226 0.0 0
M  V30 16 C -5.1974 -0.5644 0.0 0
M  V30 17 C -3.6452 -2.6457 0.0 0
M  V30 18 C 4.0803 -1.7285 0.0 0
M  V30 19 C -6.585 0.0352 0.0 0
M  V30 20 C -5.0328 -2.046 0.0 0
M  V30 21 N -6.926 1.5051 0.0 0
M  V30 22 C -7.8902 -0.7172 0.0 0
M  V30 23 C -8.4311 1.658 0.0 0
M  V30 24 S -9.0308 0.2822 0.0 0
M  V30 25 C -8.0431 -2.1989 0.0 0
M  V30 26 C -9.2072 2.9632 0.0 0
M  V30 27 N -9.4189 -2.8103 0.0 0
M  V30 28 C -6.8319 -3.0573 0.0 0
M  V30 29 C -10.5125 2.2106 0.0 0
M  V30 30 C -7.9255 3.7393 0.0 0
M  V30 31 C -9.9833 4.2685 0.0 0
M  V30 32 C -9.5718 -4.292 0.0 0
M  V30 33 C -6.9848 -4.5389 0.0 0
M  V30 34 N -8.3606 -5.1504 0.0 0
M  V30 35 N -10.9476 -4.9034 0.0 0
M  V30 END ATOM
M  V30 BEGIN BOND
M  V30 1 2 1 2
M  V30 2 2 1 3
M  V30 3 1 1 4
M  V30 4 1 1 5
M  V30 5 1 4 6
M  V30 6 2 5 7
M  V30 7 1 5 8
M  V30 8 2 6 9
M  V30 9 1 6 10
M  V30 10 1 7 11
M  V30 11 1 7 12
M  V30 12 1 8 13
M  V30 13 2 8 14
M  V30 14 1 9 15
M  V30 15 1 9 16
M  V30 16 2 10 17
M  V30 17 2 12 18
M  V30 18 1 16 19
M  V30 19 2 16 20
M  V30 20 1 19 21
M  V30 21 2 19 22
M  V30 22 2 21 23
M  V30 23 1 22 24
M  V30 24 1 22 25
M  V30 25 1 23 26
M  V30 26 2 25 27
M  V30 27 1 25 28
M  V30 28 1 26 29
M  V30 29 1 26 30
M  V30 30 1 26 31
M  V30 31 1 27 32
M  V30 32 2 28 33
M  V30 33 2 32 34
M  V30 34 1 32 35
M  V30 35 1 14 18
M  V30 36 1 17 20
M  V30 37 1 23 24
M  V30 38 1 33 34
M  V30 END BOND
M  V30 END CTAB
M  END
>  <Compound ID>
205

>  <Name>
Dabrafenib

>  <Uniprot>
P15056

>  <Target>
BRAF V600E

>  <Smiles>
CC(C)(C)C1=NC(C2=CC=CC(NS(=O)(=O)C3=C(F)C=CC=C3F)=C2F)=C(C2=CC=NC(N)=N2)S1

>  <Kd (nM)>


>  <Assay (Kd)>


>  <Ki (nM)>


>  <Assay (Ki)>


>  <IC50 (nM)>
0.8

>  <Assay (IC50)>
Inhibition of BRAF V600E

>  <EC50 (nM)>


>  <Assay (EC50)>


>  <Article DOI>
10.1021/acs.jmedchem.7b01306

>  <Molecular Weight>
519.574

>  <Exact Mass>
519.10105154

>  <XLogP3>
4.78

>  <Heavy Atom Count>
35

>  <Ring Count>
4

>  <Hydrogen Bond Acceptor Count>
7

>  <Hydrogen Bond Donor Count>
2

>  <Rotatable Bond Count>
5

>  <Topological Polar Surface Area>
110.86

>  <Molecular Formula>
C23H20F3N5O2S2

>  <InChI>
InChI=1S/C23H20F3N5O2S2/c1-23(2,3)21-30-18(19(34-21)16-10-11-28-22(27)29-16)12-6-4-9-15(17(12)26)31-35(32,33)20-13(24)7-5-8-14(20)25/h4-11,31H,1-3H3,(H2,27,28,29)

>  <InChI Key>
BFSMGDJOXZAERB-UHFFFAOYSA-N

>  <BindingDB>
50428286

>  <PubChem>
44462760

>  <ChEMBL>
CHEMBL2028663

$$$$
Compound 606
Actelion Java MolfileCreator 2.0

  0  0  0  0  0  0              0 V3000
M  V30 BEGIN CTAB
M  V30 COUNTS 35 38 0 0 0
M  V30 BEGIN ATOM
M  V30 1 S 0.0 0.0 0.0 0
M  V30 2 O -0.5997 -1.364 0.0 0
M  V30 3 O 0.5761 1.3875 0.0 0
M  V30 4 N -1.3875 0.5997 0.0 0
M  V30 5 C 1.364 -0.5761 0.0 0
M  V30 6 C -2.5987 -0.2822 0.0 0
M  V30 7 C 1.5286 -2.0578 0.0 0
M  V30 8 C 2.5516 0.3292 0.0 0
M  V30 9 C -3.9862 0.3174 0.0 0
M  V30 10 C -2.4341 -1.7638 0.0 0
M  V30 11 F 0.3174 -2.9397 0.0 0
M  V30 12 C 2.8927 -2.634 0.0 0
M  V30 13 F 2.3635 1.8344 0.0 0
M  V30 14 C 3.9157 -0.2469 0.0 0
M  V30 15 F -4.1744 1.8226 0.0 0
M  V30 16 C -5.1974 -0.5644 0.0 0
M  V30 17 C -3.6452 -2.6457 0.0 0
M  V30 18 C 4.0803 -1.7285 0.0 0
M  V30 19 C -6.585 0.0352 0.0 0
M  V30 20 C -5.0328 -2.046 0.0 0
M  V30 21 N -6.926 1.5051 0.0 0
M  V30 22 C -7.8902 -0.7172 0.0 0
M  V30 23 C -8.4311 1.658 0.0 0
M  V30 24 S -9.0308 0.2822 0.0 0
M  V30 25 C -8.0431 -2.1989 0.0 0
M  V30 26 C -9.2072 2.9632 0.0 0
M  V30 27 N -9.4189 -2.8103 0.0 0
M  V30 28 C -6.8319 -3.0573 0.0 0
M  V30 29 C -10.5125 2.2106 0.0 0
M  V30 30 C -7.9255 3.7393 0.0 0
M  V30 31 C -9.9833 4.2685 0.0 0
M  V30 32 C -9.5718 -4.292 0.0 0
M  V30 33 C -6.9848 -4.5389 0.0 0
M  V30 34 N -8.3606 -5.1504 0.0 0
M  V30 35 N -10.9476 -4.9034 0.0 0
M  V30 END ATOM
M  V30 BEGIN BOND
M  V30 1 2 1 2
M  V30 2 2 1 3
M  V30 3 1 1 4
M  V30 4 1 1 5
M  V30 5 1 4 6
M  V30 6 2 5 7
M  V30 7 1 5 8
M  V30 8 2 6 9
M  V30 9 1 6 10
M  V30 10 1 7 11
M  V30 11 1 7 12
M  V30 12 1 8 13
M  V30 13 2 8 14
M  V30 14 1 9 15
M  V30 15 1 9 16
M  V30 16 2 10 17
M  V30 17 2 12 18
M  V30 18 1 16 19
M  V30 19 2 16 20
M  V30 20 1 19 21
M  V30 21 2 19 22
M  V30 22 2 21 23
M  V30 23 1 22 24
M  V30 24 1 22 25
M  V30 25 1 23 26
M  V30 26 2 25 27
M  V30 27 1 25 28
M  V30 28 1 26 29
M  V30 29 1 26 30
M  V30 30 1 26 31
M  V30 31 1 27 32
M  V30 32 2 28 33
M  V30 33 2 32 34
M  V30 34 1 32 35
M  V30 35 1 14 18
M  V30 36 1 17 20
M  V30 37 1 23 24
M  V30 38 1 33 34
M  V30 END BOND
M  V30 END CTAB
M  END
>  <Compound ID>
205

>  <Name>
Dabrafenib

>  <Uniprot>
Q00536

>  <Target>
CDK16

>  <Smiles>
CC(C)(C)C1=NC(C2=CC=CC(NS(=O)(=O)C3=C(F)C=CC=C3F)=C2F)=C(C2=CC=NC(N)=N2)S1

>  <Kd (nM)>
13

>  <Assay (Kd)>
Kd apparent of CDK16

>  <Ki (nM)>


>  <Assay (Ki)>


>  <IC50 (nM)>


>  <Assay (IC50)>


>  <EC50 (nM)>


>  <Assay (EC50)>


>  <Article DOI>
10.1126/science.aan4368

>  <Molecular Weight>
519.574

>  <Exact Mass>
519.10105154

>  <XLogP3>
4.78

>  <Heavy Atom Count>
35

>  <Ring Count>
4

>  <Hydrogen Bond Acceptor Count>
7

>  <Hydrogen Bond Donor Count>
2

>  <Rotatable Bond Count>
5

>  <Topological Polar Surface Area>
110.86

>  <Molecular Formula>
C23H20F3N5O2S2

>  <InChI>
InChI=1S/C23H20F3N5O2S2/c1-23(2,3)21-30-18(19(34-21)16-10-11-28-22(27)29-16)12-6-4-9-15(17(12)26)31-35(32,33)20-13(24)7-5-8-14(20)25/h4-11,31H,1-3H3,(H2,27,28,29)

>  <InChI Key>
BFSMGDJOXZAERB-UHFFFAOYSA-N

>  <BindingDB>
50428286

>  <PubChem>
44462760

>  <ChEMBL>
CHEMBL2028663

$$$$
Compound 607
Actelion Java MolfileCreator 2.0

  0  0  0  0  0  0              0 V3000
M  V30 BEGIN CTAB
M  V30 COUNTS 35 38 0 0 0
M  V30 BEGIN ATOM
M  V30 1 S 0.0 0.0 0.0 0
M  V30 2 O -0.5997 -1.364 0.0 0
M  V30 3 O 0.5761 1.3875 0.0 0
M  V30 4 N -1.3875 0.5997 0.0 0
M  V30 5 C 1.364 -0.5761 0.0 0
M  V30 6 C -2.5987 -0.2822 0.0 0
M  V30 7 C 1.5286 -2.0578 0.0 0
M  V30 8 C 2.5516 0.3292 0.0 0
M  V30 9 C -3.9862 0.3174 0.0 0
M  V30 10 C -2.4341 -1.7638 0.0 0
M  V30 11 F 0.3174 -2.9397 0.0 0
M  V30 12 C 2.8927 -2.634 0.0 0
M  V30 13 F 2.3635 1.8344 0.0 0
M  V30 14 C 3.9157 -0.2469 0.0 0
M  V30 15 F -4.1744 1.8226 0.0 0
M  V30 16 C -5.1974 -0.5644 0.0 0
M  V30 17 C -3.6452 -2.6457 0.0 0
M  V30 18 C 4.0803 -1.7285 0.0 0
M  V30 19 C -6.585 0.0352 0.0 0
M  V30 20 C -5.0328 -2.046 0.0 0
M  V30 21 N -6.926 1.5051 0.0 0
M  V30 22 C -7.8902 -0.7172 0.0 0
M  V30 23 C -8.4311 1.658 0.0 0
M  V30 24 S -9.0308 0.2822 0.0 0
M  V30 25 C -8.0431 -2.1989 0.0 0
M  V30 26 C -9.2072 2.9632 0.0 0
M  V30 27 N -9.4189 -2.8103 0.0 0
M  V30 28 C -6.8319 -3.0573 0.0 0
M  V30 29 C -10.5125 2.2106 0.0 0
M  V30 30 C -7.9255 3.7393 0.0 0
M  V30 31 C -9.9833 4.2685 0.0 0
M  V30 32 C -9.5718 -4.292 0.0 0
M  V30 33 C -6.9848 -4.5389 0.0 0
M  V30 34 N -8.3606 -5.1504 0.0 0
M  V30 35 N -10.9476 -4.9034 0.0 0
M  V30 END ATOM
M  V30 BEGIN BOND
M  V30 1 2 1 2
M  V30 2 2 1 3
M  V30 3 1 1 4
M  V30 4 1 1 5
M  V30 5 1 4 6
M  V30 6 2 5 7
M  V30 7 1 5 8
M  V30 8 2 6 9
M  V30 9 1 6 10
M  V30 10 1 7 11
M  V30 11 1 7 12
M  V30 12 1 8 13
M  V30 13 2 8 14
M  V30 14 1 9 15
M  V30 15 1 9 16
M  V30 16 2 10 17
M  V30 17 2 12 18
M  V30 18 1 16 19
M  V30 19 2 16 20
M  V30 20 1 19 21
M  V30 21 2 19 22
M  V30 22 2 21 23
M  V30 23 1 22 24
M  V30 24 1 22 25
M  V30 25 1 23 26
M  V30 26 2 25 27
M  V30 27 1 25 28
M  V30 28 1 26 29
M  V30 29 1 26 30
M  V30 30 1 26 31
M  V30 31 1 27 32
M  V30 32 2 28 33
M  V30 33 2 32 34
M  V30 34 1 32 35
M  V30 35 1 14 18
M  V30 36 1 17 20
M  V30 37 1 23 24
M  V30 38 1 33 34
M  V30 END BOND
M  V30 END CTAB
M  END
>  <Compound ID>
205

>  <Name>
Dabrafenib

>  <Uniprot>
Q00537

>  <Target>
CDK17

>  <Smiles>
CC(C)(C)C1=NC(C2=CC=CC(NS(=O)(=O)C3=C(F)C=CC=C3F)=C2F)=C(C2=CC=NC(N)=N2)S1

>  <Kd (nM)>


>  <Assay (Kd)>


>  <Ki (nM)>


>  <Assay (Ki)>


>  <IC50 (nM)>


>  <Assay (IC50)>


>  <EC50 (nM)>


>  <Assay (EC50)>


>  <Article DOI>
10.1016/j.cell.2020.10.038

>  <Molecular Weight>
519.574

>  <Exact Mass>
519.10105154

>  <XLogP3>
4.78

>  <Heavy Atom Count>
35

>  <Ring Count>
4

>  <Hydrogen Bond Acceptor Count>
7

>  <Hydrogen Bond Donor Count>
2

>  <Rotatable Bond Count>
5

>  <Topological Polar Surface Area>
110.86

>  <Molecular Formula>
C23H20F3N5O2S2

>  <InChI>
InChI=1S/C23H20F3N5O2S2/c1-23(2,3)21-30-18(19(34-21)16-10-11-28-22(27)29-16)12-6-4-9-15(17(12)26)31-35(32,33)20-13(24)7-5-8-14(20)25/h4-11,31H,1-3H3,(H2,27,28,29)

>  <InChI Key>
BFSMGDJOXZAERB-UHFFFAOYSA-N

>  <BindingDB>
50428286

>  <PubChem>
44462760

>  <ChEMBL>
CHEMBL2028663

$$$$
Compound 608
Actelion Java MolfileCreator 2.0

  0  0  0  0  0  0              0 V3000
M  V30 BEGIN CTAB
M  V30 COUNTS 35 38 0 0 0
M  V30 BEGIN ATOM
M  V30 1 S 0.0 0.0 0.0 0
M  V30 2 O -0.5997 -1.364 0.0 0
M  V30 3 O 0.5761 1.3875 0.0 0
M  V30 4 N -1.3875 0.5997 0.0 0
M  V30 5 C 1.364 -0.5761 0.0 0
M  V30 6 C -2.5987 -0.2822 0.0 0
M  V30 7 C 1.5286 -2.0578 0.0 0
M  V30 8 C 2.5516 0.3292 0.0 0
M  V30 9 C -3.9862 0.3174 0.0 0
M  V30 10 C -2.4341 -1.7638 0.0 0
M  V30 11 F 0.3174 -2.9397 0.0 0
M  V30 12 C 2.8927 -2.634 0.0 0
M  V30 13 F 2.3635 1.8344 0.0 0
M  V30 14 C 3.9157 -0.2469 0.0 0
M  V30 15 F -4.1744 1.8226 0.0 0
M  V30 16 C -5.1974 -0.5644 0.0 0
M  V30 17 C -3.6452 -2.6457 0.0 0
M  V30 18 C 4.0803 -1.7285 0.0 0
M  V30 19 C -6.585 0.0352 0.0 0
M  V30 20 C -5.0328 -2.046 0.0 0
M  V30 21 N -6.926 1.5051 0.0 0
M  V30 22 C -7.8902 -0.7172 0.0 0
M  V30 23 C -8.4311 1.658 0.0 0
M  V30 24 S -9.0308 0.2822 0.0 0
M  V30 25 C -8.0431 -2.1989 0.0 0
M  V30 26 C -9.2072 2.9632 0.0 0
M  V30 27 N -9.4189 -2.8103 0.0 0
M  V30 28 C -6.8319 -3.0573 0.0 0
M  V30 29 C -10.5125 2.2106 0.0 0
M  V30 30 C -7.9255 3.7393 0.0 0
M  V30 31 C -9.9833 4.2685 0.0 0
M  V30 32 C -9.5718 -4.292 0.0 0
M  V30 33 C -6.9848 -4.5389 0.0 0
M  V30 34 N -8.3606 -5.1504 0.0 0
M  V30 35 N -10.9476 -4.9034 0.0 0
M  V30 END ATOM
M  V30 BEGIN BOND
M  V30 1 2 1 2
M  V30 2 2 1 3
M  V30 3 1 1 4
M  V30 4 1 1 5
M  V30 5 1 4 6
M  V30 6 2 5 7
M  V30 7 1 5 8
M  V30 8 2 6 9
M  V30 9 1 6 10
M  V30 10 1 7 11
M  V30 11 1 7 12
M  V30 12 1 8 13
M  V30 13 2 8 14
M  V30 14 1 9 15
M  V30 15 1 9 16
M  V30 16 2 10 17
M  V30 17 2 12 18
M  V30 18 1 16 19
M  V30 19 2 16 20
M  V30 20 1 19 21
M  V30 21 2 19 22
M  V30 22 2 21 23
M  V30 23 1 22 24
M  V30 24 1 22 25
M  V30 25 1 23 26
M  V30 26 2 25 27
M  V30 27 1 25 28
M  V30 28 1 26 29
M  V30 29 1 26 30
M  V30 30 1 26 31
M  V30 31 1 27 32
M  V30 32 2 28 33
M  V30 33 2 32 34
M  V30 34 1 32 35
M  V30 35 1 14 18
M  V30 36 1 17 20
M  V30 37 1 23 24
M  V30 38 1 33 34
M  V30 END BOND
M  V30 END CTAB
M  END
>  <Compound ID>
205

>  <Name>
Dabrafenib

>  <Uniprot>
P06493

>  <Target>
CDK1

>  <Smiles>
CC(C)(C)C1=NC(C2=CC=CC(NS(=O)(=O)C3=C(F)C=CC=C3F)=C2F)=C(C2=CC=NC(N)=N2)S1

>  <Kd (nM)>
>30000

>  <Assay (Kd)>
Kd apparent of CDK1

>  <Ki (nM)>


>  <Assay (Ki)>


>  <IC50 (nM)>


>  <Assay (IC50)>


>  <EC50 (nM)>


>  <Assay (EC50)>


>  <Article DOI>
10.1126/science.aan4368

>  <Molecular Weight>
519.574

>  <Exact Mass>
519.10105154

>  <XLogP3>
4.78

>  <Heavy Atom Count>
35

>  <Ring Count>
4

>  <Hydrogen Bond Acceptor Count>
7

>  <Hydrogen Bond Donor Count>
2

>  <Rotatable Bond Count>
5

>  <Topological Polar Surface Area>
110.86

>  <Molecular Formula>
C23H20F3N5O2S2

>  <InChI>
InChI=1S/C23H20F3N5O2S2/c1-23(2,3)21-30-18(19(34-21)16-10-11-28-22(27)29-16)12-6-4-9-15(17(12)26)31-35(32,33)20-13(24)7-5-8-14(20)25/h4-11,31H,1-3H3,(H2,27,28,29)

>  <InChI Key>
BFSMGDJOXZAERB-UHFFFAOYSA-N

>  <BindingDB>
50428286

>  <PubChem>
44462760

>  <ChEMBL>
CHEMBL2028663

$$$$
Compound 609
Actelion Java MolfileCreator 2.0

  0  0  0  0  0  0              0 V3000
M  V30 BEGIN CTAB
M  V30 COUNTS 35 38 0 0 0
M  V30 BEGIN ATOM
M  V30 1 S 0.0 0.0 0.0 0
M  V30 2 O -0.5997 -1.364 0.0 0
M  V30 3 O 0.5761 1.3875 0.0 0
M  V30 4 N -1.3875 0.5997 0.0 0
M  V30 5 C 1.364 -0.5761 0.0 0
M  V30 6 C -2.5987 -0.2822 0.0 0
M  V30 7 C 1.5286 -2.0578 0.0 0
M  V30 8 C 2.5516 0.3292 0.0 0
M  V30 9 C -3.9862 0.3174 0.0 0
M  V30 10 C -2.4341 -1.7638 0.0 0
M  V30 11 F 0.3174 -2.9397 0.0 0
M  V30 12 C 2.8927 -2.634 0.0 0
M  V30 13 F 2.3635 1.8344 0.0 0
M  V30 14 C 3.9157 -0.2469 0.0 0
M  V30 15 F -4.1744 1.8226 0.0 0
M  V30 16 C -5.1974 -0.5644 0.0 0
M  V30 17 C -3.6452 -2.6457 0.0 0
M  V30 18 C 4.0803 -1.7285 0.0 0
M  V30 19 C -6.585 0.0352 0.0 0
M  V30 20 C -5.0328 -2.046 0.0 0
M  V30 21 N -6.926 1.5051 0.0 0
M  V30 22 C -7.8902 -0.7172 0.0 0
M  V30 23 C -8.4311 1.658 0.0 0
M  V30 24 S -9.0308 0.2822 0.0 0
M  V30 25 C -8.0431 -2.1989 0.0 0
M  V30 26 C -9.2072 2.9632 0.0 0
M  V30 27 N -9.4189 -2.8103 0.0 0
M  V30 28 C -6.8319 -3.0573 0.0 0
M  V30 29 C -10.5125 2.2106 0.0 0
M  V30 30 C -7.9255 3.7393 0.0 0
M  V30 31 C -9.9833 4.2685 0.0 0
M  V30 32 C -9.5718 -4.292 0.0 0
M  V30 33 C -6.9848 -4.5389 0.0 0
M  V30 34 N -8.3606 -5.1504 0.0 0
M  V30 35 N -10.9476 -4.9034 0.0 0
M  V30 END ATOM
M  V30 BEGIN BOND
M  V30 1 2 1 2
M  V30 2 2 1 3
M  V30 3 1 1 4
M  V30 4 1 1 5
M  V30 5 1 4 6
M  V30 6 2 5 7
M  V30 7 1 5 8
M  V30 8 2 6 9
M  V30 9 1 6 10
M  V30 10 1 7 11
M  V30 11 1 7 12
M  V30 12 1 8 13
M  V30 13 2 8 14
M  V30 14 1 9 15
M  V30 15 1 9 16
M  V30 16 2 10 17
M  V30 17 2 12 18
M  V30 18 1 16 19
M  V30 19 2 16 20
M  V30 20 1 19 21
M  V30 21 2 19 22
M  V30 22 2 21 23
M  V30 23 1 22 24
M  V30 24 1 22 25
M  V30 25 1 23 26
M  V30 26 2 25 27
M  V30 27 1 25 28
M  V30 28 1 26 29
M  V30 29 1 26 30
M  V30 30 1 26 31
M  V30 31 1 27 32
M  V30 32 2 28 33
M  V30 33 2 32 34
M  V30 34 1 32 35
M  V30 35 1 14 18
M  V30 36 1 17 20
M  V30 37 1 23 24
M  V30 38 1 33 34
M  V30 END BOND
M  V30 END CTAB
M  END
>  <Compound ID>
205

>  <Name>
Dabrafenib

>  <Uniprot>
P24941

>  <Target>
CDK2

>  <Smiles>
CC(C)(C)C1=NC(C2=CC=CC(NS(=O)(=O)C3=C(F)C=CC=C3F)=C2F)=C(C2=CC=NC(N)=N2)S1

>  <Kd (nM)>


>  <Assay (Kd)>


>  <Ki (nM)>


>  <Assay (Ki)>


>  <IC50 (nM)>


>  <Assay (IC50)>


>  <EC50 (nM)>


>  <Assay (EC50)>


>  <Article DOI>
10.1016/j.cell.2020.10.038

>  <Molecular Weight>
519.574

>  <Exact Mass>
519.10105154

>  <XLogP3>
4.78

>  <Heavy Atom Count>
35

>  <Ring Count>
4

>  <Hydrogen Bond Acceptor Count>
7

>  <Hydrogen Bond Donor Count>
2

>  <Rotatable Bond Count>
5

>  <Topological Polar Surface Area>
110.86

>  <Molecular Formula>
C23H20F3N5O2S2

>  <InChI>
InChI=1S/C23H20F3N5O2S2/c1-23(2,3)21-30-18(19(34-21)16-10-11-28-22(27)29-16)12-6-4-9-15(17(12)26)31-35(32,33)20-13(24)7-5-8-14(20)25/h4-11,31H,1-3H3,(H2,27,28,29)

>  <InChI Key>
BFSMGDJOXZAERB-UHFFFAOYSA-N

>  <BindingDB>
50428286

>  <PubChem>
44462760

>  <ChEMBL>
CHEMBL2028663

$$$$
Compound 610
Actelion Java MolfileCreator 2.0

  0  0  0  0  0  0              0 V3000
M  V30 BEGIN CTAB
M  V30 COUNTS 35 38 0 0 0
M  V30 BEGIN ATOM
M  V30 1 S 0.0 0.0 0.0 0
M  V30 2 O -0.5997 -1.364 0.0 0
M  V30 3 O 0.5761 1.3875 0.0 0
M  V30 4 N -1.3875 0.5997 0.0 0
M  V30 5 C 1.364 -0.5761 0.0 0
M  V30 6 C -2.5987 -0.2822 0.0 0
M  V30 7 C 1.5286 -2.0578 0.0 0
M  V30 8 C 2.5516 0.3292 0.0 0
M  V30 9 C -3.9862 0.3174 0.0 0
M  V30 10 C -2.4341 -1.7638 0.0 0
M  V30 11 F 0.3174 -2.9397 0.0 0
M  V30 12 C 2.8927 -2.634 0.0 0
M  V30 13 F 2.3635 1.8344 0.0 0
M  V30 14 C 3.9157 -0.2469 0.0 0
M  V30 15 F -4.1744 1.8226 0.0 0
M  V30 16 C -5.1974 -0.5644 0.0 0
M  V30 17 C -3.6452 -2.6457 0.0 0
M  V30 18 C 4.0803 -1.7285 0.0 0
M  V30 19 C -6.585 0.0352 0.0 0
M  V30 20 C -5.0328 -2.046 0.0 0
M  V30 21 N -6.926 1.5051 0.0 0
M  V30 22 C -7.8902 -0.7172 0.0 0
M  V30 23 C -8.4311 1.658 0.0 0
M  V30 24 S -9.0308 0.2822 0.0 0
M  V30 25 C -8.0431 -2.1989 0.0 0
M  V30 26 C -9.2072 2.9632 0.0 0
M  V30 27 N -9.4189 -2.8103 0.0 0
M  V30 28 C -6.8319 -3.0573 0.0 0
M  V30 29 C -10.5125 2.2106 0.0 0
M  V30 30 C -7.9255 3.7393 0.0 0
M  V30 31 C -9.9833 4.2685 0.0 0
M  V30 32 C -9.5718 -4.292 0.0 0
M  V30 33 C -6.9848 -4.5389 0.0 0
M  V30 34 N -8.3606 -5.1504 0.0 0
M  V30 35 N -10.9476 -4.9034 0.0 0
M  V30 END ATOM
M  V30 BEGIN BOND
M  V30 1 2 1 2
M  V30 2 2 1 3
M  V30 3 1 1 4
M  V30 4 1 1 5
M  V30 5 1 4 6
M  V30 6 2 5 7
M  V30 7 1 5 8
M  V30 8 2 6 9
M  V30 9 1 6 10
M  V30 10 1 7 11
M  V30 11 1 7 12
M  V30 12 1 8 13
M  V30 13 2 8 14
M  V30 14 1 9 15
M  V30 15 1 9 16
M  V30 16 2 10 17
M  V30 17 2 12 18
M  V30 18 1 16 19
M  V30 19 2 16 20
M  V30 20 1 19 21
M  V30 21 2 19 22
M  V30 22 2 21 23
M  V30 23 1 22 24
M  V30 24 1 22 25
M  V30 25 1 23 26
M  V30 26 2 25 27
M  V30 27 1 25 28
M  V30 28 1 26 29
M  V30 29 1 26 30
M  V30 30 1 26 31
M  V30 31 1 27 32
M  V30 32 2 28 33
M  V30 33 2 32 34
M  V30 34 1 32 35
M  V30 35 1 14 18
M  V30 36 1 17 20
M  V30 37 1 23 24
M  V30 38 1 33 34
M  V30 END BOND
M  V30 END CTAB
M  END
>  <Compound ID>
205

>  <Name>
Dabrafenib

>  <Uniprot>
P11802

>  <Target>
CDK4

>  <Smiles>
CC(C)(C)C1=NC(C2=CC=CC(NS(=O)(=O)C3=C(F)C=CC=C3F)=C2F)=C(C2=CC=NC(N)=N2)S1

>  <Kd (nM)>


>  <Assay (Kd)>


>  <Ki (nM)>


>  <Assay (Ki)>


>  <IC50 (nM)>


>  <Assay (IC50)>


>  <EC50 (nM)>


>  <Assay (EC50)>


>  <Article DOI>
10.1016/j.cell.2020.10.038

>  <Molecular Weight>
519.574

>  <Exact Mass>
519.10105154

>  <XLogP3>
4.78

>  <Heavy Atom Count>
35

>  <Ring Count>
4

>  <Hydrogen Bond Acceptor Count>
7

>  <Hydrogen Bond Donor Count>
2

>  <Rotatable Bond Count>
5

>  <Topological Polar Surface Area>
110.86

>  <Molecular Formula>
C23H20F3N5O2S2

>  <InChI>
InChI=1S/C23H20F3N5O2S2/c1-23(2,3)21-30-18(19(34-21)16-10-11-28-22(27)29-16)12-6-4-9-15(17(12)26)31-35(32,33)20-13(24)7-5-8-14(20)25/h4-11,31H,1-3H3,(H2,27,28,29)

>  <InChI Key>
BFSMGDJOXZAERB-UHFFFAOYSA-N

>  <BindingDB>
50428286

>  <PubChem>
44462760

>  <ChEMBL>
CHEMBL2028663

$$$$
Compound 611
Actelion Java MolfileCreator 2.0

  0  0  0  0  0  0              0 V3000
M  V30 BEGIN CTAB
M  V30 COUNTS 35 38 0 0 0
M  V30 BEGIN ATOM
M  V30 1 S 0.0 0.0 0.0 0
M  V30 2 O -0.5997 -1.364 0.0 0
M  V30 3 O 0.5761 1.3875 0.0 0
M  V30 4 N -1.3875 0.5997 0.0 0
M  V30 5 C 1.364 -0.5761 0.0 0
M  V30 6 C -2.5987 -0.2822 0.0 0
M  V30 7 C 1.5286 -2.0578 0.0 0
M  V30 8 C 2.5516 0.3292 0.0 0
M  V30 9 C -3.9862 0.3174 0.0 0
M  V30 10 C -2.4341 -1.7638 0.0 0
M  V30 11 F 0.3174 -2.9397 0.0 0
M  V30 12 C 2.8927 -2.634 0.0 0
M  V30 13 F 2.3635 1.8344 0.0 0
M  V30 14 C 3.9157 -0.2469 0.0 0
M  V30 15 F -4.1744 1.8226 0.0 0
M  V30 16 C -5.1974 -0.5644 0.0 0
M  V30 17 C -3.6452 -2.6457 0.0 0
M  V30 18 C 4.0803 -1.7285 0.0 0
M  V30 19 C -6.585 0.0352 0.0 0
M  V30 20 C -5.0328 -2.046 0.0 0
M  V30 21 N -6.926 1.5051 0.0 0
M  V30 22 C -7.8902 -0.7172 0.0 0
M  V30 23 C -8.4311 1.658 0.0 0
M  V30 24 S -9.0308 0.2822 0.0 0
M  V30 25 C -8.0431 -2.1989 0.0 0
M  V30 26 C -9.2072 2.9632 0.0 0
M  V30 27 N -9.4189 -2.8103 0.0 0
M  V30 28 C -6.8319 -3.0573 0.0 0
M  V30 29 C -10.5125 2.2106 0.0 0
M  V30 30 C -7.9255 3.7393 0.0 0
M  V30 31 C -9.9833 4.2685 0.0 0
M  V30 32 C -9.5718 -4.292 0.0 0
M  V30 33 C -6.9848 -4.5389 0.0 0
M  V30 34 N -8.3606 -5.1504 0.0 0
M  V30 35 N -10.9476 -4.9034 0.0 0
M  V30 END ATOM
M  V30 BEGIN BOND
M  V30 1 2 1 2
M  V30 2 2 1 3
M  V30 3 1 1 4
M  V30 4 1 1 5
M  V30 5 1 4 6
M  V30 6 2 5 7
M  V30 7 1 5 8
M  V30 8 2 6 9
M  V30 9 1 6 10
M  V30 10 1 7 11
M  V30 11 1 7 12
M  V30 12 1 8 13
M  V30 13 2 8 14
M  V30 14 1 9 15
M  V30 15 1 9 16
M  V30 16 2 10 17
M  V30 17 2 12 18
M  V30 18 1 16 19
M  V30 19 2 16 20
M  V30 20 1 19 21
M  V30 21 2 19 22
M  V30 22 2 21 23
M  V30 23 1 22 24
M  V30 24 1 22 25
M  V30 25 1 23 26
M  V30 26 2 25 27
M  V30 27 1 25 28
M  V30 28 1 26 29
M  V30 29 1 26 30
M  V30 30 1 26 31
M  V30 31 1 27 32
M  V30 32 2 28 33
M  V30 33 2 32 34
M  V30 34 1 32 35
M  V30 35 1 14 18
M  V30 36 1 17 20
M  V30 37 1 23 24
M  V30 38 1 33 34
M  V30 END BOND
M  V30 END CTAB
M  END
>  <Compound ID>
205

>  <Name>
Dabrafenib

>  <Uniprot>
Q00534

>  <Target>
CDK6

>  <Smiles>
CC(C)(C)C1=NC(C2=CC=CC(NS(=O)(=O)C3=C(F)C=CC=C3F)=C2F)=C(C2=CC=NC(N)=N2)S1

>  <Kd (nM)>


>  <Assay (Kd)>


>  <Ki (nM)>


>  <Assay (Ki)>


>  <IC50 (nM)>


>  <Assay (IC50)>


>  <EC50 (nM)>


>  <Assay (EC50)>


>  <Article DOI>
10.1016/j.cell.2020.10.038

>  <Molecular Weight>
519.574

>  <Exact Mass>
519.10105154

>  <XLogP3>
4.78

>  <Heavy Atom Count>
35

>  <Ring Count>
4

>  <Hydrogen Bond Acceptor Count>
7

>  <Hydrogen Bond Donor Count>
2

>  <Rotatable Bond Count>
5

>  <Topological Polar Surface Area>
110.86

>  <Molecular Formula>
C23H20F3N5O2S2

>  <InChI>
InChI=1S/C23H20F3N5O2S2/c1-23(2,3)21-30-18(19(34-21)16-10-11-28-22(27)29-16)12-6-4-9-15(17(12)26)31-35(32,33)20-13(24)7-5-8-14(20)25/h4-11,31H,1-3H3,(H2,27,28,29)

>  <InChI Key>
BFSMGDJOXZAERB-UHFFFAOYSA-N

>  <BindingDB>
50428286

>  <PubChem>
44462760

>  <ChEMBL>
CHEMBL2028663

$$$$
Compound 612
Actelion Java MolfileCreator 2.0

  0  0  0  0  0  0              0 V3000
M  V30 BEGIN CTAB
M  V30 COUNTS 35 38 0 0 0
M  V30 BEGIN ATOM
M  V30 1 S 0.0 0.0 0.0 0
M  V30 2 O -0.5997 -1.364 0.0 0
M  V30 3 O 0.5761 1.3875 0.0 0
M  V30 4 N -1.3875 0.5997 0.0 0
M  V30 5 C 1.364 -0.5761 0.0 0
M  V30 6 C -2.5987 -0.2822 0.0 0
M  V30 7 C 1.5286 -2.0578 0.0 0
M  V30 8 C 2.5516 0.3292 0.0 0
M  V30 9 C -3.9862 0.3174 0.0 0
M  V30 10 C -2.4341 -1.7638 0.0 0
M  V30 11 F 0.3174 -2.9397 0.0 0
M  V30 12 C 2.8927 -2.634 0.0 0
M  V30 13 F 2.3635 1.8344 0.0 0
M  V30 14 C 3.9157 -0.2469 0.0 0
M  V30 15 F -4.1744 1.8226 0.0 0
M  V30 16 C -5.1974 -0.5644 0.0 0
M  V30 17 C -3.6452 -2.6457 0.0 0
M  V30 18 C 4.0803 -1.7285 0.0 0
M  V30 19 C -6.585 0.0352 0.0 0
M  V30 20 C -5.0328 -2.046 0.0 0
M  V30 21 N -6.926 1.5051 0.0 0
M  V30 22 C -7.8902 -0.7172 0.0 0
M  V30 23 C -8.4311 1.658 0.0 0
M  V30 24 S -9.0308 0.2822 0.0 0
M  V30 25 C -8.0431 -2.1989 0.0 0
M  V30 26 C -9.2072 2.9632 0.0 0
M  V30 27 N -9.4189 -2.8103 0.0 0
M  V30 28 C -6.8319 -3.0573 0.0 0
M  V30 29 C -10.5125 2.2106 0.0 0
M  V30 30 C -7.9255 3.7393 0.0 0
M  V30 31 C -9.9833 4.2685 0.0 0
M  V30 32 C -9.5718 -4.292 0.0 0
M  V30 33 C -6.9848 -4.5389 0.0 0
M  V30 34 N -8.3606 -5.1504 0.0 0
M  V30 35 N -10.9476 -4.9034 0.0 0
M  V30 END ATOM
M  V30 BEGIN BOND
M  V30 1 2 1 2
M  V30 2 2 1 3
M  V30 3 1 1 4
M  V30 4 1 1 5
M  V30 5 1 4 6
M  V30 6 2 5 7
M  V30 7 1 5 8
M  V30 8 2 6 9
M  V30 9 1 6 10
M  V30 10 1 7 11
M  V30 11 1 7 12
M  V30 12 1 8 13
M  V30 13 2 8 14
M  V30 14 1 9 15
M  V30 15 1 9 16
M  V30 16 2 10 17
M  V30 17 2 12 18
M  V30 18 1 16 19
M  V30 19 2 16 20
M  V30 20 1 19 21
M  V30 21 2 19 22
M  V30 22 2 21 23
M  V30 23 1 22 24
M  V30 24 1 22 25
M  V30 25 1 23 26
M  V30 26 2 25 27
M  V30 27 1 25 28
M  V30 28 1 26 29
M  V30 29 1 26 30
M  V30 30 1 26 31
M  V30 31 1 27 32
M  V30 32 2 28 33
M  V30 33 2 32 34
M  V30 34 1 32 35
M  V30 35 1 14 18
M  V30 36 1 17 20
M  V30 37 1 23 24
M  V30 38 1 33 34
M  V30 END BOND
M  V30 END CTAB
M  END
>  <Compound ID>
205

>  <Name>
Dabrafenib

>  <Uniprot>
Q8NI60

>  <Target>
COQ8A

>  <Smiles>
CC(C)(C)C1=NC(C2=CC=CC(NS(=O)(=O)C3=C(F)C=CC=C3F)=C2F)=C(C2=CC=NC(N)=N2)S1

>  <Kd (nM)>


>  <Assay (Kd)>


>  <Ki (nM)>


>  <Assay (Ki)>


>  <IC50 (nM)>


>  <Assay (IC50)>


>  <EC50 (nM)>


>  <Assay (EC50)>


>  <Article DOI>
10.1016/j.cell.2020.10.038

>  <Molecular Weight>
519.574

>  <Exact Mass>
519.10105154

>  <XLogP3>
4.78

>  <Heavy Atom Count>
35

>  <Ring Count>
4

>  <Hydrogen Bond Acceptor Count>
7

>  <Hydrogen Bond Donor Count>
2

>  <Rotatable Bond Count>
5

>  <Topological Polar Surface Area>
110.86

>  <Molecular Formula>
C23H20F3N5O2S2

>  <InChI>
InChI=1S/C23H20F3N5O2S2/c1-23(2,3)21-30-18(19(34-21)16-10-11-28-22(27)29-16)12-6-4-9-15(17(12)26)31-35(32,33)20-13(24)7-5-8-14(20)25/h4-11,31H,1-3H3,(H2,27,28,29)

>  <InChI Key>
BFSMGDJOXZAERB-UHFFFAOYSA-N

>  <BindingDB>
50428286

>  <PubChem>
44462760

>  <ChEMBL>
CHEMBL2028663

$$$$
Compound 613
Actelion Java MolfileCreator 2.0

  0  0  0  0  0  0              0 V3000
M  V30 BEGIN CTAB
M  V30 COUNTS 35 38 0 0 0
M  V30 BEGIN ATOM
M  V30 1 S 0.0 0.0 0.0 0
M  V30 2 O -0.5997 -1.364 0.0 0
M  V30 3 O 0.5761 1.3875 0.0 0
M  V30 4 N -1.3875 0.5997 0.0 0
M  V30 5 C 1.364 -0.5761 0.0 0
M  V30 6 C -2.5987 -0.2822 0.0 0
M  V30 7 C 1.5286 -2.0578 0.0 0
M  V30 8 C 2.5516 0.3292 0.0 0
M  V30 9 C -3.9862 0.3174 0.0 0
M  V30 10 C -2.4341 -1.7638 0.0 0
M  V30 11 F 0.3174 -2.9397 0.0 0
M  V30 12 C 2.8927 -2.634 0.0 0
M  V30 13 F 2.3635 1.8344 0.0 0
M  V30 14 C 3.9157 -0.2469 0.0 0
M  V30 15 F -4.1744 1.8226 0.0 0
M  V30 16 C -5.1974 -0.5644 0.0 0
M  V30 17 C -3.6452 -2.6457 0.0 0
M  V30 18 C 4.0803 -1.7285 0.0 0
M  V30 19 C -6.585 0.0352 0.0 0
M  V30 20 C -5.0328 -2.046 0.0 0
M  V30 21 N -6.926 1.5051 0.0 0
M  V30 22 C -7.8902 -0.7172 0.0 0
M  V30 23 C -8.4311 1.658 0.0 0
M  V30 24 S -9.0308 0.2822 0.0 0
M  V30 25 C -8.0431 -2.1989 0.0 0
M  V30 26 C -9.2072 2.9632 0.0 0
M  V30 27 N -9.4189 -2.8103 0.0 0
M  V30 28 C -6.8319 -3.0573 0.0 0
M  V30 29 C -10.5125 2.2106 0.0 0
M  V30 30 C -7.9255 3.7393 0.0 0
M  V30 31 C -9.9833 4.2685 0.0 0
M  V30 32 C -9.5718 -4.292 0.0 0
M  V30 33 C -6.9848 -4.5389 0.0 0
M  V30 34 N -8.3606 -5.1504 0.0 0
M  V30 35 N -10.9476 -4.9034 0.0 0
M  V30 END ATOM
M  V30 BEGIN BOND
M  V30 1 2 1 2
M  V30 2 2 1 3
M  V30 3 1 1 4
M  V30 4 1 1 5
M  V30 5 1 4 6
M  V30 6 2 5 7
M  V30 7 1 5 8
M  V30 8 2 6 9
M  V30 9 1 6 10
M  V30 10 1 7 11
M  V30 11 1 7 12
M  V30 12 1 8 13
M  V30 13 2 8 14
M  V30 14 1 9 15
M  V30 15 1 9 16
M  V30 16 2 10 17
M  V30 17 2 12 18
M  V30 18 1 16 19
M  V30 19 2 16 20
M  V30 20 1 19 21
M  V30 21 2 19 22
M  V30 22 2 21 23
M  V30 23 1 22 24
M  V30 24 1 22 25
M  V30 25 1 23 26
M  V30 26 2 25 27
M  V30 27 1 25 28
M  V30 28 1 26 29
M  V30 29 1 26 30
M  V30 30 1 26 31
M  V30 31 1 27 32
M  V30 32 2 28 33
M  V30 33 2 32 34
M  V30 34 1 32 35
M  V30 35 1 14 18
M  V30 36 1 17 20
M  V30 37 1 23 24
M  V30 38 1 33 34
M  V30 END BOND
M  V30 END CTAB
M  END
>  <Compound ID>
205

>  <Name>
Dabrafenib

>  <Uniprot>
Q96D53

>  <Target>
COQ8B

>  <Smiles>
CC(C)(C)C1=NC(C2=CC=CC(NS(=O)(=O)C3=C(F)C=CC=C3F)=C2F)=C(C2=CC=NC(N)=N2)S1

>  <Kd (nM)>


>  <Assay (Kd)>


>  <Ki (nM)>


>  <Assay (Ki)>


>  <IC50 (nM)>


>  <Assay (IC50)>


>  <EC50 (nM)>


>  <Assay (EC50)>


>  <Article DOI>
10.1016/j.cell.2020.10.038

>  <Molecular Weight>
519.574

>  <Exact Mass>
519.10105154

>  <XLogP3>
4.78

>  <Heavy Atom Count>
35

>  <Ring Count>
4

>  <Hydrogen Bond Acceptor Count>
7

>  <Hydrogen Bond Donor Count>
2

>  <Rotatable Bond Count>
5

>  <Topological Polar Surface Area>
110.86

>  <Molecular Formula>
C23H20F3N5O2S2

>  <InChI>
InChI=1S/C23H20F3N5O2S2/c1-23(2,3)21-30-18(19(34-21)16-10-11-28-22(27)29-16)12-6-4-9-15(17(12)26)31-35(32,33)20-13(24)7-5-8-14(20)25/h4-11,31H,1-3H3,(H2,27,28,29)

>  <InChI Key>
BFSMGDJOXZAERB-UHFFFAOYSA-N

>  <BindingDB>
50428286

>  <PubChem>
44462760

>  <ChEMBL>
CHEMBL2028663

$$$$
Compound 614
Actelion Java MolfileCreator 2.0

  0  0  0  0  0  0              0 V3000
M  V30 BEGIN CTAB
M  V30 COUNTS 35 38 0 0 0
M  V30 BEGIN ATOM
M  V30 1 S 0.0 0.0 0.0 0
M  V30 2 O -0.5997 -1.364 0.0 0
M  V30 3 O 0.5761 1.3875 0.0 0
M  V30 4 N -1.3875 0.5997 0.0 0
M  V30 5 C 1.364 -0.5761 0.0 0
M  V30 6 C -2.5987 -0.2822 0.0 0
M  V30 7 C 1.5286 -2.0578 0.0 0
M  V30 8 C 2.5516 0.3292 0.0 0
M  V30 9 C -3.9862 0.3174 0.0 0
M  V30 10 C -2.4341 -1.7638 0.0 0
M  V30 11 F 0.3174 -2.9397 0.0 0
M  V30 12 C 2.8927 -2.634 0.0 0
M  V30 13 F 2.3635 1.8344 0.0 0
M  V30 14 C 3.9157 -0.2469 0.0 0
M  V30 15 F -4.1744 1.8226 0.0 0
M  V30 16 C -5.1974 -0.5644 0.0 0
M  V30 17 C -3.6452 -2.6457 0.0 0
M  V30 18 C 4.0803 -1.7285 0.0 0
M  V30 19 C -6.585 0.0352 0.0 0
M  V30 20 C -5.0328 -2.046 0.0 0
M  V30 21 N -6.926 1.5051 0.0 0
M  V30 22 C -7.8902 -0.7172 0.0 0
M  V30 23 C -8.4311 1.658 0.0 0
M  V30 24 S -9.0308 0.2822 0.0 0
M  V30 25 C -8.0431 -2.1989 0.0 0
M  V30 26 C -9.2072 2.9632 0.0 0
M  V30 27 N -9.4189 -2.8103 0.0 0
M  V30 28 C -6.8319 -3.0573 0.0 0
M  V30 29 C -10.5125 2.2106 0.0 0
M  V30 30 C -7.9255 3.7393 0.0 0
M  V30 31 C -9.9833 4.2685 0.0 0
M  V30 32 C -9.5718 -4.292 0.0 0
M  V30 33 C -6.9848 -4.5389 0.0 0
M  V30 34 N -8.3606 -5.1504 0.0 0
M  V30 35 N -10.9476 -4.9034 0.0 0
M  V30 END ATOM
M  V30 BEGIN BOND
M  V30 1 2 1 2
M  V30 2 2 1 3
M  V30 3 1 1 4
M  V30 4 1 1 5
M  V30 5 1 4 6
M  V30 6 2 5 7
M  V30 7 1 5 8
M  V30 8 2 6 9
M  V30 9 1 6 10
M  V30 10 1 7 11
M  V30 11 1 7 12
M  V30 12 1 8 13
M  V30 13 2 8 14
M  V30 14 1 9 15
M  V30 15 1 9 16
M  V30 16 2 10 17
M  V30 17 2 12 18
M  V30 18 1 16 19
M  V30 19 2 16 20
M  V30 20 1 19 21
M  V30 21 2 19 22
M  V30 22 2 21 23
M  V30 23 1 22 24
M  V30 24 1 22 25
M  V30 25 1 23 26
M  V30 26 2 25 27
M  V30 27 1 25 28
M  V30 28 1 26 29
M  V30 29 1 26 30
M  V30 30 1 26 31
M  V30 31 1 27 32
M  V30 32 2 28 33
M  V30 33 2 32 34
M  V30 34 1 32 35
M  V30 35 1 14 18
M  V30 36 1 17 20
M  V30 37 1 23 24
M  V30 38 1 33 34
M  V30 END BOND
M  V30 END CTAB
M  END
>  <Compound ID>
205

>  <Name>
Dabrafenib

>  <Uniprot>
P41240

>  <Target>
CSK

>  <Smiles>
CC(C)(C)C1=NC(C2=CC=CC(NS(=O)(=O)C3=C(F)C=CC=C3F)=C2F)=C(C2=CC=NC(N)=N2)S1

>  <Kd (nM)>
851

>  <Assay (Kd)>
Kd apparent of CSK

>  <Ki (nM)>


>  <Assay (Ki)>


>  <IC50 (nM)>


>  <Assay (IC50)>


>  <EC50 (nM)>


>  <Assay (EC50)>


>  <Article DOI>
10.1126/science.aan4368

>  <Molecular Weight>
519.574

>  <Exact Mass>
519.10105154

>  <XLogP3>
4.78

>  <Heavy Atom Count>
35

>  <Ring Count>
4

>  <Hydrogen Bond Acceptor Count>
7

>  <Hydrogen Bond Donor Count>
2

>  <Rotatable Bond Count>
5

>  <Topological Polar Surface Area>
110.86

>  <Molecular Formula>
C23H20F3N5O2S2

>  <InChI>
InChI=1S/C23H20F3N5O2S2/c1-23(2,3)21-30-18(19(34-21)16-10-11-28-22(27)29-16)12-6-4-9-15(17(12)26)31-35(32,33)20-13(24)7-5-8-14(20)25/h4-11,31H,1-3H3,(H2,27,28,29)

>  <InChI Key>
BFSMGDJOXZAERB-UHFFFAOYSA-N

>  <BindingDB>
50428286

>  <PubChem>
44462760

>  <ChEMBL>
CHEMBL2028663

$$$$
Compound 615
Actelion Java MolfileCreator 2.0

  0  0  0  0  0  0              0 V3000
M  V30 BEGIN CTAB
M  V30 COUNTS 35 38 0 0 0
M  V30 BEGIN ATOM
M  V30 1 S 0.0 0.0 0.0 0
M  V30 2 O -0.5997 -1.364 0.0 0
M  V30 3 O 0.5761 1.3875 0.0 0
M  V30 4 N -1.3875 0.5997 0.0 0
M  V30 5 C 1.364 -0.5761 0.0 0
M  V30 6 C -2.5987 -0.2822 0.0 0
M  V30 7 C 1.5286 -2.0578 0.0 0
M  V30 8 C 2.5516 0.3292 0.0 0
M  V30 9 C -3.9862 0.3174 0.0 0
M  V30 10 C -2.4341 -1.7638 0.0 0
M  V30 11 F 0.3174 -2.9397 0.0 0
M  V30 12 C 2.8927 -2.634 0.0 0
M  V30 13 F 2.3635 1.8344 0.0 0
M  V30 14 C 3.9157 -0.2469 0.0 0
M  V30 15 F -4.1744 1.8226 0.0 0
M  V30 16 C -5.1974 -0.5644 0.0 0
M  V30 17 C -3.6452 -2.6457 0.0 0
M  V30 18 C 4.0803 -1.7285 0.0 0
M  V30 19 C -6.585 0.0352 0.0 0
M  V30 20 C -5.0328 -2.046 0.0 0
M  V30 21 N -6.926 1.5051 0.0 0
M  V30 22 C -7.8902 -0.7172 0.0 0
M  V30 23 C -8.4311 1.658 0.0 0
M  V30 24 S -9.0308 0.2822 0.0 0
M  V30 25 C -8.0431 -2.1989 0.0 0
M  V30 26 C -9.2072 2.9632 0.0 0
M  V30 27 N -9.4189 -2.8103 0.0 0
M  V30 28 C -6.8319 -3.0573 0.0 0
M  V30 29 C -10.5125 2.2106 0.0 0
M  V30 30 C -7.9255 3.7393 0.0 0
M  V30 31 C -9.9833 4.2685 0.0 0
M  V30 32 C -9.5718 -4.292 0.0 0
M  V30 33 C -6.9848 -4.5389 0.0 0
M  V30 34 N -8.3606 -5.1504 0.0 0
M  V30 35 N -10.9476 -4.9034 0.0 0
M  V30 END ATOM
M  V30 BEGIN BOND
M  V30 1 2 1 2
M  V30 2 2 1 3
M  V30 3 1 1 4
M  V30 4 1 1 5
M  V30 5 1 4 6
M  V30 6 2 5 7
M  V30 7 1 5 8
M  V30 8 2 6 9
M  V30 9 1 6 10
M  V30 10 1 7 11
M  V30 11 1 7 12
M  V30 12 1 8 13
M  V30 13 2 8 14
M  V30 14 1 9 15
M  V30 15 1 9 16
M  V30 16 2 10 17
M  V30 17 2 12 18
M  V30 18 1 16 19
M  V30 19 2 16 20
M  V30 20 1 19 21
M  V30 21 2 19 22
M  V30 22 2 21 23
M  V30 23 1 22 24
M  V30 24 1 22 25
M  V30 25 1 23 26
M  V30 26 2 25 27
M  V30 27 1 25 28
M  V30 28 1 26 29
M  V30 29 1 26 30
M  V30 30 1 26 31
M  V30 31 1 27 32
M  V30 32 2 28 33
M  V30 33 2 32 34
M  V30 34 1 32 35
M  V30 35 1 14 18
M  V30 36 1 17 20
M  V30 37 1 23 24
M  V30 38 1 33 34
M  V30 END BOND
M  V30 END CTAB
M  END
>  <Compound ID>
205

>  <Name>
Dabrafenib

>  <Uniprot>
P19525

>  <Target>
EIF2AK2

>  <Smiles>
CC(C)(C)C1=NC(C2=CC=CC(NS(=O)(=O)C3=C(F)C=CC=C3F)=C2F)=C(C2=CC=NC(N)=N2)S1

>  <Kd (nM)>


>  <Assay (Kd)>


>  <Ki (nM)>


>  <Assay (Ki)>


>  <IC50 (nM)>


>  <Assay (IC50)>


>  <EC50 (nM)>


>  <Assay (EC50)>


>  <Article DOI>
10.1016/j.cell.2020.10.038

>  <Molecular Weight>
519.574

>  <Exact Mass>
519.10105154

>  <XLogP3>
4.78

>  <Heavy Atom Count>
35

>  <Ring Count>
4

>  <Hydrogen Bond Acceptor Count>
7

>  <Hydrogen Bond Donor Count>
2

>  <Rotatable Bond Count>
5

>  <Topological Polar Surface Area>
110.86

>  <Molecular Formula>
C23H20F3N5O2S2

>  <InChI>
InChI=1S/C23H20F3N5O2S2/c1-23(2,3)21-30-18(19(34-21)16-10-11-28-22(27)29-16)12-6-4-9-15(17(12)26)31-35(32,33)20-13(24)7-5-8-14(20)25/h4-11,31H,1-3H3,(H2,27,28,29)

>  <InChI Key>
BFSMGDJOXZAERB-UHFFFAOYSA-N

>  <BindingDB>
50428286

>  <PubChem>
44462760

>  <ChEMBL>
CHEMBL2028663

$$$$
Compound 616
Actelion Java MolfileCreator 2.0

  0  0  0  0  0  0              0 V3000
M  V30 BEGIN CTAB
M  V30 COUNTS 35 38 0 0 0
M  V30 BEGIN ATOM
M  V30 1 S 0.0 0.0 0.0 0
M  V30 2 O -0.5997 -1.364 0.0 0
M  V30 3 O 0.5761 1.3875 0.0 0
M  V30 4 N -1.3875 0.5997 0.0 0
M  V30 5 C 1.364 -0.5761 0.0 0
M  V30 6 C -2.5987 -0.2822 0.0 0
M  V30 7 C 1.5286 -2.0578 0.0 0
M  V30 8 C 2.5516 0.3292 0.0 0
M  V30 9 C -3.9862 0.3174 0.0 0
M  V30 10 C -2.4341 -1.7638 0.0 0
M  V30 11 F 0.3174 -2.9397 0.0 0
M  V30 12 C 2.8927 -2.634 0.0 0
M  V30 13 F 2.3635 1.8344 0.0 0
M  V30 14 C 3.9157 -0.2469 0.0 0
M  V30 15 F -4.1744 1.8226 0.0 0
M  V30 16 C -5.1974 -0.5644 0.0 0
M  V30 17 C -3.6452 -2.6457 0.0 0
M  V30 18 C 4.0803 -1.7285 0.0 0
M  V30 19 C -6.585 0.0352 0.0 0
M  V30 20 C -5.0328 -2.046 0.0 0
M  V30 21 N -6.926 1.5051 0.0 0
M  V30 22 C -7.8902 -0.7172 0.0 0
M  V30 23 C -8.4311 1.658 0.0 0
M  V30 24 S -9.0308 0.2822 0.0 0
M  V30 25 C -8.0431 -2.1989 0.0 0
M  V30 26 C -9.2072 2.9632 0.0 0
M  V30 27 N -9.4189 -2.8103 0.0 0
M  V30 28 C -6.8319 -3.0573 0.0 0
M  V30 29 C -10.5125 2.2106 0.0 0
M  V30 30 C -7.9255 3.7393 0.0 0
M  V30 31 C -9.9833 4.2685 0.0 0
M  V30 32 C -9.5718 -4.292 0.0 0
M  V30 33 C -6.9848 -4.5389 0.0 0
M  V30 34 N -8.3606 -5.1504 0.0 0
M  V30 35 N -10.9476 -4.9034 0.0 0
M  V30 END ATOM
M  V30 BEGIN BOND
M  V30 1 2 1 2
M  V30 2 2 1 3
M  V30 3 1 1 4
M  V30 4 1 1 5
M  V30 5 1 4 6
M  V30 6 2 5 7
M  V30 7 1 5 8
M  V30 8 2 6 9
M  V30 9 1 6 10
M  V30 10 1 7 11
M  V30 11 1 7 12
M  V30 12 1 8 13
M  V30 13 2 8 14
M  V30 14 1 9 15
M  V30 15 1 9 16
M  V30 16 2 10 17
M  V30 17 2 12 18
M  V30 18 1 16 19
M  V30 19 2 16 20
M  V30 20 1 19 21
M  V30 21 2 19 22
M  V30 22 2 21 23
M  V30 23 1 22 24
M  V30 24 1 22 25
M  V30 25 1 23 26
M  V30 26 2 25 27
M  V30 27 1 25 28
M  V30 28 1 26 29
M  V30 29 1 26 30
M  V30 30 1 26 31
M  V30 31 1 27 32
M  V30 32 2 28 33
M  V30 33 2 32 34
M  V30 34 1 32 35
M  V30 35 1 14 18
M  V30 36 1 17 20
M  V30 37 1 23 24
M  V30 38 1 33 34
M  V30 END BOND
M  V30 END CTAB
M  END
>  <Compound ID>
205

>  <Name>
Dabrafenib

>  <Uniprot>
P53667

>  <Target>
LIMK1

>  <Smiles>
CC(C)(C)C1=NC(C2=CC=CC(NS(=O)(=O)C3=C(F)C=CC=C3F)=C2F)=C(C2=CC=NC(N)=N2)S1

>  <Kd (nM)>


>  <Assay (Kd)>


>  <Ki (nM)>


>  <Assay (Ki)>


>  <IC50 (nM)>


>  <Assay (IC50)>


>  <EC50 (nM)>


>  <Assay (EC50)>


>  <Article DOI>
10.1016/j.cell.2020.10.038

>  <Molecular Weight>
519.574

>  <Exact Mass>
519.10105154

>  <XLogP3>
4.78

>  <Heavy Atom Count>
35

>  <Ring Count>
4

>  <Hydrogen Bond Acceptor Count>
7

>  <Hydrogen Bond Donor Count>
2

>  <Rotatable Bond Count>
5

>  <Topological Polar Surface Area>
110.86

>  <Molecular Formula>
C23H20F3N5O2S2

>  <InChI>
InChI=1S/C23H20F3N5O2S2/c1-23(2,3)21-30-18(19(34-21)16-10-11-28-22(27)29-16)12-6-4-9-15(17(12)26)31-35(32,33)20-13(24)7-5-8-14(20)25/h4-11,31H,1-3H3,(H2,27,28,29)

>  <InChI Key>
BFSMGDJOXZAERB-UHFFFAOYSA-N

>  <BindingDB>
50428286

>  <PubChem>
44462760

>  <ChEMBL>
CHEMBL2028663

$$$$
Compound 617
Actelion Java MolfileCreator 2.0

  0  0  0  0  0  0              0 V3000
M  V30 BEGIN CTAB
M  V30 COUNTS 35 38 0 0 0
M  V30 BEGIN ATOM
M  V30 1 S 0.0 0.0 0.0 0
M  V30 2 O -0.5997 -1.364 0.0 0
M  V30 3 O 0.5761 1.3875 0.0 0
M  V30 4 N -1.3875 0.5997 0.0 0
M  V30 5 C 1.364 -0.5761 0.0 0
M  V30 6 C -2.5987 -0.2822 0.0 0
M  V30 7 C 1.5286 -2.0578 0.0 0
M  V30 8 C 2.5516 0.3292 0.0 0
M  V30 9 C -3.9862 0.3174 0.0 0
M  V30 10 C -2.4341 -1.7638 0.0 0
M  V30 11 F 0.3174 -2.9397 0.0 0
M  V30 12 C 2.8927 -2.634 0.0 0
M  V30 13 F 2.3635 1.8344 0.0 0
M  V30 14 C 3.9157 -0.2469 0.0 0
M  V30 15 F -4.1744 1.8226 0.0 0
M  V30 16 C -5.1974 -0.5644 0.0 0
M  V30 17 C -3.6452 -2.6457 0.0 0
M  V30 18 C 4.0803 -1.7285 0.0 0
M  V30 19 C -6.585 0.0352 0.0 0
M  V30 20 C -5.0328 -2.046 0.0 0
M  V30 21 N -6.926 1.5051 0.0 0
M  V30 22 C -7.8902 -0.7172 0.0 0
M  V30 23 C -8.4311 1.658 0.0 0
M  V30 24 S -9.0308 0.2822 0.0 0
M  V30 25 C -8.0431 -2.1989 0.0 0
M  V30 26 C -9.2072 2.9632 0.0 0
M  V30 27 N -9.4189 -2.8103 0.0 0
M  V30 28 C -6.8319 -3.0573 0.0 0
M  V30 29 C -10.5125 2.2106 0.0 0
M  V30 30 C -7.9255 3.7393 0.0 0
M  V30 31 C -9.9833 4.2685 0.0 0
M  V30 32 C -9.5718 -4.292 0.0 0
M  V30 33 C -6.9848 -4.5389 0.0 0
M  V30 34 N -8.3606 -5.1504 0.0 0
M  V30 35 N -10.9476 -4.9034 0.0 0
M  V30 END ATOM
M  V30 BEGIN BOND
M  V30 1 2 1 2
M  V30 2 2 1 3
M  V30 3 1 1 4
M  V30 4 1 1 5
M  V30 5 1 4 6
M  V30 6 2 5 7
M  V30 7 1 5 8
M  V30 8 2 6 9
M  V30 9 1 6 10
M  V30 10 1 7 11
M  V30 11 1 7 12
M  V30 12 1 8 13
M  V30 13 2 8 14
M  V30 14 1 9 15
M  V30 15 1 9 16
M  V30 16 2 10 17
M  V30 17 2 12 18
M  V30 18 1 16 19
M  V30 19 2 16 20
M  V30 20 1 19 21
M  V30 21 2 19 22
M  V30 22 2 21 23
M  V30 23 1 22 24
M  V30 24 1 22 25
M  V30 25 1 23 26
M  V30 26 2 25 27
M  V30 27 1 25 28
M  V30 28 1 26 29
M  V30 29 1 26 30
M  V30 30 1 26 31
M  V30 31 1 27 32
M  V30 32 2 28 33
M  V30 33 2 32 34
M  V30 34 1 32 35
M  V30 35 1 14 18
M  V30 36 1 17 20
M  V30 37 1 23 24
M  V30 38 1 33 34
M  V30 END BOND
M  V30 END CTAB
M  END
>  <Compound ID>
205

>  <Name>
Dabrafenib

>  <Uniprot>
P53671

>  <Target>
LIMK2

>  <Smiles>
CC(C)(C)C1=NC(C2=CC=CC(NS(=O)(=O)C3=C(F)C=CC=C3F)=C2F)=C(C2=CC=NC(N)=N2)S1

>  <Kd (nM)>


>  <Assay (Kd)>


>  <Ki (nM)>


>  <Assay (Ki)>


>  <IC50 (nM)>


>  <Assay (IC50)>


>  <EC50 (nM)>


>  <Assay (EC50)>


>  <Article DOI>
10.1016/j.cell.2020.10.038

>  <Molecular Weight>
519.574

>  <Exact Mass>
519.10105154

>  <XLogP3>
4.78

>  <Heavy Atom Count>
35

>  <Ring Count>
4

>  <Hydrogen Bond Acceptor Count>
7

>  <Hydrogen Bond Donor Count>
2

>  <Rotatable Bond Count>
5

>  <Topological Polar Surface Area>
110.86

>  <Molecular Formula>
C23H20F3N5O2S2

>  <InChI>
InChI=1S/C23H20F3N5O2S2/c1-23(2,3)21-30-18(19(34-21)16-10-11-28-22(27)29-16)12-6-4-9-15(17(12)26)31-35(32,33)20-13(24)7-5-8-14(20)25/h4-11,31H,1-3H3,(H2,27,28,29)

>  <InChI Key>
BFSMGDJOXZAERB-UHFFFAOYSA-N

>  <BindingDB>
50428286

>  <PubChem>
44462760

>  <ChEMBL>
CHEMBL2028663

$$$$
Compound 618
Actelion Java MolfileCreator 2.0

  0  0  0  0  0  0              0 V3000
M  V30 BEGIN CTAB
M  V30 COUNTS 35 38 0 0 0
M  V30 BEGIN ATOM
M  V30 1 S 0.0 0.0 0.0 0
M  V30 2 O -0.5997 -1.364 0.0 0
M  V30 3 O 0.5761 1.3875 0.0 0
M  V30 4 N -1.3875 0.5997 0.0 0
M  V30 5 C 1.364 -0.5761 0.0 0
M  V30 6 C -2.5987 -0.2822 0.0 0
M  V30 7 C 1.5286 -2.0578 0.0 0
M  V30 8 C 2.5516 0.3292 0.0 0
M  V30 9 C -3.9862 0.3174 0.0 0
M  V30 10 C -2.4341 -1.7638 0.0 0
M  V30 11 F 0.3174 -2.9397 0.0 0
M  V30 12 C 2.8927 -2.634 0.0 0
M  V30 13 F 2.3635 1.8344 0.0 0
M  V30 14 C 3.9157 -0.2469 0.0 0
M  V30 15 F -4.1744 1.8226 0.0 0
M  V30 16 C -5.1974 -0.5644 0.0 0
M  V30 17 C -3.6452 -2.6457 0.0 0
M  V30 18 C 4.0803 -1.7285 0.0 0
M  V30 19 C -6.585 0.0352 0.0 0
M  V30 20 C -5.0328 -2.046 0.0 0
M  V30 21 N -6.926 1.5051 0.0 0
M  V30 22 C -7.8902 -0.7172 0.0 0
M  V30 23 C -8.4311 1.658 0.0 0
M  V30 24 S -9.0308 0.2822 0.0 0
M  V30 25 C -8.0431 -2.1989 0.0 0
M  V30 26 C -9.2072 2.9632 0.0 0
M  V30 27 N -9.4189 -2.8103 0.0 0
M  V30 28 C -6.8319 -3.0573 0.0 0
M  V30 29 C -10.5125 2.2106 0.0 0
M  V30 30 C -7.9255 3.7393 0.0 0
M  V30 31 C -9.9833 4.2685 0.0 0
M  V30 32 C -9.5718 -4.292 0.0 0
M  V30 33 C -6.9848 -4.5389 0.0 0
M  V30 34 N -8.3606 -5.1504 0.0 0
M  V30 35 N -10.9476 -4.9034 0.0 0
M  V30 END ATOM
M  V30 BEGIN BOND
M  V30 1 2 1 2
M  V30 2 2 1 3
M  V30 3 1 1 4
M  V30 4 1 1 5
M  V30 5 1 4 6
M  V30 6 2 5 7
M  V30 7 1 5 8
M  V30 8 2 6 9
M  V30 9 1 6 10
M  V30 10 1 7 11
M  V30 11 1 7 12
M  V30 12 1 8 13
M  V30 13 2 8 14
M  V30 14 1 9 15
M  V30 15 1 9 16
M  V30 16 2 10 17
M  V30 17 2 12 18
M  V30 18 1 16 19
M  V30 19 2 16 20
M  V30 20 1 19 21
M  V30 21 2 19 22
M  V30 22 2 21 23
M  V30 23 1 22 24
M  V30 24 1 22 25
M  V30 25 1 23 26
M  V30 26 2 25 27
M  V30 27 1 25 28
M  V30 28 1 26 29
M  V30 29 1 26 30
M  V30 30 1 26 31
M  V30 31 1 27 32
M  V30 32 2 28 33
M  V30 33 2 32 34
M  V30 34 1 32 35
M  V30 35 1 14 18
M  V30 36 1 17 20
M  V30 37 1 23 24
M  V30 38 1 33 34
M  V30 END BOND
M  V30 END CTAB
M  END
>  <Compound ID>
205

>  <Name>
Dabrafenib

>  <Uniprot>
Q9NYL2

>  <Target>
MAP3K20

>  <Smiles>
CC(C)(C)C1=NC(C2=CC=CC(NS(=O)(=O)C3=C(F)C=CC=C3F)=C2F)=C(C2=CC=NC(N)=N2)S1

>  <Kd (nM)>


>  <Assay (Kd)>


>  <Ki (nM)>


>  <Assay (Ki)>


>  <IC50 (nM)>


>  <Assay (IC50)>


>  <EC50 (nM)>


>  <Assay (EC50)>


>  <Article DOI>
10.1016/j.cell.2020.10.038

>  <Molecular Weight>
519.574

>  <Exact Mass>
519.10105154

>  <XLogP3>
4.78

>  <Heavy Atom Count>
35

>  <Ring Count>
4

>  <Hydrogen Bond Acceptor Count>
7

>  <Hydrogen Bond Donor Count>
2

>  <Rotatable Bond Count>
5

>  <Topological Polar Surface Area>
110.86

>  <Molecular Formula>
C23H20F3N5O2S2

>  <InChI>
InChI=1S/C23H20F3N5O2S2/c1-23(2,3)21-30-18(19(34-21)16-10-11-28-22(27)29-16)12-6-4-9-15(17(12)26)31-35(32,33)20-13(24)7-5-8-14(20)25/h4-11,31H,1-3H3,(H2,27,28,29)

>  <InChI Key>
BFSMGDJOXZAERB-UHFFFAOYSA-N

>  <BindingDB>
50428286

>  <PubChem>
44462760

>  <ChEMBL>
CHEMBL2028663

$$$$
Compound 619
Actelion Java MolfileCreator 2.0

  0  0  0  0  0  0              0 V3000
M  V30 BEGIN CTAB
M  V30 COUNTS 35 38 0 0 0
M  V30 BEGIN ATOM
M  V30 1 S 0.0 0.0 0.0 0
M  V30 2 O -0.5997 -1.364 0.0 0
M  V30 3 O 0.5761 1.3875 0.0 0
M  V30 4 N -1.3875 0.5997 0.0 0
M  V30 5 C 1.364 -0.5761 0.0 0
M  V30 6 C -2.5987 -0.2822 0.0 0
M  V30 7 C 1.5286 -2.0578 0.0 0
M  V30 8 C 2.5516 0.3292 0.0 0
M  V30 9 C -3.9862 0.3174 0.0 0
M  V30 10 C -2.4341 -1.7638 0.0 0
M  V30 11 F 0.3174 -2.9397 0.0 0
M  V30 12 C 2.8927 -2.634 0.0 0
M  V30 13 F 2.3635 1.8344 0.0 0
M  V30 14 C 3.9157 -0.2469 0.0 0
M  V30 15 F -4.1744 1.8226 0.0 0
M  V30 16 C -5.1974 -0.5644 0.0 0
M  V30 17 C -3.6452 -2.6457 0.0 0
M  V30 18 C 4.0803 -1.7285 0.0 0
M  V30 19 C -6.585 0.0352 0.0 0
M  V30 20 C -5.0328 -2.046 0.0 0
M  V30 21 N -6.926 1.5051 0.0 0
M  V30 22 C -7.8902 -0.7172 0.0 0
M  V30 23 C -8.4311 1.658 0.0 0
M  V30 24 S -9.0308 0.2822 0.0 0
M  V30 25 C -8.0431 -2.1989 0.0 0
M  V30 26 C -9.2072 2.9632 0.0 0
M  V30 27 N -9.4189 -2.8103 0.0 0
M  V30 28 C -6.8319 -3.0573 0.0 0
M  V30 29 C -10.5125 2.2106 0.0 0
M  V30 30 C -7.9255 3.7393 0.0 0
M  V30 31 C -9.9833 4.2685 0.0 0
M  V30 32 C -9.5718 -4.292 0.0 0
M  V30 33 C -6.9848 -4.5389 0.0 0
M  V30 34 N -8.3606 -5.1504 0.0 0
M  V30 35 N -10.9476 -4.9034 0.0 0
M  V30 END ATOM
M  V30 BEGIN BOND
M  V30 1 2 1 2
M  V30 2 2 1 3
M  V30 3 1 1 4
M  V30 4 1 1 5
M  V30 5 1 4 6
M  V30 6 2 5 7
M  V30 7 1 5 8
M  V30 8 2 6 9
M  V30 9 1 6 10
M  V30 10 1 7 11
M  V30 11 1 7 12
M  V30 12 1 8 13
M  V30 13 2 8 14
M  V30 14 1 9 15
M  V30 15 1 9 16
M  V30 16 2 10 17
M  V30 17 2 12 18
M  V30 18 1 16 19
M  V30 19 2 16 20
M  V30 20 1 19 21
M  V30 21 2 19 22
M  V30 22 2 21 23
M  V30 23 1 22 24
M  V30 24 1 22 25
M  V30 25 1 23 26
M  V30 26 2 25 27
M  V30 27 1 25 28
M  V30 28 1 26 29
M  V30 29 1 26 30
M  V30 30 1 26 31
M  V30 31 1 27 32
M  V30 32 2 28 33
M  V30 33 2 32 34
M  V30 34 1 32 35
M  V30 35 1 14 18
M  V30 36 1 17 20
M  V30 37 1 23 24
M  V30 38 1 33 34
M  V30 END BOND
M  V30 END CTAB
M  END
>  <Compound ID>
205

>  <Name>
Dabrafenib

>  <Uniprot>
Q9UBE8

>  <Target>
NLK

>  <Smiles>
CC(C)(C)C1=NC(C2=CC=CC(NS(=O)(=O)C3=C(F)C=CC=C3F)=C2F)=C(C2=CC=NC(N)=N2)S1

>  <Kd (nM)>
>30000

>  <Assay (Kd)>
Kd apparent of NLK

>  <Ki (nM)>


>  <Assay (Ki)>


>  <IC50 (nM)>


>  <Assay (IC50)>


>  <EC50 (nM)>


>  <Assay (EC50)>


>  <Article DOI>
10.1126/science.aan4368

>  <Molecular Weight>
519.574

>  <Exact Mass>
519.10105154

>  <XLogP3>
4.78

>  <Heavy Atom Count>
35

>  <Ring Count>
4

>  <Hydrogen Bond Acceptor Count>
7

>  <Hydrogen Bond Donor Count>
2

>  <Rotatable Bond Count>
5

>  <Topological Polar Surface Area>
110.86

>  <Molecular Formula>
C23H20F3N5O2S2

>  <InChI>
InChI=1S/C23H20F3N5O2S2/c1-23(2,3)21-30-18(19(34-21)16-10-11-28-22(27)29-16)12-6-4-9-15(17(12)26)31-35(32,33)20-13(24)7-5-8-14(20)25/h4-11,31H,1-3H3,(H2,27,28,29)

>  <InChI Key>
BFSMGDJOXZAERB-UHFFFAOYSA-N

>  <BindingDB>
50428286

>  <PubChem>
44462760

>  <ChEMBL>
CHEMBL2028663

$$$$
Compound 620
Actelion Java MolfileCreator 2.0

  0  0  0  0  0  0              0 V3000
M  V30 BEGIN CTAB
M  V30 COUNTS 35 38 0 0 0
M  V30 BEGIN ATOM
M  V30 1 S 0.0 0.0 0.0 0
M  V30 2 O -0.5997 -1.364 0.0 0
M  V30 3 O 0.5761 1.3875 0.0 0
M  V30 4 N -1.3875 0.5997 0.0 0
M  V30 5 C 1.364 -0.5761 0.0 0
M  V30 6 C -2.5987 -0.2822 0.0 0
M  V30 7 C 1.5286 -2.0578 0.0 0
M  V30 8 C 2.5516 0.3292 0.0 0
M  V30 9 C -3.9862 0.3174 0.0 0
M  V30 10 C -2.4341 -1.7638 0.0 0
M  V30 11 F 0.3174 -2.9397 0.0 0
M  V30 12 C 2.8927 -2.634 0.0 0
M  V30 13 F 2.3635 1.8344 0.0 0
M  V30 14 C 3.9157 -0.2469 0.0 0
M  V30 15 F -4.1744 1.8226 0.0 0
M  V30 16 C -5.1974 -0.5644 0.0 0
M  V30 17 C -3.6452 -2.6457 0.0 0
M  V30 18 C 4.0803 -1.7285 0.0 0
M  V30 19 C -6.585 0.0352 0.0 0
M  V30 20 C -5.0328 -2.046 0.0 0
M  V30 21 N -6.926 1.5051 0.0 0
M  V30 22 C -7.8902 -0.7172 0.0 0
M  V30 23 C -8.4311 1.658 0.0 0
M  V30 24 S -9.0308 0.2822 0.0 0
M  V30 25 C -8.0431 -2.1989 0.0 0
M  V30 26 C -9.2072 2.9632 0.0 0
M  V30 27 N -9.4189 -2.8103 0.0 0
M  V30 28 C -6.8319 -3.0573 0.0 0
M  V30 29 C -10.5125 2.2106 0.0 0
M  V30 30 C -7.9255 3.7393 0.0 0
M  V30 31 C -9.9833 4.2685 0.0 0
M  V30 32 C -9.5718 -4.292 0.0 0
M  V30 33 C -6.9848 -4.5389 0.0 0
M  V30 34 N -8.3606 -5.1504 0.0 0
M  V30 35 N -10.9476 -4.9034 0.0 0
M  V30 END ATOM
M  V30 BEGIN BOND
M  V30 1 2 1 2
M  V30 2 2 1 3
M  V30 3 1 1 4
M  V30 4 1 1 5
M  V30 5 1 4 6
M  V30 6 2 5 7
M  V30 7 1 5 8
M  V30 8 2 6 9
M  V30 9 1 6 10
M  V30 10 1 7 11
M  V30 11 1 7 12
M  V30 12 1 8 13
M  V30 13 2 8 14
M  V30 14 1 9 15
M  V30 15 1 9 16
M  V30 16 2 10 17
M  V30 17 2 12 18
M  V30 18 1 16 19
M  V30 19 2 16 20
M  V30 20 1 19 21
M  V30 21 2 19 22
M  V30 22 2 21 23
M  V30 23 1 22 24
M  V30 24 1 22 25
M  V30 25 1 23 26
M  V30 26 2 25 27
M  V30 27 1 25 28
M  V30 28 1 26 29
M  V30 29 1 26 30
M  V30 30 1 26 31
M  V30 31 1 27 32
M  V30 32 2 28 33
M  V30 33 2 32 34
M  V30 34 1 32 35
M  V30 35 1 14 18
M  V30 36 1 17 20
M  V30 37 1 23 24
M  V30 38 1 33 34
M  V30 END BOND
M  V30 END CTAB
M  END
>  <Compound ID>
205

>  <Name>
Dabrafenib

>  <Uniprot>
Q15118

>  <Target>
PDK1

>  <Smiles>
CC(C)(C)C1=NC(C2=CC=CC(NS(=O)(=O)C3=C(F)C=CC=C3F)=C2F)=C(C2=CC=NC(N)=N2)S1

>  <Kd (nM)>


>  <Assay (Kd)>


>  <Ki (nM)>


>  <Assay (Ki)>


>  <IC50 (nM)>


>  <Assay (IC50)>


>  <EC50 (nM)>


>  <Assay (EC50)>


>  <Article DOI>
10.1016/j.cell.2020.10.038

>  <Molecular Weight>
519.574

>  <Exact Mass>
519.10105154

>  <XLogP3>
4.78

>  <Heavy Atom Count>
35

>  <Ring Count>
4

>  <Hydrogen Bond Acceptor Count>
7

>  <Hydrogen Bond Donor Count>
2

>  <Rotatable Bond Count>
5

>  <Topological Polar Surface Area>
110.86

>  <Molecular Formula>
C23H20F3N5O2S2

>  <InChI>
InChI=1S/C23H20F3N5O2S2/c1-23(2,3)21-30-18(19(34-21)16-10-11-28-22(27)29-16)12-6-4-9-15(17(12)26)31-35(32,33)20-13(24)7-5-8-14(20)25/h4-11,31H,1-3H3,(H2,27,28,29)

>  <InChI Key>
BFSMGDJOXZAERB-UHFFFAOYSA-N

>  <BindingDB>
50428286

>  <PubChem>
44462760

>  <ChEMBL>
CHEMBL2028663

$$$$
Compound 621
Actelion Java MolfileCreator 2.0

  0  0  0  0  0  0              0 V3000
M  V30 BEGIN CTAB
M  V30 COUNTS 35 38 0 0 0
M  V30 BEGIN ATOM
M  V30 1 S 0.0 0.0 0.0 0
M  V30 2 O -0.5997 -1.364 0.0 0
M  V30 3 O 0.5761 1.3875 0.0 0
M  V30 4 N -1.3875 0.5997 0.0 0
M  V30 5 C 1.364 -0.5761 0.0 0
M  V30 6 C -2.5987 -0.2822 0.0 0
M  V30 7 C 1.5286 -2.0578 0.0 0
M  V30 8 C 2.5516 0.3292 0.0 0
M  V30 9 C -3.9862 0.3174 0.0 0
M  V30 10 C -2.4341 -1.7638 0.0 0
M  V30 11 F 0.3174 -2.9397 0.0 0
M  V30 12 C 2.8927 -2.634 0.0 0
M  V30 13 F 2.3635 1.8344 0.0 0
M  V30 14 C 3.9157 -0.2469 0.0 0
M  V30 15 F -4.1744 1.8226 0.0 0
M  V30 16 C -5.1974 -0.5644 0.0 0
M  V30 17 C -3.6452 -2.6457 0.0 0
M  V30 18 C 4.0803 -1.7285 0.0 0
M  V30 19 C -6.585 0.0352 0.0 0
M  V30 20 C -5.0328 -2.046 0.0 0
M  V30 21 N -6.926 1.5051 0.0 0
M  V30 22 C -7.8902 -0.7172 0.0 0
M  V30 23 C -8.4311 1.658 0.0 0
M  V30 24 S -9.0308 0.2822 0.0 0
M  V30 25 C -8.0431 -2.1989 0.0 0
M  V30 26 C -9.2072 2.9632 0.0 0
M  V30 27 N -9.4189 -2.8103 0.0 0
M  V30 28 C -6.8319 -3.0573 0.0 0
M  V30 29 C -10.5125 2.2106 0.0 0
M  V30 30 C -7.9255 3.7393 0.0 0
M  V30 31 C -9.9833 4.2685 0.0 0
M  V30 32 C -9.5718 -4.292 0.0 0
M  V30 33 C -6.9848 -4.5389 0.0 0
M  V30 34 N -8.3606 -5.1504 0.0 0
M  V30 35 N -10.9476 -4.9034 0.0 0
M  V30 END ATOM
M  V30 BEGIN BOND
M  V30 1 2 1 2
M  V30 2 2 1 3
M  V30 3 1 1 4
M  V30 4 1 1 5
M  V30 5 1 4 6
M  V30 6 2 5 7
M  V30 7 1 5 8
M  V30 8 2 6 9
M  V30 9 1 6 10
M  V30 10 1 7 11
M  V30 11 1 7 12
M  V30 12 1 8 13
M  V30 13 2 8 14
M  V30 14 1 9 15
M  V30 15 1 9 16
M  V30 16 2 10 17
M  V30 17 2 12 18
M  V30 18 1 16 19
M  V30 19 2 16 20
M  V30 20 1 19 21
M  V30 21 2 19 22
M  V30 22 2 21 23
M  V30 23 1 22 24
M  V30 24 1 22 25
M  V30 25 1 23 26
M  V30 26 2 25 27
M  V30 27 1 25 28
M  V30 28 1 26 29
M  V30 29 1 26 30
M  V30 30 1 26 31
M  V30 31 1 27 32
M  V30 32 2 28 33
M  V30 33 2 32 34
M  V30 34 1 32 35
M  V30 35 1 14 18
M  V30 36 1 17 20
M  V30 37 1 23 24
M  V30 38 1 33 34
M  V30 END BOND
M  V30 END CTAB
M  END
>  <Compound ID>
205

>  <Name>
Dabrafenib

>  <Uniprot>
Q15119

>  <Target>
PDK2

>  <Smiles>
CC(C)(C)C1=NC(C2=CC=CC(NS(=O)(=O)C3=C(F)C=CC=C3F)=C2F)=C(C2=CC=NC(N)=N2)S1

>  <Kd (nM)>


>  <Assay (Kd)>


>  <Ki (nM)>


>  <Assay (Ki)>


>  <IC50 (nM)>


>  <Assay (IC50)>


>  <EC50 (nM)>


>  <Assay (EC50)>


>  <Article DOI>
10.1016/j.cell.2020.10.038

>  <Molecular Weight>
519.574

>  <Exact Mass>
519.10105154

>  <XLogP3>
4.78

>  <Heavy Atom Count>
35

>  <Ring Count>
4

>  <Hydrogen Bond Acceptor Count>
7

>  <Hydrogen Bond Donor Count>
2

>  <Rotatable Bond Count>
5

>  <Topological Polar Surface Area>
110.86

>  <Molecular Formula>
C23H20F3N5O2S2

>  <InChI>
InChI=1S/C23H20F3N5O2S2/c1-23(2,3)21-30-18(19(34-21)16-10-11-28-22(27)29-16)12-6-4-9-15(17(12)26)31-35(32,33)20-13(24)7-5-8-14(20)25/h4-11,31H,1-3H3,(H2,27,28,29)

>  <InChI Key>
BFSMGDJOXZAERB-UHFFFAOYSA-N

>  <BindingDB>
50428286

>  <PubChem>
44462760

>  <ChEMBL>
CHEMBL2028663

$$$$
Compound 622
Actelion Java MolfileCreator 2.0

  0  0  0  0  0  0              0 V3000
M  V30 BEGIN CTAB
M  V30 COUNTS 35 38 0 0 0
M  V30 BEGIN ATOM
M  V30 1 S 0.0 0.0 0.0 0
M  V30 2 O -0.5997 -1.364 0.0 0
M  V30 3 O 0.5761 1.3875 0.0 0
M  V30 4 N -1.3875 0.5997 0.0 0
M  V30 5 C 1.364 -0.5761 0.0 0
M  V30 6 C -2.5987 -0.2822 0.0 0
M  V30 7 C 1.5286 -2.0578 0.0 0
M  V30 8 C 2.5516 0.3292 0.0 0
M  V30 9 C -3.9862 0.3174 0.0 0
M  V30 10 C -2.4341 -1.7638 0.0 0
M  V30 11 F 0.3174 -2.9397 0.0 0
M  V30 12 C 2.8927 -2.634 0.0 0
M  V30 13 F 2.3635 1.8344 0.0 0
M  V30 14 C 3.9157 -0.2469 0.0 0
M  V30 15 F -4.1744 1.8226 0.0 0
M  V30 16 C -5.1974 -0.5644 0.0 0
M  V30 17 C -3.6452 -2.6457 0.0 0
M  V30 18 C 4.0803 -1.7285 0.0 0
M  V30 19 C -6.585 0.0352 0.0 0
M  V30 20 C -5.0328 -2.046 0.0 0
M  V30 21 N -6.926 1.5051 0.0 0
M  V30 22 C -7.8902 -0.7172 0.0 0
M  V30 23 C -8.4311 1.658 0.0 0
M  V30 24 S -9.0308 0.2822 0.0 0
M  V30 25 C -8.0431 -2.1989 0.0 0
M  V30 26 C -9.2072 2.9632 0.0 0
M  V30 27 N -9.4189 -2.8103 0.0 0
M  V30 28 C -6.8319 -3.0573 0.0 0
M  V30 29 C -10.5125 2.2106 0.0 0
M  V30 30 C -7.9255 3.7393 0.0 0
M  V30 31 C -9.9833 4.2685 0.0 0
M  V30 32 C -9.5718 -4.292 0.0 0
M  V30 33 C -6.9848 -4.5389 0.0 0
M  V30 34 N -8.3606 -5.1504 0.0 0
M  V30 35 N -10.9476 -4.9034 0.0 0
M  V30 END ATOM
M  V30 BEGIN BOND
M  V30 1 2 1 2
M  V30 2 2 1 3
M  V30 3 1 1 4
M  V30 4 1 1 5
M  V30 5 1 4 6
M  V30 6 2 5 7
M  V30 7 1 5 8
M  V30 8 2 6 9
M  V30 9 1 6 10
M  V30 10 1 7 11
M  V30 11 1 7 12
M  V30 12 1 8 13
M  V30 13 2 8 14
M  V30 14 1 9 15
M  V30 15 1 9 16
M  V30 16 2 10 17
M  V30 17 2 12 18
M  V30 18 1 16 19
M  V30 19 2 16 20
M  V30 20 1 19 21
M  V30 21 2 19 22
M  V30 22 2 21 23
M  V30 23 1 22 24
M  V30 24 1 22 25
M  V30 25 1 23 26
M  V30 26 2 25 27
M  V30 27 1 25 28
M  V30 28 1 26 29
M  V30 29 1 26 30
M  V30 30 1 26 31
M  V30 31 1 27 32
M  V30 32 2 28 33
M  V30 33 2 32 34
M  V30 34 1 32 35
M  V30 35 1 14 18
M  V30 36 1 17 20
M  V30 37 1 23 24
M  V30 38 1 33 34
M  V30 END BOND
M  V30 END CTAB
M  END
>  <Compound ID>
205

>  <Name>
Dabrafenib

>  <Uniprot>
Q15120

>  <Target>
PDK3

>  <Smiles>
CC(C)(C)C1=NC(C2=CC=CC(NS(=O)(=O)C3=C(F)C=CC=C3F)=C2F)=C(C2=CC=NC(N)=N2)S1

>  <Kd (nM)>


>  <Assay (Kd)>


>  <Ki (nM)>


>  <Assay (Ki)>


>  <IC50 (nM)>


>  <Assay (IC50)>


>  <EC50 (nM)>


>  <Assay (EC50)>


>  <Article DOI>
10.1016/j.cell.2020.10.038

>  <Molecular Weight>
519.574

>  <Exact Mass>
519.10105154

>  <XLogP3>
4.78

>  <Heavy Atom Count>
35

>  <Ring Count>
4

>  <Hydrogen Bond Acceptor Count>
7

>  <Hydrogen Bond Donor Count>
2

>  <Rotatable Bond Count>
5

>  <Topological Polar Surface Area>
110.86

>  <Molecular Formula>
C23H20F3N5O2S2

>  <InChI>
InChI=1S/C23H20F3N5O2S2/c1-23(2,3)21-30-18(19(34-21)16-10-11-28-22(27)29-16)12-6-4-9-15(17(12)26)31-35(32,33)20-13(24)7-5-8-14(20)25/h4-11,31H,1-3H3,(H2,27,28,29)

>  <InChI Key>
BFSMGDJOXZAERB-UHFFFAOYSA-N

>  <BindingDB>
50428286

>  <PubChem>
44462760

>  <ChEMBL>
CHEMBL2028663

$$$$
Compound 623
Actelion Java MolfileCreator 2.0

  0  0  0  0  0  0              0 V3000
M  V30 BEGIN CTAB
M  V30 COUNTS 35 38 0 0 0
M  V30 BEGIN ATOM
M  V30 1 S 0.0 0.0 0.0 0
M  V30 2 O -0.5997 -1.364 0.0 0
M  V30 3 O 0.5761 1.3875 0.0 0
M  V30 4 N -1.3875 0.5997 0.0 0
M  V30 5 C 1.364 -0.5761 0.0 0
M  V30 6 C -2.5987 -0.2822 0.0 0
M  V30 7 C 1.5286 -2.0578 0.0 0
M  V30 8 C 2.5516 0.3292 0.0 0
M  V30 9 C -3.9862 0.3174 0.0 0
M  V30 10 C -2.4341 -1.7638 0.0 0
M  V30 11 F 0.3174 -2.9397 0.0 0
M  V30 12 C 2.8927 -2.634 0.0 0
M  V30 13 F 2.3635 1.8344 0.0 0
M  V30 14 C 3.9157 -0.2469 0.0 0
M  V30 15 F -4.1744 1.8226 0.0 0
M  V30 16 C -5.1974 -0.5644 0.0 0
M  V30 17 C -3.6452 -2.6457 0.0 0
M  V30 18 C 4.0803 -1.7285 0.0 0
M  V30 19 C -6.585 0.0352 0.0 0
M  V30 20 C -5.0328 -2.046 0.0 0
M  V30 21 N -6.926 1.5051 0.0 0
M  V30 22 C -7.8902 -0.7172 0.0 0
M  V30 23 C -8.4311 1.658 0.0 0
M  V30 24 S -9.0308 0.2822 0.0 0
M  V30 25 C -8.0431 -2.1989 0.0 0
M  V30 26 C -9.2072 2.9632 0.0 0
M  V30 27 N -9.4189 -2.8103 0.0 0
M  V30 28 C -6.8319 -3.0573 0.0 0
M  V30 29 C -10.5125 2.2106 0.0 0
M  V30 30 C -7.9255 3.7393 0.0 0
M  V30 31 C -9.9833 4.2685 0.0 0
M  V30 32 C -9.5718 -4.292 0.0 0
M  V30 33 C -6.9848 -4.5389 0.0 0
M  V30 34 N -8.3606 -5.1504 0.0 0
M  V30 35 N -10.9476 -4.9034 0.0 0
M  V30 END ATOM
M  V30 BEGIN BOND
M  V30 1 2 1 2
M  V30 2 2 1 3
M  V30 3 1 1 4
M  V30 4 1 1 5
M  V30 5 1 4 6
M  V30 6 2 5 7
M  V30 7 1 5 8
M  V30 8 2 6 9
M  V30 9 1 6 10
M  V30 10 1 7 11
M  V30 11 1 7 12
M  V30 12 1 8 13
M  V30 13 2 8 14
M  V30 14 1 9 15
M  V30 15 1 9 16
M  V30 16 2 10 17
M  V30 17 2 12 18
M  V30 18 1 16 19
M  V30 19 2 16 20
M  V30 20 1 19 21
M  V30 21 2 19 22
M  V30 22 2 21 23
M  V30 23 1 22 24
M  V30 24 1 22 25
M  V30 25 1 23 26
M  V30 26 2 25 27
M  V30 27 1 25 28
M  V30 28 1 26 29
M  V30 29 1 26 30
M  V30 30 1 26 31
M  V30 31 1 27 32
M  V30 32 2 28 33
M  V30 33 2 32 34
M  V30 34 1 32 35
M  V30 35 1 14 18
M  V30 36 1 17 20
M  V30 37 1 23 24
M  V30 38 1 33 34
M  V30 END BOND
M  V30 END CTAB
M  END
>  <Compound ID>
205

>  <Name>
Dabrafenib

>  <Uniprot>
P53350

>  <Target>
PLK1

>  <Smiles>
CC(C)(C)C1=NC(C2=CC=CC(NS(=O)(=O)C3=C(F)C=CC=C3F)=C2F)=C(C2=CC=NC(N)=N2)S1

>  <Kd (nM)>
>30000

>  <Assay (Kd)>
Kd apparent of PLK1

>  <Ki (nM)>


>  <Assay (Ki)>


>  <IC50 (nM)>


>  <Assay (IC50)>


>  <EC50 (nM)>


>  <Assay (EC50)>


>  <Article DOI>
10.1126/science.aan4368

>  <Molecular Weight>
519.574

>  <Exact Mass>
519.10105154

>  <XLogP3>
4.78

>  <Heavy Atom Count>
35

>  <Ring Count>
4

>  <Hydrogen Bond Acceptor Count>
7

>  <Hydrogen Bond Donor Count>
2

>  <Rotatable Bond Count>
5

>  <Topological Polar Surface Area>
110.86

>  <Molecular Formula>
C23H20F3N5O2S2

>  <InChI>
InChI=1S/C23H20F3N5O2S2/c1-23(2,3)21-30-18(19(34-21)16-10-11-28-22(27)29-16)12-6-4-9-15(17(12)26)31-35(32,33)20-13(24)7-5-8-14(20)25/h4-11,31H,1-3H3,(H2,27,28,29)

>  <InChI Key>
BFSMGDJOXZAERB-UHFFFAOYSA-N

>  <BindingDB>
50428286

>  <PubChem>
44462760

>  <ChEMBL>
CHEMBL2028663

$$$$
Compound 624
Actelion Java MolfileCreator 2.0

  0  0  0  0  0  0              0 V3000
M  V30 BEGIN CTAB
M  V30 COUNTS 35 38 0 0 0
M  V30 BEGIN ATOM
M  V30 1 S 0.0 0.0 0.0 0
M  V30 2 O -0.5997 -1.364 0.0 0
M  V30 3 O 0.5761 1.3875 0.0 0
M  V30 4 N -1.3875 0.5997 0.0 0
M  V30 5 C 1.364 -0.5761 0.0 0
M  V30 6 C -2.5987 -0.2822 0.0 0
M  V30 7 C 1.5286 -2.0578 0.0 0
M  V30 8 C 2.5516 0.3292 0.0 0
M  V30 9 C -3.9862 0.3174 0.0 0
M  V30 10 C -2.4341 -1.7638 0.0 0
M  V30 11 F 0.3174 -2.9397 0.0 0
M  V30 12 C 2.8927 -2.634 0.0 0
M  V30 13 F 2.3635 1.8344 0.0 0
M  V30 14 C 3.9157 -0.2469 0.0 0
M  V30 15 F -4.1744 1.8226 0.0 0
M  V30 16 C -5.1974 -0.5644 0.0 0
M  V30 17 C -3.6452 -2.6457 0.0 0
M  V30 18 C 4.0803 -1.7285 0.0 0
M  V30 19 C -6.585 0.0352 0.0 0
M  V30 20 C -5.0328 -2.046 0.0 0
M  V30 21 N -6.926 1.5051 0.0 0
M  V30 22 C -7.8902 -0.7172 0.0 0
M  V30 23 C -8.4311 1.658 0.0 0
M  V30 24 S -9.0308 0.2822 0.0 0
M  V30 25 C -8.0431 -2.1989 0.0 0
M  V30 26 C -9.2072 2.9632 0.0 0
M  V30 27 N -9.4189 -2.8103 0.0 0
M  V30 28 C -6.8319 -3.0573 0.0 0
M  V30 29 C -10.5125 2.2106 0.0 0
M  V30 30 C -7.9255 3.7393 0.0 0
M  V30 31 C -9.9833 4.2685 0.0 0
M  V30 32 C -9.5718 -4.292 0.0 0
M  V30 33 C -6.9848 -4.5389 0.0 0
M  V30 34 N -8.3606 -5.1504 0.0 0
M  V30 35 N -10.9476 -4.9034 0.0 0
M  V30 END ATOM
M  V30 BEGIN BOND
M  V30 1 2 1 2
M  V30 2 2 1 3
M  V30 3 1 1 4
M  V30 4 1 1 5
M  V30 5 1 4 6
M  V30 6 2 5 7
M  V30 7 1 5 8
M  V30 8 2 6 9
M  V30 9 1 6 10
M  V30 10 1 7 11
M  V30 11 1 7 12
M  V30 12 1 8 13
M  V30 13 2 8 14
M  V30 14 1 9 15
M  V30 15 1 9 16
M  V30 16 2 10 17
M  V30 17 2 12 18
M  V30 18 1 16 19
M  V30 19 2 16 20
M  V30 20 1 19 21
M  V30 21 2 19 22
M  V30 22 2 21 23
M  V30 23 1 22 24
M  V30 24 1 22 25
M  V30 25 1 23 26
M  V30 26 2 25 27
M  V30 27 1 25 28
M  V30 28 1 26 29
M  V30 29 1 26 30
M  V30 30 1 26 31
M  V30 31 1 27 32
M  V30 32 2 28 33
M  V30 33 2 32 34
M  V30 34 1 32 35
M  V30 35 1 14 18
M  V30 36 1 17 20
M  V30 37 1 23 24
M  V30 38 1 33 34
M  V30 END BOND
M  V30 END CTAB
M  END
>  <Compound ID>
205

>  <Name>
Dabrafenib

>  <Uniprot>
Q96S53

>  <Target>
TESK2

>  <Smiles>
CC(C)(C)C1=NC(C2=CC=CC(NS(=O)(=O)C3=C(F)C=CC=C3F)=C2F)=C(C2=CC=NC(N)=N2)S1

>  <Kd (nM)>


>  <Assay (Kd)>


>  <Ki (nM)>


>  <Assay (Ki)>


>  <IC50 (nM)>


>  <Assay (IC50)>


>  <EC50 (nM)>


>  <Assay (EC50)>


>  <Article DOI>
10.1016/j.cell.2020.10.038

>  <Molecular Weight>
519.574

>  <Exact Mass>
519.10105154

>  <XLogP3>
4.78

>  <Heavy Atom Count>
35

>  <Ring Count>
4

>  <Hydrogen Bond Acceptor Count>
7

>  <Hydrogen Bond Donor Count>
2

>  <Rotatable Bond Count>
5

>  <Topological Polar Surface Area>
110.86

>  <Molecular Formula>
C23H20F3N5O2S2

>  <InChI>
InChI=1S/C23H20F3N5O2S2/c1-23(2,3)21-30-18(19(34-21)16-10-11-28-22(27)29-16)12-6-4-9-15(17(12)26)31-35(32,33)20-13(24)7-5-8-14(20)25/h4-11,31H,1-3H3,(H2,27,28,29)

>  <InChI Key>
BFSMGDJOXZAERB-UHFFFAOYSA-N

>  <BindingDB>
50428286

>  <PubChem>
44462760

>  <ChEMBL>
CHEMBL2028663

$$$$
Compound 625
Actelion Java MolfileCreator 2.0

  0  0  0  0  0  0              0 V3000
M  V30 BEGIN CTAB
M  V30 COUNTS 21 23 0 0 0
M  V30 BEGIN ATOM
M  V30 1 O 0.0 0.0 0.0 0
M  V30 2 C 1.4368 -0.4023 0.0 0
M  V30 3 N 2.5058 0.6551 0.0 0
M  V30 4 N 1.7816 -1.8506 0.0 0
M  V30 5 C 3.9426 0.2528 0.0 0
M  V30 6 C 2.138 2.1265 0.0 0
M  V30 7 C 3.2185 -2.2529 0.0 0
M  V30 8 C 0.6896 -2.8851 0.0 0
M  V30 9 N 5.0116 1.3103 0.0 0
M  V30 10 C 4.2875 -1.1954 0.0 0
M  V30 11 C 1.0805 3.2185 0.0 0
M  V30 12 C 2.5403 3.5863 0.0 0
M  V30 13 O 3.5633 -3.7012 0.0 0
M  V30 14 C -0.7701 -2.4598 0.0 0
M  V30 15 C 6.4485 0.908 0.0 0
M  V30 16 C 5.7243 -1.5977 0.0 0
M  V30 17 N 7.5175 1.9655 0.0 0
M  V30 18 C 6.7933 -0.5402 0.0 0
M  V30 19 C 8.2301 -0.9425 0.0 0
M  V30 20 O 9.2991 0.1149 0.0 0
M  V30 21 N 8.575 -2.3908 0.0 0
M  V30 END ATOM
M  V30 BEGIN BOND
M  V30 1 2 1 2
M  V30 2 1 2 3
M  V30 3 1 2 4
M  V30 4 1 3 5
M  V30 5 1 3 6
M  V30 6 1 4 7
M  V30 7 1 4 8
M  V30 8 2 5 9
M  V30 9 1 5 10
M  V30 10 1 6 11
M  V30 11 1 6 12
M  V30 12 2 7 13
M  V30 13 1 8 14
M  V30 14 1 9 15
M  V30 15 2 10 16
M  V30 16 1 15 17
M  V30 17 2 15 18
M  V30 18 1 18 19
M  V30 19 2 19 20
M  V30 20 1 19 21
M  V30 21 1 7 10
M  V30 22 1 11 12
M  V30 23 1 16 18
M  V30 END BOND
M  V30 END CTAB
M  END
>  <Compound ID>
206

>  <Name>
A484954

>  <Uniprot>
O00418

>  <Target>
EEF2K

>  <Smiles>
CCN1C(=O)C2=CC(C(N)=O)=C(N)N=C2N(C2CC2)C1=O

>  <Kd (nM)>


>  <Assay (Kd)>


>  <Ki (nM)>


>  <Assay (Ki)>


>  <IC50 (nM)>
280

>  <Assay (IC50)>
Inhibition of EEF2K

>  <EC50 (nM)>


>  <Assay (EC50)>


>  <Article DOI>
10.1074/jbc.M111.301291

>  <Molecular Weight>
289.295

>  <Exact Mass>
289.11748934

>  <XLogP3>
0.07

>  <Heavy Atom Count>
21

>  <Ring Count>
3

>  <Hydrogen Bond Acceptor Count>
7

>  <Hydrogen Bond Donor Count>
2

>  <Rotatable Bond Count>
3

>  <Topological Polar Surface Area>
126.0

>  <Molecular Formula>
C13H15N5O3

>  <InChI>
InChI=1S/C13H15N5O3/c1-2-17-12(20)8-5-7(10(15)19)9(14)16-11(8)18(13(17)21)6-3-4-6/h5-6H,2-4H2,1H3,(H2,14,16)(H2,15,19)

>  <InChI Key>
HWODCHXORCTEGU-UHFFFAOYSA-N

>  <BindingDB>
50053584

>  <PubChem>
14998470

>  <ChEMBL>
CHEMBL1977874

$$$$
Compound 626
Actelion Java MolfileCreator 2.0

  0  0  0  0  0  0              0 V3000
M  V30 BEGIN CTAB
M  V30 COUNTS 32 36 0 0 0
M  V30 BEGIN ATOM
M  V30 1 O 0.0 0.0 0.0 0
M  V30 2 C 0.754 -1.2725 0.0 0
M  V30 3 N 0.0117 -2.5685 0.0 0
M  V30 4 C 2.2386 -1.2489 0.0 0
M  V30 5 C -1.4963 -2.5685 0.0 0
M  V30 6 C 3.299 -2.2857 0.0 0
M  V30 7 C 3.2755 -0.1649 0.0 0
M  V30 8 C -2.2386 -3.8646 0.0 0
M  V30 9 C 4.3359 -1.2018 0.0 0
M  V30 10 C -3.7468 -3.8646 0.0 0
M  V30 11 N -4.4891 -5.1607 0.0 0
M  V30 12 C -5.9972 -5.1607 0.0 0
M  V30 13 N -6.7749 -3.8646 0.0 0
M  V30 14 C -6.7395 -6.4567 0.0 0
M  V30 15 C -8.283 -3.8646 0.0 0
M  V30 16 C -8.2477 -6.4567 0.0 0
M  V30 17 C -5.9854 -7.7292 0.0 0
M  V30 18 N -9.0253 -5.1607 0.0 0
M  V30 19 N -9.0607 -2.5685 0.0 0
M  V30 20 C -4.6894 -8.448 0.0 0
M  V30 21 C -5.9854 -9.2138 0.0 0
M  V30 22 C -10.5688 -2.5685 0.0 0
M  V30 23 C -11.3465 -1.2725 0.0 0
M  V30 24 C -11.3111 -3.8646 0.0 0
M  V30 25 C -12.8546 -1.2725 0.0 0
M  V30 26 C -12.8193 -3.8646 0.0 0
M  V30 27 C -13.5969 -2.5685 0.0 0
M  V30 28 C -13.6322 0.0235 0.0 0
M  V30 29 C -15.1051 -2.5685 0.0 0
M  V30 30 C -15.1404 0.0235 0.0 0
M  V30 31 N -15.8827 -1.2725 0.0 0
M  V30 32 C -17.3908 -1.2725 0.0 0
M  V30 END ATOM
M  V30 BEGIN BOND
M  V30 1 2 1 2
M  V30 2 1 2 3
M  V30 3 1 2 4
M  V30 4 1 3 5
M  V30 5 1 4 6
M  V30 6 1 4 7
M  V30 7 1 5 8
M  V30 8 1 6 9
M  V30 9 1 8 10
M  V30 10 1 10 11
M  V30 11 1 11 12
M  V30 12 2 12 13
M  V30 13 1 12 14
M  V30 14 1 13 15
M  V30 15 2 14 16
M  V30 16 1 14 17
M  V30 17 2 15 18
M  V30 18 1 15 19
M  V30 19 1 17 20
M  V30 20 1 17 21
M  V30 21 1 19 22
M  V30 22 2 22 23
M  V30 23 1 22 24
M  V30 24 1 23 25
M  V30 25 2 24 26
M  V30 26 2 25 27
M  V30 27 1 25 28
M  V30 28 1 27 29
M  V30 29 1 28 30
M  V30 30 1 29 31
M  V30 31 1 31 32
M  V30 32 1 7 9
M  V30 33 1 16 18
M  V30 34 1 20 21
M  V30 35 1 26 27
M  V30 36 1 30 31
M  V30 END BOND
M  V30 END CTAB
M  END
>  <Compound ID>
207

>  <Name>
MRT68921

>  <Uniprot>
Q2M2I8

>  <Target>
AAK1

>  <Smiles>
CN1CCC2=CC(NC3=NC=C(C4CC4)C(NCCCNC(=O)C4CCC4)=N3)=CC=C2C1

>  <Kd (nM)>


>  <Assay (Kd)>


>  <Ki (nM)>


>  <Assay (Ki)>


>  <IC50 (nM)>


>  <Assay (IC50)>


>  <EC50 (nM)>


>  <Assay (EC50)>


>  <Article DOI>
10.1016/j.cell.2020.10.038

>  <Molecular Weight>
434.588

>  <Exact Mass>
434.279409708

>  <XLogP3>
4.4

>  <Heavy Atom Count>
32

>  <Ring Count>
5

>  <Hydrogen Bond Acceptor Count>
6

>  <Hydrogen Bond Donor Count>
3

>  <Rotatable Bond Count>
9

>  <Topological Polar Surface Area>
82.18

>  <Molecular Formula>
C25H34N6O

>  <InChI>
InChI=1S/C25H34N6O/c1-31-13-10-19-14-21(9-8-20(19)16-31)29-25-28-15-22(17-6-7-17)23(30-25)26-11-3-12-27-24(32)18-4-2-5-18/h8-9,14-15,17-18H,2-7,10-13,16H2,1H3,(H,27,32)(H2,26,28,29,30)

>  <InChI Key>
KKISLZKMBSCLSS-UHFFFAOYSA-N

>  <BindingDB>
50503137

>  <PubChem>
59225335

>  <ChEMBL>
CHEMBL4516990

$$$$
Compound 627
Actelion Java MolfileCreator 2.0

  0  0  0  0  0  0              0 V3000
M  V30 BEGIN CTAB
M  V30 COUNTS 32 36 0 0 0
M  V30 BEGIN ATOM
M  V30 1 O 0.0 0.0 0.0 0
M  V30 2 C 0.754 -1.2725 0.0 0
M  V30 3 N 0.0117 -2.5685 0.0 0
M  V30 4 C 2.2386 -1.2489 0.0 0
M  V30 5 C -1.4963 -2.5685 0.0 0
M  V30 6 C 3.299 -2.2857 0.0 0
M  V30 7 C 3.2755 -0.1649 0.0 0
M  V30 8 C -2.2386 -3.8646 0.0 0
M  V30 9 C 4.3359 -1.2018 0.0 0
M  V30 10 C -3.7468 -3.8646 0.0 0
M  V30 11 N -4.4891 -5.1607 0.0 0
M  V30 12 C -5.9972 -5.1607 0.0 0
M  V30 13 N -6.7749 -3.8646 0.0 0
M  V30 14 C -6.7395 -6.4567 0.0 0
M  V30 15 C -8.283 -3.8646 0.0 0
M  V30 16 C -8.2477 -6.4567 0.0 0
M  V30 17 C -5.9854 -7.7292 0.0 0
M  V30 18 N -9.0253 -5.1607 0.0 0
M  V30 19 N -9.0607 -2.5685 0.0 0
M  V30 20 C -4.6894 -8.448 0.0 0
M  V30 21 C -5.9854 -9.2138 0.0 0
M  V30 22 C -10.5688 -2.5685 0.0 0
M  V30 23 C -11.3465 -1.2725 0.0 0
M  V30 24 C -11.3111 -3.8646 0.0 0
M  V30 25 C -12.8546 -1.2725 0.0 0
M  V30 26 C -12.8193 -3.8646 0.0 0
M  V30 27 C -13.5969 -2.5685 0.0 0
M  V30 28 C -13.6322 0.0235 0.0 0
M  V30 29 C -15.1051 -2.5685 0.0 0
M  V30 30 C -15.1404 0.0235 0.0 0
M  V30 31 N -15.8827 -1.2725 0.0 0
M  V30 32 C -17.3908 -1.2725 0.0 0
M  V30 END ATOM
M  V30 BEGIN BOND
M  V30 1 2 1 2
M  V30 2 1 2 3
M  V30 3 1 2 4
M  V30 4 1 3 5
M  V30 5 1 4 6
M  V30 6 1 4 7
M  V30 7 1 5 8
M  V30 8 1 6 9
M  V30 9 1 8 10
M  V30 10 1 10 11
M  V30 11 1 11 12
M  V30 12 2 12 13
M  V30 13 1 12 14
M  V30 14 1 13 15
M  V30 15 2 14 16
M  V30 16 1 14 17
M  V30 17 2 15 18
M  V30 18 1 15 19
M  V30 19 1 17 20
M  V30 20 1 17 21
M  V30 21 1 19 22
M  V30 22 2 22 23
M  V30 23 1 22 24
M  V30 24 1 23 25
M  V30 25 2 24 26
M  V30 26 2 25 27
M  V30 27 1 25 28
M  V30 28 1 27 29
M  V30 29 1 28 30
M  V30 30 1 29 31
M  V30 31 1 31 32
M  V30 32 1 7 9
M  V30 33 1 16 18
M  V30 34 1 20 21
M  V30 35 1 26 27
M  V30 36 1 30 31
M  V30 END BOND
M  V30 END CTAB
M  END
>  <Compound ID>
207

>  <Name>
MRT68921

>  <Uniprot>
O14965

>  <Target>
AURKA

>  <Smiles>
CN1CCC2=CC(NC3=NC=C(C4CC4)C(NCCCNC(=O)C4CCC4)=N3)=CC=C2C1

>  <Kd (nM)>


>  <Assay (Kd)>


>  <Ki (nM)>


>  <Assay (Ki)>


>  <IC50 (nM)>


>  <Assay (IC50)>


>  <EC50 (nM)>


>  <Assay (EC50)>


>  <Article DOI>
10.1016/j.cell.2020.10.038

>  <Molecular Weight>
434.588

>  <Exact Mass>
434.279409708

>  <XLogP3>
4.4

>  <Heavy Atom Count>
32

>  <Ring Count>
5

>  <Hydrogen Bond Acceptor Count>
6

>  <Hydrogen Bond Donor Count>
3

>  <Rotatable Bond Count>
9

>  <Topological Polar Surface Area>
82.18

>  <Molecular Formula>
C25H34N6O

>  <InChI>
InChI=1S/C25H34N6O/c1-31-13-10-19-14-21(9-8-20(19)16-31)29-25-28-15-22(17-6-7-17)23(30-25)26-11-3-12-27-24(32)18-4-2-5-18/h8-9,14-15,17-18H,2-7,10-13,16H2,1H3,(H,27,32)(H2,26,28,29,30)

>  <InChI Key>
KKISLZKMBSCLSS-UHFFFAOYSA-N

>  <BindingDB>
50503137

>  <PubChem>
59225335

>  <ChEMBL>
CHEMBL4516990

$$$$
Compound 628
Actelion Java MolfileCreator 2.0

  0  0  0  0  0  0              0 V3000
M  V30 BEGIN CTAB
M  V30 COUNTS 32 36 0 0 0
M  V30 BEGIN ATOM
M  V30 1 O 0.0 0.0 0.0 0
M  V30 2 C 0.754 -1.2725 0.0 0
M  V30 3 N 0.0117 -2.5685 0.0 0
M  V30 4 C 2.2386 -1.2489 0.0 0
M  V30 5 C -1.4963 -2.5685 0.0 0
M  V30 6 C 3.299 -2.2857 0.0 0
M  V30 7 C 3.2755 -0.1649 0.0 0
M  V30 8 C -2.2386 -3.8646 0.0 0
M  V30 9 C 4.3359 -1.2018 0.0 0
M  V30 10 C -3.7468 -3.8646 0.0 0
M  V30 11 N -4.4891 -5.1607 0.0 0
M  V30 12 C -5.9972 -5.1607 0.0 0
M  V30 13 N -6.7749 -3.8646 0.0 0
M  V30 14 C -6.7395 -6.4567 0.0 0
M  V30 15 C -8.283 -3.8646 0.0 0
M  V30 16 C -8.2477 -6.4567 0.0 0
M  V30 17 C -5.9854 -7.7292 0.0 0
M  V30 18 N -9.0253 -5.1607 0.0 0
M  V30 19 N -9.0607 -2.5685 0.0 0
M  V30 20 C -4.6894 -8.448 0.0 0
M  V30 21 C -5.9854 -9.2138 0.0 0
M  V30 22 C -10.5688 -2.5685 0.0 0
M  V30 23 C -11.3465 -1.2725 0.0 0
M  V30 24 C -11.3111 -3.8646 0.0 0
M  V30 25 C -12.8546 -1.2725 0.0 0
M  V30 26 C -12.8193 -3.8646 0.0 0
M  V30 27 C -13.5969 -2.5685 0.0 0
M  V30 28 C -13.6322 0.0235 0.0 0
M  V30 29 C -15.1051 -2.5685 0.0 0
M  V30 30 C -15.1404 0.0235 0.0 0
M  V30 31 N -15.8827 -1.2725 0.0 0
M  V30 32 C -17.3908 -1.2725 0.0 0
M  V30 END ATOM
M  V30 BEGIN BOND
M  V30 1 2 1 2
M  V30 2 1 2 3
M  V30 3 1 2 4
M  V30 4 1 3 5
M  V30 5 1 4 6
M  V30 6 1 4 7
M  V30 7 1 5 8
M  V30 8 1 6 9
M  V30 9 1 8 10
M  V30 10 1 10 11
M  V30 11 1 11 12
M  V30 12 2 12 13
M  V30 13 1 12 14
M  V30 14 1 13 15
M  V30 15 2 14 16
M  V30 16 1 14 17
M  V30 17 2 15 18
M  V30 18 1 15 19
M  V30 19 1 17 20
M  V30 20 1 17 21
M  V30 21 1 19 22
M  V30 22 2 22 23
M  V30 23 1 22 24
M  V30 24 1 23 25
M  V30 25 2 24 26
M  V30 26 2 25 27
M  V30 27 1 25 28
M  V30 28 1 27 29
M  V30 29 1 28 30
M  V30 30 1 29 31
M  V30 31 1 31 32
M  V30 32 1 7 9
M  V30 33 1 16 18
M  V30 34 1 20 21
M  V30 35 1 26 27
M  V30 36 1 30 31
M  V30 END BOND
M  V30 END CTAB
M  END
>  <Compound ID>
207

>  <Name>
MRT68921

>  <Uniprot>
Q96GD4

>  <Target>
AURKB

>  <Smiles>
CN1CCC2=CC(NC3=NC=C(C4CC4)C(NCCCNC(=O)C4CCC4)=N3)=CC=C2C1

>  <Kd (nM)>


>  <Assay (Kd)>


>  <Ki (nM)>


>  <Assay (Ki)>


>  <IC50 (nM)>


>  <Assay (IC50)>


>  <EC50 (nM)>


>  <Assay (EC50)>


>  <Article DOI>
10.1016/j.cell.2020.10.038

>  <Molecular Weight>
434.588

>  <Exact Mass>
434.279409708

>  <XLogP3>
4.4

>  <Heavy Atom Count>
32

>  <Ring Count>
5

>  <Hydrogen Bond Acceptor Count>
6

>  <Hydrogen Bond Donor Count>
3

>  <Rotatable Bond Count>
9

>  <Topological Polar Surface Area>
82.18

>  <Molecular Formula>
C25H34N6O

>  <InChI>
InChI=1S/C25H34N6O/c1-31-13-10-19-14-21(9-8-20(19)16-31)29-25-28-15-22(17-6-7-17)23(30-25)26-11-3-12-27-24(32)18-4-2-5-18/h8-9,14-15,17-18H,2-7,10-13,16H2,1H3,(H,27,32)(H2,26,28,29,30)

>  <InChI Key>
KKISLZKMBSCLSS-UHFFFAOYSA-N

>  <BindingDB>
50503137

>  <PubChem>
59225335

>  <ChEMBL>
CHEMBL4516990

$$$$
Compound 629
Actelion Java MolfileCreator 2.0

  0  0  0  0  0  0              0 V3000
M  V30 BEGIN CTAB
M  V30 COUNTS 32 36 0 0 0
M  V30 BEGIN ATOM
M  V30 1 O 0.0 0.0 0.0 0
M  V30 2 C 0.754 -1.2725 0.0 0
M  V30 3 N 0.0117 -2.5685 0.0 0
M  V30 4 C 2.2386 -1.2489 0.0 0
M  V30 5 C -1.4963 -2.5685 0.0 0
M  V30 6 C 3.299 -2.2857 0.0 0
M  V30 7 C 3.2755 -0.1649 0.0 0
M  V30 8 C -2.2386 -3.8646 0.0 0
M  V30 9 C 4.3359 -1.2018 0.0 0
M  V30 10 C -3.7468 -3.8646 0.0 0
M  V30 11 N -4.4891 -5.1607 0.0 0
M  V30 12 C -5.9972 -5.1607 0.0 0
M  V30 13 N -6.7749 -3.8646 0.0 0
M  V30 14 C -6.7395 -6.4567 0.0 0
M  V30 15 C -8.283 -3.8646 0.0 0
M  V30 16 C -8.2477 -6.4567 0.0 0
M  V30 17 C -5.9854 -7.7292 0.0 0
M  V30 18 N -9.0253 -5.1607 0.0 0
M  V30 19 N -9.0607 -2.5685 0.0 0
M  V30 20 C -4.6894 -8.448 0.0 0
M  V30 21 C -5.9854 -9.2138 0.0 0
M  V30 22 C -10.5688 -2.5685 0.0 0
M  V30 23 C -11.3465 -1.2725 0.0 0
M  V30 24 C -11.3111 -3.8646 0.0 0
M  V30 25 C -12.8546 -1.2725 0.0 0
M  V30 26 C -12.8193 -3.8646 0.0 0
M  V30 27 C -13.5969 -2.5685 0.0 0
M  V30 28 C -13.6322 0.0235 0.0 0
M  V30 29 C -15.1051 -2.5685 0.0 0
M  V30 30 C -15.1404 0.0235 0.0 0
M  V30 31 N -15.8827 -1.2725 0.0 0
M  V30 32 C -17.3908 -1.2725 0.0 0
M  V30 END ATOM
M  V30 BEGIN BOND
M  V30 1 2 1 2
M  V30 2 1 2 3
M  V30 3 1 2 4
M  V30 4 1 3 5
M  V30 5 1 4 6
M  V30 6 1 4 7
M  V30 7 1 5 8
M  V30 8 1 6 9
M  V30 9 1 8 10
M  V30 10 1 10 11
M  V30 11 1 11 12
M  V30 12 2 12 13
M  V30 13 1 12 14
M  V30 14 1 13 15
M  V30 15 2 14 16
M  V30 16 1 14 17
M  V30 17 2 15 18
M  V30 18 1 15 19
M  V30 19 1 17 20
M  V30 20 1 17 21
M  V30 21 1 19 22
M  V30 22 2 22 23
M  V30 23 1 22 24
M  V30 24 1 23 25
M  V30 25 2 24 26
M  V30 26 2 25 27
M  V30 27 1 25 28
M  V30 28 1 27 29
M  V30 29 1 28 30
M  V30 30 1 29 31
M  V30 31 1 31 32
M  V30 32 1 7 9
M  V30 33 1 16 18
M  V30 34 1 20 21
M  V30 35 1 26 27
M  V30 36 1 30 31
M  V30 END BOND
M  V30 END CTAB
M  END
>  <Compound ID>
207

>  <Name>
MRT68921

>  <Uniprot>
Q9NSY1

>  <Target>
BMP2K

>  <Smiles>
CN1CCC2=CC(NC3=NC=C(C4CC4)C(NCCCNC(=O)C4CCC4)=N3)=CC=C2C1

>  <Kd (nM)>


>  <Assay (Kd)>


>  <Ki (nM)>


>  <Assay (Ki)>


>  <IC50 (nM)>


>  <Assay (IC50)>


>  <EC50 (nM)>


>  <Assay (EC50)>


>  <Article DOI>
10.1016/j.cell.2020.10.038

>  <Molecular Weight>
434.588

>  <Exact Mass>
434.279409708

>  <XLogP3>
4.4

>  <Heavy Atom Count>
32

>  <Ring Count>
5

>  <Hydrogen Bond Acceptor Count>
6

>  <Hydrogen Bond Donor Count>
3

>  <Rotatable Bond Count>
9

>  <Topological Polar Surface Area>
82.18

>  <Molecular Formula>
C25H34N6O

>  <InChI>
InChI=1S/C25H34N6O/c1-31-13-10-19-14-21(9-8-20(19)16-31)29-25-28-15-22(17-6-7-17)23(30-25)26-11-3-12-27-24(32)18-4-2-5-18/h8-9,14-15,17-18H,2-7,10-13,16H2,1H3,(H,27,32)(H2,26,28,29,30)

>  <InChI Key>
KKISLZKMBSCLSS-UHFFFAOYSA-N

>  <BindingDB>
50503137

>  <PubChem>
59225335

>  <ChEMBL>
CHEMBL4516990

$$$$
Compound 630
Actelion Java MolfileCreator 2.0

  0  0  0  0  0  0              0 V3000
M  V30 BEGIN CTAB
M  V30 COUNTS 32 36 0 0 0
M  V30 BEGIN ATOM
M  V30 1 O 0.0 0.0 0.0 0
M  V30 2 C 0.754 -1.2725 0.0 0
M  V30 3 N 0.0117 -2.5685 0.0 0
M  V30 4 C 2.2386 -1.2489 0.0 0
M  V30 5 C -1.4963 -2.5685 0.0 0
M  V30 6 C 3.299 -2.2857 0.0 0
M  V30 7 C 3.2755 -0.1649 0.0 0
M  V30 8 C -2.2386 -3.8646 0.0 0
M  V30 9 C 4.3359 -1.2018 0.0 0
M  V30 10 C -3.7468 -3.8646 0.0 0
M  V30 11 N -4.4891 -5.1607 0.0 0
M  V30 12 C -5.9972 -5.1607 0.0 0
M  V30 13 N -6.7749 -3.8646 0.0 0
M  V30 14 C -6.7395 -6.4567 0.0 0
M  V30 15 C -8.283 -3.8646 0.0 0
M  V30 16 C -8.2477 -6.4567 0.0 0
M  V30 17 C -5.9854 -7.7292 0.0 0
M  V30 18 N -9.0253 -5.1607 0.0 0
M  V30 19 N -9.0607 -2.5685 0.0 0
M  V30 20 C -4.6894 -8.448 0.0 0
M  V30 21 C -5.9854 -9.2138 0.0 0
M  V30 22 C -10.5688 -2.5685 0.0 0
M  V30 23 C -11.3465 -1.2725 0.0 0
M  V30 24 C -11.3111 -3.8646 0.0 0
M  V30 25 C -12.8546 -1.2725 0.0 0
M  V30 26 C -12.8193 -3.8646 0.0 0
M  V30 27 C -13.5969 -2.5685 0.0 0
M  V30 28 C -13.6322 0.0235 0.0 0
M  V30 29 C -15.1051 -2.5685 0.0 0
M  V30 30 C -15.1404 0.0235 0.0 0
M  V30 31 N -15.8827 -1.2725 0.0 0
M  V30 32 C -17.3908 -1.2725 0.0 0
M  V30 END ATOM
M  V30 BEGIN BOND
M  V30 1 2 1 2
M  V30 2 1 2 3
M  V30 3 1 2 4
M  V30 4 1 3 5
M  V30 5 1 4 6
M  V30 6 1 4 7
M  V30 7 1 5 8
M  V30 8 1 6 9
M  V30 9 1 8 10
M  V30 10 1 10 11
M  V30 11 1 11 12
M  V30 12 2 12 13
M  V30 13 1 12 14
M  V30 14 1 13 15
M  V30 15 2 14 16
M  V30 16 1 14 17
M  V30 17 2 15 18
M  V30 18 1 15 19
M  V30 19 1 17 20
M  V30 20 1 17 21
M  V30 21 1 19 22
M  V30 22 2 22 23
M  V30 23 1 22 24
M  V30 24 1 23 25
M  V30 25 2 24 26
M  V30 26 2 25 27
M  V30 27 1 25 28
M  V30 28 1 27 29
M  V30 29 1 28 30
M  V30 30 1 29 31
M  V30 31 1 31 32
M  V30 32 1 7 9
M  V30 33 1 16 18
M  V30 34 1 20 21
M  V30 35 1 26 27
M  V30 36 1 30 31
M  V30 END BOND
M  V30 END CTAB
M  END
>  <Compound ID>
207

>  <Name>
MRT68921

>  <Uniprot>
Q15131

>  <Target>
CDK10

>  <Smiles>
CN1CCC2=CC(NC3=NC=C(C4CC4)C(NCCCNC(=O)C4CCC4)=N3)=CC=C2C1

>  <Kd (nM)>


>  <Assay (Kd)>


>  <Ki (nM)>


>  <Assay (Ki)>


>  <IC50 (nM)>


>  <Assay (IC50)>


>  <EC50 (nM)>


>  <Assay (EC50)>


>  <Article DOI>
10.1016/j.cell.2020.10.038

>  <Molecular Weight>
434.588

>  <Exact Mass>
434.279409708

>  <XLogP3>
4.4

>  <Heavy Atom Count>
32

>  <Ring Count>
5

>  <Hydrogen Bond Acceptor Count>
6

>  <Hydrogen Bond Donor Count>
3

>  <Rotatable Bond Count>
9

>  <Topological Polar Surface Area>
82.18

>  <Molecular Formula>
C25H34N6O

>  <InChI>
InChI=1S/C25H34N6O/c1-31-13-10-19-14-21(9-8-20(19)16-31)29-25-28-15-22(17-6-7-17)23(30-25)26-11-3-12-27-24(32)18-4-2-5-18/h8-9,14-15,17-18H,2-7,10-13,16H2,1H3,(H,27,32)(H2,26,28,29,30)

>  <InChI Key>
KKISLZKMBSCLSS-UHFFFAOYSA-N

>  <BindingDB>
50503137

>  <PubChem>
59225335

>  <ChEMBL>
CHEMBL4516990

$$$$
Compound 631
Actelion Java MolfileCreator 2.0

  0  0  0  0  0  0              0 V3000
M  V30 BEGIN CTAB
M  V30 COUNTS 32 36 0 0 0
M  V30 BEGIN ATOM
M  V30 1 O 0.0 0.0 0.0 0
M  V30 2 C 0.754 -1.2725 0.0 0
M  V30 3 N 0.0117 -2.5685 0.0 0
M  V30 4 C 2.2386 -1.2489 0.0 0
M  V30 5 C -1.4963 -2.5685 0.0 0
M  V30 6 C 3.299 -2.2857 0.0 0
M  V30 7 C 3.2755 -0.1649 0.0 0
M  V30 8 C -2.2386 -3.8646 0.0 0
M  V30 9 C 4.3359 -1.2018 0.0 0
M  V30 10 C -3.7468 -3.8646 0.0 0
M  V30 11 N -4.4891 -5.1607 0.0 0
M  V30 12 C -5.9972 -5.1607 0.0 0
M  V30 13 N -6.7749 -3.8646 0.0 0
M  V30 14 C -6.7395 -6.4567 0.0 0
M  V30 15 C -8.283 -3.8646 0.0 0
M  V30 16 C -8.2477 -6.4567 0.0 0
M  V30 17 C -5.9854 -7.7292 0.0 0
M  V30 18 N -9.0253 -5.1607 0.0 0
M  V30 19 N -9.0607 -2.5685 0.0 0
M  V30 20 C -4.6894 -8.448 0.0 0
M  V30 21 C -5.9854 -9.2138 0.0 0
M  V30 22 C -10.5688 -2.5685 0.0 0
M  V30 23 C -11.3465 -1.2725 0.0 0
M  V30 24 C -11.3111 -3.8646 0.0 0
M  V30 25 C -12.8546 -1.2725 0.0 0
M  V30 26 C -12.8193 -3.8646 0.0 0
M  V30 27 C -13.5969 -2.5685 0.0 0
M  V30 28 C -13.6322 0.0235 0.0 0
M  V30 29 C -15.1051 -2.5685 0.0 0
M  V30 30 C -15.1404 0.0235 0.0 0
M  V30 31 N -15.8827 -1.2725 0.0 0
M  V30 32 C -17.3908 -1.2725 0.0 0
M  V30 END ATOM
M  V30 BEGIN BOND
M  V30 1 2 1 2
M  V30 2 1 2 3
M  V30 3 1 2 4
M  V30 4 1 3 5
M  V30 5 1 4 6
M  V30 6 1 4 7
M  V30 7 1 5 8
M  V30 8 1 6 9
M  V30 9 1 8 10
M  V30 10 1 10 11
M  V30 11 1 11 12
M  V30 12 2 12 13
M  V30 13 1 12 14
M  V30 14 1 13 15
M  V30 15 2 14 16
M  V30 16 1 14 17
M  V30 17 2 15 18
M  V30 18 1 15 19
M  V30 19 1 17 20
M  V30 20 1 17 21
M  V30 21 1 19 22
M  V30 22 2 22 23
M  V30 23 1 22 24
M  V30 24 1 23 25
M  V30 25 2 24 26
M  V30 26 2 25 27
M  V30 27 1 25 28
M  V30 28 1 27 29
M  V30 29 1 28 30
M  V30 30 1 29 31
M  V30 31 1 31 32
M  V30 32 1 7 9
M  V30 33 1 16 18
M  V30 34 1 20 21
M  V30 35 1 26 27
M  V30 36 1 30 31
M  V30 END BOND
M  V30 END CTAB
M  END
>  <Compound ID>
207

>  <Name>
MRT68921

>  <Uniprot>
P50750

>  <Target>
CDK9

>  <Smiles>
CN1CCC2=CC(NC3=NC=C(C4CC4)C(NCCCNC(=O)C4CCC4)=N3)=CC=C2C1

>  <Kd (nM)>


>  <Assay (Kd)>


>  <Ki (nM)>


>  <Assay (Ki)>


>  <IC50 (nM)>


>  <Assay (IC50)>


>  <EC50 (nM)>


>  <Assay (EC50)>


>  <Article DOI>
10.1016/j.cell.2020.10.038

>  <Molecular Weight>
434.588

>  <Exact Mass>
434.279409708

>  <XLogP3>
4.4

>  <Heavy Atom Count>
32

>  <Ring Count>
5

>  <Hydrogen Bond Acceptor Count>
6

>  <Hydrogen Bond Donor Count>
3

>  <Rotatable Bond Count>
9

>  <Topological Polar Surface Area>
82.18

>  <Molecular Formula>
C25H34N6O

>  <InChI>
InChI=1S/C25H34N6O/c1-31-13-10-19-14-21(9-8-20(19)16-31)29-25-28-15-22(17-6-7-17)23(30-25)26-11-3-12-27-24(32)18-4-2-5-18/h8-9,14-15,17-18H,2-7,10-13,16H2,1H3,(H,27,32)(H2,26,28,29,30)

>  <InChI Key>
KKISLZKMBSCLSS-UHFFFAOYSA-N

>  <BindingDB>
50503137

>  <PubChem>
59225335

>  <ChEMBL>
CHEMBL4516990

$$$$
Compound 632
Actelion Java MolfileCreator 2.0

  0  0  0  0  0  0              0 V3000
M  V30 BEGIN CTAB
M  V30 COUNTS 32 36 0 0 0
M  V30 BEGIN ATOM
M  V30 1 O 0.0 0.0 0.0 0
M  V30 2 C 0.754 -1.2725 0.0 0
M  V30 3 N 0.0117 -2.5685 0.0 0
M  V30 4 C 2.2386 -1.2489 0.0 0
M  V30 5 C -1.4963 -2.5685 0.0 0
M  V30 6 C 3.299 -2.2857 0.0 0
M  V30 7 C 3.2755 -0.1649 0.0 0
M  V30 8 C -2.2386 -3.8646 0.0 0
M  V30 9 C 4.3359 -1.2018 0.0 0
M  V30 10 C -3.7468 -3.8646 0.0 0
M  V30 11 N -4.4891 -5.1607 0.0 0
M  V30 12 C -5.9972 -5.1607 0.0 0
M  V30 13 N -6.7749 -3.8646 0.0 0
M  V30 14 C -6.7395 -6.4567 0.0 0
M  V30 15 C -8.283 -3.8646 0.0 0
M  V30 16 C -8.2477 -6.4567 0.0 0
M  V30 17 C -5.9854 -7.7292 0.0 0
M  V30 18 N -9.0253 -5.1607 0.0 0
M  V30 19 N -9.0607 -2.5685 0.0 0
M  V30 20 C -4.6894 -8.448 0.0 0
M  V30 21 C -5.9854 -9.2138 0.0 0
M  V30 22 C -10.5688 -2.5685 0.0 0
M  V30 23 C -11.3465 -1.2725 0.0 0
M  V30 24 C -11.3111 -3.8646 0.0 0
M  V30 25 C -12.8546 -1.2725 0.0 0
M  V30 26 C -12.8193 -3.8646 0.0 0
M  V30 27 C -13.5969 -2.5685 0.0 0
M  V30 28 C -13.6322 0.0235 0.0 0
M  V30 29 C -15.1051 -2.5685 0.0 0
M  V30 30 C -15.1404 0.0235 0.0 0
M  V30 31 N -15.8827 -1.2725 0.0 0
M  V30 32 C -17.3908 -1.2725 0.0 0
M  V30 END ATOM
M  V30 BEGIN BOND
M  V30 1 2 1 2
M  V30 2 1 2 3
M  V30 3 1 2 4
M  V30 4 1 3 5
M  V30 5 1 4 6
M  V30 6 1 4 7
M  V30 7 1 5 8
M  V30 8 1 6 9
M  V30 9 1 8 10
M  V30 10 1 10 11
M  V30 11 1 11 12
M  V30 12 2 12 13
M  V30 13 1 12 14
M  V30 14 1 13 15
M  V30 15 2 14 16
M  V30 16 1 14 17
M  V30 17 2 15 18
M  V30 18 1 15 19
M  V30 19 1 17 20
M  V30 20 1 17 21
M  V30 21 1 19 22
M  V30 22 2 22 23
M  V30 23 1 22 24
M  V30 24 1 23 25
M  V30 25 2 24 26
M  V30 26 2 25 27
M  V30 27 1 25 28
M  V30 28 1 27 29
M  V30 29 1 28 30
M  V30 30 1 29 31
M  V30 31 1 31 32
M  V30 32 1 7 9
M  V30 33 1 16 18
M  V30 34 1 20 21
M  V30 35 1 26 27
M  V30 36 1 30 31
M  V30 END BOND
M  V30 END CTAB
M  END
>  <Compound ID>
207

>  <Name>
MRT68921

>  <Uniprot>
O14976

>  <Target>
GAK

>  <Smiles>
CN1CCC2=CC(NC3=NC=C(C4CC4)C(NCCCNC(=O)C4CCC4)=N3)=CC=C2C1

>  <Kd (nM)>


>  <Assay (Kd)>


>  <Ki (nM)>


>  <Assay (Ki)>


>  <IC50 (nM)>


>  <Assay (IC50)>


>  <EC50 (nM)>


>  <Assay (EC50)>


>  <Article DOI>
10.1016/j.cell.2020.10.038

>  <Molecular Weight>
434.588

>  <Exact Mass>
434.279409708

>  <XLogP3>
4.4

>  <Heavy Atom Count>
32

>  <Ring Count>
5

>  <Hydrogen Bond Acceptor Count>
6

>  <Hydrogen Bond Donor Count>
3

>  <Rotatable Bond Count>
9

>  <Topological Polar Surface Area>
82.18

>  <Molecular Formula>
C25H34N6O

>  <InChI>
InChI=1S/C25H34N6O/c1-31-13-10-19-14-21(9-8-20(19)16-31)29-25-28-15-22(17-6-7-17)23(30-25)26-11-3-12-27-24(32)18-4-2-5-18/h8-9,14-15,17-18H,2-7,10-13,16H2,1H3,(H,27,32)(H2,26,28,29,30)

>  <InChI Key>
KKISLZKMBSCLSS-UHFFFAOYSA-N

>  <BindingDB>
50503137

>  <PubChem>
59225335

>  <ChEMBL>
CHEMBL4516990

$$$$
Compound 633
Actelion Java MolfileCreator 2.0

  0  0  0  0  0  0              0 V3000
M  V30 BEGIN CTAB
M  V30 COUNTS 32 36 0 0 0
M  V30 BEGIN ATOM
M  V30 1 O 0.0 0.0 0.0 0
M  V30 2 C 0.754 -1.2725 0.0 0
M  V30 3 N 0.0117 -2.5685 0.0 0
M  V30 4 C 2.2386 -1.2489 0.0 0
M  V30 5 C -1.4963 -2.5685 0.0 0
M  V30 6 C 3.299 -2.2857 0.0 0
M  V30 7 C 3.2755 -0.1649 0.0 0
M  V30 8 C -2.2386 -3.8646 0.0 0
M  V30 9 C 4.3359 -1.2018 0.0 0
M  V30 10 C -3.7468 -3.8646 0.0 0
M  V30 11 N -4.4891 -5.1607 0.0 0
M  V30 12 C -5.9972 -5.1607 0.0 0
M  V30 13 N -6.7749 -3.8646 0.0 0
M  V30 14 C -6.7395 -6.4567 0.0 0
M  V30 15 C -8.283 -3.8646 0.0 0
M  V30 16 C -8.2477 -6.4567 0.0 0
M  V30 17 C -5.9854 -7.7292 0.0 0
M  V30 18 N -9.0253 -5.1607 0.0 0
M  V30 19 N -9.0607 -2.5685 0.0 0
M  V30 20 C -4.6894 -8.448 0.0 0
M  V30 21 C -5.9854 -9.2138 0.0 0
M  V30 22 C -10.5688 -2.5685 0.0 0
M  V30 23 C -11.3465 -1.2725 0.0 0
M  V30 24 C -11.3111 -3.8646 0.0 0
M  V30 25 C -12.8546 -1.2725 0.0 0
M  V30 26 C -12.8193 -3.8646 0.0 0
M  V30 27 C -13.5969 -2.5685 0.0 0
M  V30 28 C -13.6322 0.0235 0.0 0
M  V30 29 C -15.1051 -2.5685 0.0 0
M  V30 30 C -15.1404 0.0235 0.0 0
M  V30 31 N -15.8827 -1.2725 0.0 0
M  V30 32 C -17.3908 -1.2725 0.0 0
M  V30 END ATOM
M  V30 BEGIN BOND
M  V30 1 2 1 2
M  V30 2 1 2 3
M  V30 3 1 2 4
M  V30 4 1 3 5
M  V30 5 1 4 6
M  V30 6 1 4 7
M  V30 7 1 5 8
M  V30 8 1 6 9
M  V30 9 1 8 10
M  V30 10 1 10 11
M  V30 11 1 11 12
M  V30 12 2 12 13
M  V30 13 1 12 14
M  V30 14 1 13 15
M  V30 15 2 14 16
M  V30 16 1 14 17
M  V30 17 2 15 18
M  V30 18 1 15 19
M  V30 19 1 17 20
M  V30 20 1 17 21
M  V30 21 1 19 22
M  V30 22 2 22 23
M  V30 23 1 22 24
M  V30 24 1 23 25
M  V30 25 2 24 26
M  V30 26 2 25 27
M  V30 27 1 25 28
M  V30 28 1 27 29
M  V30 29 1 28 30
M  V30 30 1 29 31
M  V30 31 1 31 32
M  V30 32 1 7 9
M  V30 33 1 16 18
M  V30 34 1 20 21
M  V30 35 1 26 27
M  V30 36 1 30 31
M  V30 END BOND
M  V30 END CTAB
M  END
>  <Compound ID>
207

>  <Name>
MRT68921

>  <Uniprot>
Q7KZI7

>  <Target>
MARK2

>  <Smiles>
CN1CCC2=CC(NC3=NC=C(C4CC4)C(NCCCNC(=O)C4CCC4)=N3)=CC=C2C1

>  <Kd (nM)>


>  <Assay (Kd)>


>  <Ki (nM)>


>  <Assay (Ki)>


>  <IC50 (nM)>


>  <Assay (IC50)>


>  <EC50 (nM)>


>  <Assay (EC50)>


>  <Article DOI>
10.1016/j.cell.2020.10.038

>  <Molecular Weight>
434.588

>  <Exact Mass>
434.279409708

>  <XLogP3>
4.4

>  <Heavy Atom Count>
32

>  <Ring Count>
5

>  <Hydrogen Bond Acceptor Count>
6

>  <Hydrogen Bond Donor Count>
3

>  <Rotatable Bond Count>
9

>  <Topological Polar Surface Area>
82.18

>  <Molecular Formula>
C25H34N6O

>  <InChI>
InChI=1S/C25H34N6O/c1-31-13-10-19-14-21(9-8-20(19)16-31)29-25-28-15-22(17-6-7-17)23(30-25)26-11-3-12-27-24(32)18-4-2-5-18/h8-9,14-15,17-18H,2-7,10-13,16H2,1H3,(H,27,32)(H2,26,28,29,30)

>  <InChI Key>
KKISLZKMBSCLSS-UHFFFAOYSA-N

>  <BindingDB>
50503137

>  <PubChem>
59225335

>  <ChEMBL>
CHEMBL4516990

$$$$
Compound 634
Actelion Java MolfileCreator 2.0

  0  0  0  0  0  0              0 V3000
M  V30 BEGIN CTAB
M  V30 COUNTS 32 36 0 0 0
M  V30 BEGIN ATOM
M  V30 1 O 0.0 0.0 0.0 0
M  V30 2 C 0.754 -1.2725 0.0 0
M  V30 3 N 0.0117 -2.5685 0.0 0
M  V30 4 C 2.2386 -1.2489 0.0 0
M  V30 5 C -1.4963 -2.5685 0.0 0
M  V30 6 C 3.299 -2.2857 0.0 0
M  V30 7 C 3.2755 -0.1649 0.0 0
M  V30 8 C -2.2386 -3.8646 0.0 0
M  V30 9 C 4.3359 -1.2018 0.0 0
M  V30 10 C -3.7468 -3.8646 0.0 0
M  V30 11 N -4.4891 -5.1607 0.0 0
M  V30 12 C -5.9972 -5.1607 0.0 0
M  V30 13 N -6.7749 -3.8646 0.0 0
M  V30 14 C -6.7395 -6.4567 0.0 0
M  V30 15 C -8.283 -3.8646 0.0 0
M  V30 16 C -8.2477 -6.4567 0.0 0
M  V30 17 C -5.9854 -7.7292 0.0 0
M  V30 18 N -9.0253 -5.1607 0.0 0
M  V30 19 N -9.0607 -2.5685 0.0 0
M  V30 20 C -4.6894 -8.448 0.0 0
M  V30 21 C -5.9854 -9.2138 0.0 0
M  V30 22 C -10.5688 -2.5685 0.0 0
M  V30 23 C -11.3465 -1.2725 0.0 0
M  V30 24 C -11.3111 -3.8646 0.0 0
M  V30 25 C -12.8546 -1.2725 0.0 0
M  V30 26 C -12.8193 -3.8646 0.0 0
M  V30 27 C -13.5969 -2.5685 0.0 0
M  V30 28 C -13.6322 0.0235 0.0 0
M  V30 29 C -15.1051 -2.5685 0.0 0
M  V30 30 C -15.1404 0.0235 0.0 0
M  V30 31 N -15.8827 -1.2725 0.0 0
M  V30 32 C -17.3908 -1.2725 0.0 0
M  V30 END ATOM
M  V30 BEGIN BOND
M  V30 1 2 1 2
M  V30 2 1 2 3
M  V30 3 1 2 4
M  V30 4 1 3 5
M  V30 5 1 4 6
M  V30 6 1 4 7
M  V30 7 1 5 8
M  V30 8 1 6 9
M  V30 9 1 8 10
M  V30 10 1 10 11
M  V30 11 1 11 12
M  V30 12 2 12 13
M  V30 13 1 12 14
M  V30 14 1 13 15
M  V30 15 2 14 16
M  V30 16 1 14 17
M  V30 17 2 15 18
M  V30 18 1 15 19
M  V30 19 1 17 20
M  V30 20 1 17 21
M  V30 21 1 19 22
M  V30 22 2 22 23
M  V30 23 1 22 24
M  V30 24 1 23 25
M  V30 25 2 24 26
M  V30 26 2 25 27
M  V30 27 1 25 28
M  V30 28 1 27 29
M  V30 29 1 28 30
M  V30 30 1 29 31
M  V30 31 1 31 32
M  V30 32 1 7 9
M  V30 33 1 16 18
M  V30 34 1 20 21
M  V30 35 1 26 27
M  V30 36 1 30 31
M  V30 END BOND
M  V30 END CTAB
M  END
>  <Compound ID>
207

>  <Name>
MRT68921

>  <Uniprot>
P27448

>  <Target>
MARK3

>  <Smiles>
CN1CCC2=CC(NC3=NC=C(C4CC4)C(NCCCNC(=O)C4CCC4)=N3)=CC=C2C1

>  <Kd (nM)>


>  <Assay (Kd)>


>  <Ki (nM)>


>  <Assay (Ki)>


>  <IC50 (nM)>


>  <Assay (IC50)>


>  <EC50 (nM)>


>  <Assay (EC50)>


>  <Article DOI>
10.1016/j.cell.2020.10.038

>  <Molecular Weight>
434.588

>  <Exact Mass>
434.279409708

>  <XLogP3>
4.4

>  <Heavy Atom Count>
32

>  <Ring Count>
5

>  <Hydrogen Bond Acceptor Count>
6

>  <Hydrogen Bond Donor Count>
3

>  <Rotatable Bond Count>
9

>  <Topological Polar Surface Area>
82.18

>  <Molecular Formula>
C25H34N6O

>  <InChI>
InChI=1S/C25H34N6O/c1-31-13-10-19-14-21(9-8-20(19)16-31)29-25-28-15-22(17-6-7-17)23(30-25)26-11-3-12-27-24(32)18-4-2-5-18/h8-9,14-15,17-18H,2-7,10-13,16H2,1H3,(H,27,32)(H2,26,28,29,30)

>  <InChI Key>
KKISLZKMBSCLSS-UHFFFAOYSA-N

>  <BindingDB>
50503137

>  <PubChem>
59225335

>  <ChEMBL>
CHEMBL4516990

$$$$
Compound 635
Actelion Java MolfileCreator 2.0

  0  0  0  0  0  0              0 V3000
M  V30 BEGIN CTAB
M  V30 COUNTS 32 36 0 0 0
M  V30 BEGIN ATOM
M  V30 1 O 0.0 0.0 0.0 0
M  V30 2 C 0.754 -1.2725 0.0 0
M  V30 3 N 0.0117 -2.5685 0.0 0
M  V30 4 C 2.2386 -1.2489 0.0 0
M  V30 5 C -1.4963 -2.5685 0.0 0
M  V30 6 C 3.299 -2.2857 0.0 0
M  V30 7 C 3.2755 -0.1649 0.0 0
M  V30 8 C -2.2386 -3.8646 0.0 0
M  V30 9 C 4.3359 -1.2018 0.0 0
M  V30 10 C -3.7468 -3.8646 0.0 0
M  V30 11 N -4.4891 -5.1607 0.0 0
M  V30 12 C -5.9972 -5.1607 0.0 0
M  V30 13 N -6.7749 -3.8646 0.0 0
M  V30 14 C -6.7395 -6.4567 0.0 0
M  V30 15 C -8.283 -3.8646 0.0 0
M  V30 16 C -8.2477 -6.4567 0.0 0
M  V30 17 C -5.9854 -7.7292 0.0 0
M  V30 18 N -9.0253 -5.1607 0.0 0
M  V30 19 N -9.0607 -2.5685 0.0 0
M  V30 20 C -4.6894 -8.448 0.0 0
M  V30 21 C -5.9854 -9.2138 0.0 0
M  V30 22 C -10.5688 -2.5685 0.0 0
M  V30 23 C -11.3465 -1.2725 0.0 0
M  V30 24 C -11.3111 -3.8646 0.0 0
M  V30 25 C -12.8546 -1.2725 0.0 0
M  V30 26 C -12.8193 -3.8646 0.0 0
M  V30 27 C -13.5969 -2.5685 0.0 0
M  V30 28 C -13.6322 0.0235 0.0 0
M  V30 29 C -15.1051 -2.5685 0.0 0
M  V30 30 C -15.1404 0.0235 0.0 0
M  V30 31 N -15.8827 -1.2725 0.0 0
M  V30 32 C -17.3908 -1.2725 0.0 0
M  V30 END ATOM
M  V30 BEGIN BOND
M  V30 1 2 1 2
M  V30 2 1 2 3
M  V30 3 1 2 4
M  V30 4 1 3 5
M  V30 5 1 4 6
M  V30 6 1 4 7
M  V30 7 1 5 8
M  V30 8 1 6 9
M  V30 9 1 8 10
M  V30 10 1 10 11
M  V30 11 1 11 12
M  V30 12 2 12 13
M  V30 13 1 12 14
M  V30 14 1 13 15
M  V30 15 2 14 16
M  V30 16 1 14 17
M  V30 17 2 15 18
M  V30 18 1 15 19
M  V30 19 1 17 20
M  V30 20 1 17 21
M  V30 21 1 19 22
M  V30 22 2 22 23
M  V30 23 1 22 24
M  V30 24 1 23 25
M  V30 25 2 24 26
M  V30 26 2 25 27
M  V30 27 1 25 28
M  V30 28 1 27 29
M  V30 29 1 28 30
M  V30 30 1 29 31
M  V30 31 1 31 32
M  V30 32 1 7 9
M  V30 33 1 16 18
M  V30 34 1 20 21
M  V30 35 1 26 27
M  V30 36 1 30 31
M  V30 END BOND
M  V30 END CTAB
M  END
>  <Compound ID>
207

>  <Name>
MRT68921

>  <Uniprot>
Q96L34

>  <Target>
MARK4

>  <Smiles>
CN1CCC2=CC(NC3=NC=C(C4CC4)C(NCCCNC(=O)C4CCC4)=N3)=CC=C2C1

>  <Kd (nM)>


>  <Assay (Kd)>


>  <Ki (nM)>


>  <Assay (Ki)>


>  <IC50 (nM)>


>  <Assay (IC50)>


>  <EC50 (nM)>


>  <Assay (EC50)>


>  <Article DOI>
10.1016/j.cell.2020.10.038

>  <Molecular Weight>
434.588

>  <Exact Mass>
434.279409708

>  <XLogP3>
4.4

>  <Heavy Atom Count>
32

>  <Ring Count>
5

>  <Hydrogen Bond Acceptor Count>
6

>  <Hydrogen Bond Donor Count>
3

>  <Rotatable Bond Count>
9

>  <Topological Polar Surface Area>
82.18

>  <Molecular Formula>
C25H34N6O

>  <InChI>
InChI=1S/C25H34N6O/c1-31-13-10-19-14-21(9-8-20(19)16-31)29-25-28-15-22(17-6-7-17)23(30-25)26-11-3-12-27-24(32)18-4-2-5-18/h8-9,14-15,17-18H,2-7,10-13,16H2,1H3,(H,27,32)(H2,26,28,29,30)

>  <InChI Key>
KKISLZKMBSCLSS-UHFFFAOYSA-N

>  <BindingDB>
50503137

>  <PubChem>
59225335

>  <ChEMBL>
CHEMBL4516990

$$$$
Compound 636
Actelion Java MolfileCreator 2.0

  0  0  0  0  0  0              0 V3000
M  V30 BEGIN CTAB
M  V30 COUNTS 32 36 0 0 0
M  V30 BEGIN ATOM
M  V30 1 O 0.0 0.0 0.0 0
M  V30 2 C 0.754 -1.2725 0.0 0
M  V30 3 N 0.0117 -2.5685 0.0 0
M  V30 4 C 2.2386 -1.2489 0.0 0
M  V30 5 C -1.4963 -2.5685 0.0 0
M  V30 6 C 3.299 -2.2857 0.0 0
M  V30 7 C 3.2755 -0.1649 0.0 0
M  V30 8 C -2.2386 -3.8646 0.0 0
M  V30 9 C 4.3359 -1.2018 0.0 0
M  V30 10 C -3.7468 -3.8646 0.0 0
M  V30 11 N -4.4891 -5.1607 0.0 0
M  V30 12 C -5.9972 -5.1607 0.0 0
M  V30 13 N -6.7749 -3.8646 0.0 0
M  V30 14 C -6.7395 -6.4567 0.0 0
M  V30 15 C -8.283 -3.8646 0.0 0
M  V30 16 C -8.2477 -6.4567 0.0 0
M  V30 17 C -5.9854 -7.7292 0.0 0
M  V30 18 N -9.0253 -5.1607 0.0 0
M  V30 19 N -9.0607 -2.5685 0.0 0
M  V30 20 C -4.6894 -8.448 0.0 0
M  V30 21 C -5.9854 -9.2138 0.0 0
M  V30 22 C -10.5688 -2.5685 0.0 0
M  V30 23 C -11.3465 -1.2725 0.0 0
M  V30 24 C -11.3111 -3.8646 0.0 0
M  V30 25 C -12.8546 -1.2725 0.0 0
M  V30 26 C -12.8193 -3.8646 0.0 0
M  V30 27 C -13.5969 -2.5685 0.0 0
M  V30 28 C -13.6322 0.0235 0.0 0
M  V30 29 C -15.1051 -2.5685 0.0 0
M  V30 30 C -15.1404 0.0235 0.0 0
M  V30 31 N -15.8827 -1.2725 0.0 0
M  V30 32 C -17.3908 -1.2725 0.0 0
M  V30 END ATOM
M  V30 BEGIN BOND
M  V30 1 2 1 2
M  V30 2 1 2 3
M  V30 3 1 2 4
M  V30 4 1 3 5
M  V30 5 1 4 6
M  V30 6 1 4 7
M  V30 7 1 5 8
M  V30 8 1 6 9
M  V30 9 1 8 10
M  V30 10 1 10 11
M  V30 11 1 11 12
M  V30 12 2 12 13
M  V30 13 1 12 14
M  V30 14 1 13 15
M  V30 15 2 14 16
M  V30 16 1 14 17
M  V30 17 2 15 18
M  V30 18 1 15 19
M  V30 19 1 17 20
M  V30 20 1 17 21
M  V30 21 1 19 22
M  V30 22 2 22 23
M  V30 23 1 22 24
M  V30 24 1 23 25
M  V30 25 2 24 26
M  V30 26 2 25 27
M  V30 27 1 25 28
M  V30 28 1 27 29
M  V30 29 1 28 30
M  V30 30 1 29 31
M  V30 31 1 31 32
M  V30 32 1 7 9
M  V30 33 1 16 18
M  V30 34 1 20 21
M  V30 35 1 26 27
M  V30 36 1 30 31
M  V30 END BOND
M  V30 END CTAB
M  END
>  <Compound ID>
207

>  <Name>
MRT68921

>  <Uniprot>
P23443

>  <Target>
RPS6KB1

>  <Smiles>
CN1CCC2=CC(NC3=NC=C(C4CC4)C(NCCCNC(=O)C4CCC4)=N3)=CC=C2C1

>  <Kd (nM)>


>  <Assay (Kd)>


>  <Ki (nM)>


>  <Assay (Ki)>


>  <IC50 (nM)>


>  <Assay (IC50)>


>  <EC50 (nM)>


>  <Assay (EC50)>


>  <Article DOI>
10.1016/j.cell.2020.10.038

>  <Molecular Weight>
434.588

>  <Exact Mass>
434.279409708

>  <XLogP3>
4.4

>  <Heavy Atom Count>
32

>  <Ring Count>
5

>  <Hydrogen Bond Acceptor Count>
6

>  <Hydrogen Bond Donor Count>
3

>  <Rotatable Bond Count>
9

>  <Topological Polar Surface Area>
82.18

>  <Molecular Formula>
C25H34N6O

>  <InChI>
InChI=1S/C25H34N6O/c1-31-13-10-19-14-21(9-8-20(19)16-31)29-25-28-15-22(17-6-7-17)23(30-25)26-11-3-12-27-24(32)18-4-2-5-18/h8-9,14-15,17-18H,2-7,10-13,16H2,1H3,(H,27,32)(H2,26,28,29,30)

>  <InChI Key>
KKISLZKMBSCLSS-UHFFFAOYSA-N

>  <BindingDB>
50503137

>  <PubChem>
59225335

>  <ChEMBL>
CHEMBL4516990

$$$$
Compound 637
Actelion Java MolfileCreator 2.0

  0  0  0  0  0  0              0 V3000
M  V30 BEGIN CTAB
M  V30 COUNTS 32 36 0 0 0
M  V30 BEGIN ATOM
M  V30 1 O 0.0 0.0 0.0 0
M  V30 2 C 0.754 -1.2725 0.0 0
M  V30 3 N 0.0117 -2.5685 0.0 0
M  V30 4 C 2.2386 -1.2489 0.0 0
M  V30 5 C -1.4963 -2.5685 0.0 0
M  V30 6 C 3.299 -2.2857 0.0 0
M  V30 7 C 3.2755 -0.1649 0.0 0
M  V30 8 C -2.2386 -3.8646 0.0 0
M  V30 9 C 4.3359 -1.2018 0.0 0
M  V30 10 C -3.7468 -3.8646 0.0 0
M  V30 11 N -4.4891 -5.1607 0.0 0
M  V30 12 C -5.9972 -5.1607 0.0 0
M  V30 13 N -6.7749 -3.8646 0.0 0
M  V30 14 C -6.7395 -6.4567 0.0 0
M  V30 15 C -8.283 -3.8646 0.0 0
M  V30 16 C -8.2477 -6.4567 0.0 0
M  V30 17 C -5.9854 -7.7292 0.0 0
M  V30 18 N -9.0253 -5.1607 0.0 0
M  V30 19 N -9.0607 -2.5685 0.0 0
M  V30 20 C -4.6894 -8.448 0.0 0
M  V30 21 C -5.9854 -9.2138 0.0 0
M  V30 22 C -10.5688 -2.5685 0.0 0
M  V30 23 C -11.3465 -1.2725 0.0 0
M  V30 24 C -11.3111 -3.8646 0.0 0
M  V30 25 C -12.8546 -1.2725 0.0 0
M  V30 26 C -12.8193 -3.8646 0.0 0
M  V30 27 C -13.5969 -2.5685 0.0 0
M  V30 28 C -13.6322 0.0235 0.0 0
M  V30 29 C -15.1051 -2.5685 0.0 0
M  V30 30 C -15.1404 0.0235 0.0 0
M  V30 31 N -15.8827 -1.2725 0.0 0
M  V30 32 C -17.3908 -1.2725 0.0 0
M  V30 END ATOM
M  V30 BEGIN BOND
M  V30 1 2 1 2
M  V30 2 1 2 3
M  V30 3 1 2 4
M  V30 4 1 3 5
M  V30 5 1 4 6
M  V30 6 1 4 7
M  V30 7 1 5 8
M  V30 8 1 6 9
M  V30 9 1 8 10
M  V30 10 1 10 11
M  V30 11 1 11 12
M  V30 12 2 12 13
M  V30 13 1 12 14
M  V30 14 1 13 15
M  V30 15 2 14 16
M  V30 16 1 14 17
M  V30 17 2 15 18
M  V30 18 1 15 19
M  V30 19 1 17 20
M  V30 20 1 17 21
M  V30 21 1 19 22
M  V30 22 2 22 23
M  V30 23 1 22 24
M  V30 24 1 23 25
M  V30 25 2 24 26
M  V30 26 2 25 27
M  V30 27 1 25 28
M  V30 28 1 27 29
M  V30 29 1 28 30
M  V30 30 1 29 31
M  V30 31 1 31 32
M  V30 32 1 7 9
M  V30 33 1 16 18
M  V30 34 1 20 21
M  V30 35 1 26 27
M  V30 36 1 30 31
M  V30 END BOND
M  V30 END CTAB
M  END
>  <Compound ID>
207

>  <Name>
MRT68921

>  <Uniprot>
Q9H0K1

>  <Target>
SIK2

>  <Smiles>
CN1CCC2=CC(NC3=NC=C(C4CC4)C(NCCCNC(=O)C4CCC4)=N3)=CC=C2C1

>  <Kd (nM)>


>  <Assay (Kd)>


>  <Ki (nM)>


>  <Assay (Ki)>


>  <IC50 (nM)>


>  <Assay (IC50)>


>  <EC50 (nM)>


>  <Assay (EC50)>


>  <Article DOI>
10.1016/j.cell.2020.10.038

>  <Molecular Weight>
434.588

>  <Exact Mass>
434.279409708

>  <XLogP3>
4.4

>  <Heavy Atom Count>
32

>  <Ring Count>
5

>  <Hydrogen Bond Acceptor Count>
6

>  <Hydrogen Bond Donor Count>
3

>  <Rotatable Bond Count>
9

>  <Topological Polar Surface Area>
82.18

>  <Molecular Formula>
C25H34N6O

>  <InChI>
InChI=1S/C25H34N6O/c1-31-13-10-19-14-21(9-8-20(19)16-31)29-25-28-15-22(17-6-7-17)23(30-25)26-11-3-12-27-24(32)18-4-2-5-18/h8-9,14-15,17-18H,2-7,10-13,16H2,1H3,(H,27,32)(H2,26,28,29,30)

>  <InChI Key>
KKISLZKMBSCLSS-UHFFFAOYSA-N

>  <BindingDB>
50503137

>  <PubChem>
59225335

>  <ChEMBL>
CHEMBL4516990

$$$$
Compound 638
Actelion Java MolfileCreator 2.0

  0  0  0  0  0  0              0 V3000
M  V30 BEGIN CTAB
M  V30 COUNTS 32 36 0 0 0
M  V30 BEGIN ATOM
M  V30 1 O 0.0 0.0 0.0 0
M  V30 2 C 0.754 -1.2725 0.0 0
M  V30 3 N 0.0117 -2.5685 0.0 0
M  V30 4 C 2.2386 -1.2489 0.0 0
M  V30 5 C -1.4963 -2.5685 0.0 0
M  V30 6 C 3.299 -2.2857 0.0 0
M  V30 7 C 3.2755 -0.1649 0.0 0
M  V30 8 C -2.2386 -3.8646 0.0 0
M  V30 9 C 4.3359 -1.2018 0.0 0
M  V30 10 C -3.7468 -3.8646 0.0 0
M  V30 11 N -4.4891 -5.1607 0.0 0
M  V30 12 C -5.9972 -5.1607 0.0 0
M  V30 13 N -6.7749 -3.8646 0.0 0
M  V30 14 C -6.7395 -6.4567 0.0 0
M  V30 15 C -8.283 -3.8646 0.0 0
M  V30 16 C -8.2477 -6.4567 0.0 0
M  V30 17 C -5.9854 -7.7292 0.0 0
M  V30 18 N -9.0253 -5.1607 0.0 0
M  V30 19 N -9.0607 -2.5685 0.0 0
M  V30 20 C -4.6894 -8.448 0.0 0
M  V30 21 C -5.9854 -9.2138 0.0 0
M  V30 22 C -10.5688 -2.5685 0.0 0
M  V30 23 C -11.3465 -1.2725 0.0 0
M  V30 24 C -11.3111 -3.8646 0.0 0
M  V30 25 C -12.8546 -1.2725 0.0 0
M  V30 26 C -12.8193 -3.8646 0.0 0
M  V30 27 C -13.5969 -2.5685 0.0 0
M  V30 28 C -13.6322 0.0235 0.0 0
M  V30 29 C -15.1051 -2.5685 0.0 0
M  V30 30 C -15.1404 0.0235 0.0 0
M  V30 31 N -15.8827 -1.2725 0.0 0
M  V30 32 C -17.3908 -1.2725 0.0 0
M  V30 END ATOM
M  V30 BEGIN BOND
M  V30 1 2 1 2
M  V30 2 1 2 3
M  V30 3 1 2 4
M  V30 4 1 3 5
M  V30 5 1 4 6
M  V30 6 1 4 7
M  V30 7 1 5 8
M  V30 8 1 6 9
M  V30 9 1 8 10
M  V30 10 1 10 11
M  V30 11 1 11 12
M  V30 12 2 12 13
M  V30 13 1 12 14
M  V30 14 1 13 15
M  V30 15 2 14 16
M  V30 16 1 14 17
M  V30 17 2 15 18
M  V30 18 1 15 19
M  V30 19 1 17 20
M  V30 20 1 17 21
M  V30 21 1 19 22
M  V30 22 2 22 23
M  V30 23 1 22 24
M  V30 24 1 23 25
M  V30 25 2 24 26
M  V30 26 2 25 27
M  V30 27 1 25 28
M  V30 28 1 27 29
M  V30 29 1 28 30
M  V30 30 1 29 31
M  V30 31 1 31 32
M  V30 32 1 7 9
M  V30 33 1 16 18
M  V30 34 1 20 21
M  V30 35 1 26 27
M  V30 36 1 30 31
M  V30 END BOND
M  V30 END CTAB
M  END
>  <Compound ID>
207

>  <Name>
MRT68921

>  <Uniprot>
Q9Y2K2

>  <Target>
SIK3

>  <Smiles>
CN1CCC2=CC(NC3=NC=C(C4CC4)C(NCCCNC(=O)C4CCC4)=N3)=CC=C2C1

>  <Kd (nM)>


>  <Assay (Kd)>


>  <Ki (nM)>


>  <Assay (Ki)>


>  <IC50 (nM)>


>  <Assay (IC50)>


>  <EC50 (nM)>


>  <Assay (EC50)>


>  <Article DOI>
10.1016/j.cell.2020.10.038

>  <Molecular Weight>
434.588

>  <Exact Mass>
434.279409708

>  <XLogP3>
4.4

>  <Heavy Atom Count>
32

>  <Ring Count>
5

>  <Hydrogen Bond Acceptor Count>
6

>  <Hydrogen Bond Donor Count>
3

>  <Rotatable Bond Count>
9

>  <Topological Polar Surface Area>
82.18

>  <Molecular Formula>
C25H34N6O

>  <InChI>
InChI=1S/C25H34N6O/c1-31-13-10-19-14-21(9-8-20(19)16-31)29-25-28-15-22(17-6-7-17)23(30-25)26-11-3-12-27-24(32)18-4-2-5-18/h8-9,14-15,17-18H,2-7,10-13,16H2,1H3,(H,27,32)(H2,26,28,29,30)

>  <InChI Key>
KKISLZKMBSCLSS-UHFFFAOYSA-N

>  <BindingDB>
50503137

>  <PubChem>
59225335

>  <ChEMBL>
CHEMBL4516990

$$$$
Compound 639
Actelion Java MolfileCreator 2.0

  0  0  0  0  0  0              0 V3000
M  V30 BEGIN CTAB
M  V30 COUNTS 32 36 0 0 0
M  V30 BEGIN ATOM
M  V30 1 O 0.0 0.0 0.0 0
M  V30 2 C 0.754 -1.2725 0.0 0
M  V30 3 N 0.0117 -2.5685 0.0 0
M  V30 4 C 2.2386 -1.2489 0.0 0
M  V30 5 C -1.4963 -2.5685 0.0 0
M  V30 6 C 3.299 -2.2857 0.0 0
M  V30 7 C 3.2755 -0.1649 0.0 0
M  V30 8 C -2.2386 -3.8646 0.0 0
M  V30 9 C 4.3359 -1.2018 0.0 0
M  V30 10 C -3.7468 -3.8646 0.0 0
M  V30 11 N -4.4891 -5.1607 0.0 0
M  V30 12 C -5.9972 -5.1607 0.0 0
M  V30 13 N -6.7749 -3.8646 0.0 0
M  V30 14 C -6.7395 -6.4567 0.0 0
M  V30 15 C -8.283 -3.8646 0.0 0
M  V30 16 C -8.2477 -6.4567 0.0 0
M  V30 17 C -5.9854 -7.7292 0.0 0
M  V30 18 N -9.0253 -5.1607 0.0 0
M  V30 19 N -9.0607 -2.5685 0.0 0
M  V30 20 C -4.6894 -8.448 0.0 0
M  V30 21 C -5.9854 -9.2138 0.0 0
M  V30 22 C -10.5688 -2.5685 0.0 0
M  V30 23 C -11.3465 -1.2725 0.0 0
M  V30 24 C -11.3111 -3.8646 0.0 0
M  V30 25 C -12.8546 -1.2725 0.0 0
M  V30 26 C -12.8193 -3.8646 0.0 0
M  V30 27 C -13.5969 -2.5685 0.0 0
M  V30 28 C -13.6322 0.0235 0.0 0
M  V30 29 C -15.1051 -2.5685 0.0 0
M  V30 30 C -15.1404 0.0235 0.0 0
M  V30 31 N -15.8827 -1.2725 0.0 0
M  V30 32 C -17.3908 -1.2725 0.0 0
M  V30 END ATOM
M  V30 BEGIN BOND
M  V30 1 2 1 2
M  V30 2 1 2 3
M  V30 3 1 2 4
M  V30 4 1 3 5
M  V30 5 1 4 6
M  V30 6 1 4 7
M  V30 7 1 5 8
M  V30 8 1 6 9
M  V30 9 1 8 10
M  V30 10 1 10 11
M  V30 11 1 11 12
M  V30 12 2 12 13
M  V30 13 1 12 14
M  V30 14 1 13 15
M  V30 15 2 14 16
M  V30 16 1 14 17
M  V30 17 2 15 18
M  V30 18 1 15 19
M  V30 19 1 17 20
M  V30 20 1 17 21
M  V30 21 1 19 22
M  V30 22 2 22 23
M  V30 23 1 22 24
M  V30 24 1 23 25
M  V30 25 2 24 26
M  V30 26 2 25 27
M  V30 27 1 25 28
M  V30 28 1 27 29
M  V30 29 1 28 30
M  V30 30 1 29 31
M  V30 31 1 31 32
M  V30 32 1 7 9
M  V30 33 1 16 18
M  V30 34 1 20 21
M  V30 35 1 26 27
M  V30 36 1 30 31
M  V30 END BOND
M  V30 END CTAB
M  END
>  <Compound ID>
207

>  <Name>
MRT68921

>  <Uniprot>
Q9NRH2

>  <Target>
SNRK

>  <Smiles>
CN1CCC2=CC(NC3=NC=C(C4CC4)C(NCCCNC(=O)C4CCC4)=N3)=CC=C2C1

>  <Kd (nM)>


>  <Assay (Kd)>


>  <Ki (nM)>


>  <Assay (Ki)>


>  <IC50 (nM)>


>  <Assay (IC50)>


>  <EC50 (nM)>


>  <Assay (EC50)>


>  <Article DOI>
10.1016/j.cell.2020.10.038

>  <Molecular Weight>
434.588

>  <Exact Mass>
434.279409708

>  <XLogP3>
4.4

>  <Heavy Atom Count>
32

>  <Ring Count>
5

>  <Hydrogen Bond Acceptor Count>
6

>  <Hydrogen Bond Donor Count>
3

>  <Rotatable Bond Count>
9

>  <Topological Polar Surface Area>
82.18

>  <Molecular Formula>
C25H34N6O

>  <InChI>
InChI=1S/C25H34N6O/c1-31-13-10-19-14-21(9-8-20(19)16-31)29-25-28-15-22(17-6-7-17)23(30-25)26-11-3-12-27-24(32)18-4-2-5-18/h8-9,14-15,17-18H,2-7,10-13,16H2,1H3,(H,27,32)(H2,26,28,29,30)

>  <InChI Key>
KKISLZKMBSCLSS-UHFFFAOYSA-N

>  <BindingDB>
50503137

>  <PubChem>
59225335

>  <ChEMBL>
CHEMBL4516990

$$$$
Compound 640
Actelion Java MolfileCreator 2.0

  0  0  0  0  0  0              0 V3000
M  V30 BEGIN CTAB
M  V30 COUNTS 32 36 0 0 0
M  V30 BEGIN ATOM
M  V30 1 O 0.0 0.0 0.0 0
M  V30 2 C 0.754 -1.2725 0.0 0
M  V30 3 N 0.0117 -2.5685 0.0 0
M  V30 4 C 2.2386 -1.2489 0.0 0
M  V30 5 C -1.4963 -2.5685 0.0 0
M  V30 6 C 3.299 -2.2857 0.0 0
M  V30 7 C 3.2755 -0.1649 0.0 0
M  V30 8 C -2.2386 -3.8646 0.0 0
M  V30 9 C 4.3359 -1.2018 0.0 0
M  V30 10 C -3.7468 -3.8646 0.0 0
M  V30 11 N -4.4891 -5.1607 0.0 0
M  V30 12 C -5.9972 -5.1607 0.0 0
M  V30 13 N -6.7749 -3.8646 0.0 0
M  V30 14 C -6.7395 -6.4567 0.0 0
M  V30 15 C -8.283 -3.8646 0.0 0
M  V30 16 C -8.2477 -6.4567 0.0 0
M  V30 17 C -5.9854 -7.7292 0.0 0
M  V30 18 N -9.0253 -5.1607 0.0 0
M  V30 19 N -9.0607 -2.5685 0.0 0
M  V30 20 C -4.6894 -8.448 0.0 0
M  V30 21 C -5.9854 -9.2138 0.0 0
M  V30 22 C -10.5688 -2.5685 0.0 0
M  V30 23 C -11.3465 -1.2725 0.0 0
M  V30 24 C -11.3111 -3.8646 0.0 0
M  V30 25 C -12.8546 -1.2725 0.0 0
M  V30 26 C -12.8193 -3.8646 0.0 0
M  V30 27 C -13.5969 -2.5685 0.0 0
M  V30 28 C -13.6322 0.0235 0.0 0
M  V30 29 C -15.1051 -2.5685 0.0 0
M  V30 30 C -15.1404 0.0235 0.0 0
M  V30 31 N -15.8827 -1.2725 0.0 0
M  V30 32 C -17.3908 -1.2725 0.0 0
M  V30 END ATOM
M  V30 BEGIN BOND
M  V30 1 2 1 2
M  V30 2 1 2 3
M  V30 3 1 2 4
M  V30 4 1 3 5
M  V30 5 1 4 6
M  V30 6 1 4 7
M  V30 7 1 5 8
M  V30 8 1 6 9
M  V30 9 1 8 10
M  V30 10 1 10 11
M  V30 11 1 11 12
M  V30 12 2 12 13
M  V30 13 1 12 14
M  V30 14 1 13 15
M  V30 15 2 14 16
M  V30 16 1 14 17
M  V30 17 2 15 18
M  V30 18 1 15 19
M  V30 19 1 17 20
M  V30 20 1 17 21
M  V30 21 1 19 22
M  V30 22 2 22 23
M  V30 23 1 22 24
M  V30 24 1 23 25
M  V30 25 2 24 26
M  V30 26 2 25 27
M  V30 27 1 25 28
M  V30 28 1 27 29
M  V30 29 1 28 30
M  V30 30 1 29 31
M  V30 31 1 31 32
M  V30 32 1 7 9
M  V30 33 1 16 18
M  V30 34 1 20 21
M  V30 35 1 26 27
M  V30 36 1 30 31
M  V30 END BOND
M  V30 END CTAB
M  END
>  <Compound ID>
207

>  <Name>
MRT68921

>  <Uniprot>
Q9UEE5

>  <Target>
STK17A

>  <Smiles>
CN1CCC2=CC(NC3=NC=C(C4CC4)C(NCCCNC(=O)C4CCC4)=N3)=CC=C2C1

>  <Kd (nM)>


>  <Assay (Kd)>


>  <Ki (nM)>


>  <Assay (Ki)>


>  <IC50 (nM)>


>  <Assay (IC50)>


>  <EC50 (nM)>


>  <Assay (EC50)>


>  <Article DOI>
10.1016/j.cell.2020.10.038

>  <Molecular Weight>
434.588

>  <Exact Mass>
434.279409708

>  <XLogP3>
4.4

>  <Heavy Atom Count>
32

>  <Ring Count>
5

>  <Hydrogen Bond Acceptor Count>
6

>  <Hydrogen Bond Donor Count>
3

>  <Rotatable Bond Count>
9

>  <Topological Polar Surface Area>
82.18

>  <Molecular Formula>
C25H34N6O

>  <InChI>
InChI=1S/C25H34N6O/c1-31-13-10-19-14-21(9-8-20(19)16-31)29-25-28-15-22(17-6-7-17)23(30-25)26-11-3-12-27-24(32)18-4-2-5-18/h8-9,14-15,17-18H,2-7,10-13,16H2,1H3,(H,27,32)(H2,26,28,29,30)

>  <InChI Key>
KKISLZKMBSCLSS-UHFFFAOYSA-N

>  <BindingDB>
50503137

>  <PubChem>
59225335

>  <ChEMBL>
CHEMBL4516990

$$$$
Compound 641
Actelion Java MolfileCreator 2.0

  0  0  0  0  0  0              0 V3000
M  V30 BEGIN CTAB
M  V30 COUNTS 32 36 0 0 0
M  V30 BEGIN ATOM
M  V30 1 O 0.0 0.0 0.0 0
M  V30 2 C 0.754 -1.2725 0.0 0
M  V30 3 N 0.0117 -2.5685 0.0 0
M  V30 4 C 2.2386 -1.2489 0.0 0
M  V30 5 C -1.4963 -2.5685 0.0 0
M  V30 6 C 3.299 -2.2857 0.0 0
M  V30 7 C 3.2755 -0.1649 0.0 0
M  V30 8 C -2.2386 -3.8646 0.0 0
M  V30 9 C 4.3359 -1.2018 0.0 0
M  V30 10 C -3.7468 -3.8646 0.0 0
M  V30 11 N -4.4891 -5.1607 0.0 0
M  V30 12 C -5.9972 -5.1607 0.0 0
M  V30 13 N -6.7749 -3.8646 0.0 0
M  V30 14 C -6.7395 -6.4567 0.0 0
M  V30 15 C -8.283 -3.8646 0.0 0
M  V30 16 C -8.2477 -6.4567 0.0 0
M  V30 17 C -5.9854 -7.7292 0.0 0
M  V30 18 N -9.0253 -5.1607 0.0 0
M  V30 19 N -9.0607 -2.5685 0.0 0
M  V30 20 C -4.6894 -8.448 0.0 0
M  V30 21 C -5.9854 -9.2138 0.0 0
M  V30 22 C -10.5688 -2.5685 0.0 0
M  V30 23 C -11.3465 -1.2725 0.0 0
M  V30 24 C -11.3111 -3.8646 0.0 0
M  V30 25 C -12.8546 -1.2725 0.0 0
M  V30 26 C -12.8193 -3.8646 0.0 0
M  V30 27 C -13.5969 -2.5685 0.0 0
M  V30 28 C -13.6322 0.0235 0.0 0
M  V30 29 C -15.1051 -2.5685 0.0 0
M  V30 30 C -15.1404 0.0235 0.0 0
M  V30 31 N -15.8827 -1.2725 0.0 0
M  V30 32 C -17.3908 -1.2725 0.0 0
M  V30 END ATOM
M  V30 BEGIN BOND
M  V30 1 2 1 2
M  V30 2 1 2 3
M  V30 3 1 2 4
M  V30 4 1 3 5
M  V30 5 1 4 6
M  V30 6 1 4 7
M  V30 7 1 5 8
M  V30 8 1 6 9
M  V30 9 1 8 10
M  V30 10 1 10 11
M  V30 11 1 11 12
M  V30 12 2 12 13
M  V30 13 1 12 14
M  V30 14 1 13 15
M  V30 15 2 14 16
M  V30 16 1 14 17
M  V30 17 2 15 18
M  V30 18 1 15 19
M  V30 19 1 17 20
M  V30 20 1 17 21
M  V30 21 1 19 22
M  V30 22 2 22 23
M  V30 23 1 22 24
M  V30 24 1 23 25
M  V30 25 2 24 26
M  V30 26 2 25 27
M  V30 27 1 25 28
M  V30 28 1 27 29
M  V30 29 1 28 30
M  V30 30 1 29 31
M  V30 31 1 31 32
M  V30 32 1 7 9
M  V30 33 1 16 18
M  V30 34 1 20 21
M  V30 35 1 26 27
M  V30 36 1 30 31
M  V30 END BOND
M  V30 END CTAB
M  END
>  <Compound ID>
207

>  <Name>
MRT68921

>  <Uniprot>
O94768

>  <Target>
STK17B

>  <Smiles>
CN1CCC2=CC(NC3=NC=C(C4CC4)C(NCCCNC(=O)C4CCC4)=N3)=CC=C2C1

>  <Kd (nM)>


>  <Assay (Kd)>


>  <Ki (nM)>


>  <Assay (Ki)>


>  <IC50 (nM)>


>  <Assay (IC50)>


>  <EC50 (nM)>


>  <Assay (EC50)>


>  <Article DOI>
10.1016/j.cell.2020.10.038

>  <Molecular Weight>
434.588

>  <Exact Mass>
434.279409708

>  <XLogP3>
4.4

>  <Heavy Atom Count>
32

>  <Ring Count>
5

>  <Hydrogen Bond Acceptor Count>
6

>  <Hydrogen Bond Donor Count>
3

>  <Rotatable Bond Count>
9

>  <Topological Polar Surface Area>
82.18

>  <Molecular Formula>
C25H34N6O

>  <InChI>
InChI=1S/C25H34N6O/c1-31-13-10-19-14-21(9-8-20(19)16-31)29-25-28-15-22(17-6-7-17)23(30-25)26-11-3-12-27-24(32)18-4-2-5-18/h8-9,14-15,17-18H,2-7,10-13,16H2,1H3,(H,27,32)(H2,26,28,29,30)

>  <InChI Key>
KKISLZKMBSCLSS-UHFFFAOYSA-N

>  <BindingDB>
50503137

>  <PubChem>
59225335

>  <ChEMBL>
CHEMBL4516990

$$$$
Compound 642
Actelion Java MolfileCreator 2.0

  0  0  0  0  0  0              0 V3000
M  V30 BEGIN CTAB
M  V30 COUNTS 32 36 0 0 0
M  V30 BEGIN ATOM
M  V30 1 O 0.0 0.0 0.0 0
M  V30 2 C 0.754 -1.2725 0.0 0
M  V30 3 N 0.0117 -2.5685 0.0 0
M  V30 4 C 2.2386 -1.2489 0.0 0
M  V30 5 C -1.4963 -2.5685 0.0 0
M  V30 6 C 3.299 -2.2857 0.0 0
M  V30 7 C 3.2755 -0.1649 0.0 0
M  V30 8 C -2.2386 -3.8646 0.0 0
M  V30 9 C 4.3359 -1.2018 0.0 0
M  V30 10 C -3.7468 -3.8646 0.0 0
M  V30 11 N -4.4891 -5.1607 0.0 0
M  V30 12 C -5.9972 -5.1607 0.0 0
M  V30 13 N -6.7749 -3.8646 0.0 0
M  V30 14 C -6.7395 -6.4567 0.0 0
M  V30 15 C -8.283 -3.8646 0.0 0
M  V30 16 C -8.2477 -6.4567 0.0 0
M  V30 17 C -5.9854 -7.7292 0.0 0
M  V30 18 N -9.0253 -5.1607 0.0 0
M  V30 19 N -9.0607 -2.5685 0.0 0
M  V30 20 C -4.6894 -8.448 0.0 0
M  V30 21 C -5.9854 -9.2138 0.0 0
M  V30 22 C -10.5688 -2.5685 0.0 0
M  V30 23 C -11.3465 -1.2725 0.0 0
M  V30 24 C -11.3111 -3.8646 0.0 0
M  V30 25 C -12.8546 -1.2725 0.0 0
M  V30 26 C -12.8193 -3.8646 0.0 0
M  V30 27 C -13.5969 -2.5685 0.0 0
M  V30 28 C -13.6322 0.0235 0.0 0
M  V30 29 C -15.1051 -2.5685 0.0 0
M  V30 30 C -15.1404 0.0235 0.0 0
M  V30 31 N -15.8827 -1.2725 0.0 0
M  V30 32 C -17.3908 -1.2725 0.0 0
M  V30 END ATOM
M  V30 BEGIN BOND
M  V30 1 2 1 2
M  V30 2 1 2 3
M  V30 3 1 2 4
M  V30 4 1 3 5
M  V30 5 1 4 6
M  V30 6 1 4 7
M  V30 7 1 5 8
M  V30 8 1 6 9
M  V30 9 1 8 10
M  V30 10 1 10 11
M  V30 11 1 11 12
M  V30 12 2 12 13
M  V30 13 1 12 14
M  V30 14 1 13 15
M  V30 15 2 14 16
M  V30 16 1 14 17
M  V30 17 2 15 18
M  V30 18 1 15 19
M  V30 19 1 17 20
M  V30 20 1 17 21
M  V30 21 1 19 22
M  V30 22 2 22 23
M  V30 23 1 22 24
M  V30 24 1 23 25
M  V30 25 2 24 26
M  V30 26 2 25 27
M  V30 27 1 25 28
M  V30 28 1 27 29
M  V30 29 1 28 30
M  V30 30 1 29 31
M  V30 31 1 31 32
M  V30 32 1 7 9
M  V30 33 1 16 18
M  V30 34 1 20 21
M  V30 35 1 26 27
M  V30 36 1 30 31
M  V30 END BOND
M  V30 END CTAB
M  END
>  <Compound ID>
207

>  <Name>
MRT68921

>  <Uniprot>
O75385

>  <Target>
ULK1

>  <Smiles>
CN1CCC2=CC(NC3=NC=C(C4CC4)C(NCCCNC(=O)C4CCC4)=N3)=CC=C2C1

>  <Kd (nM)>


>  <Assay (Kd)>


>  <Ki (nM)>


>  <Assay (Ki)>


>  <IC50 (nM)>
2.9

>  <Assay (IC50)>
Inhibition of wild type GST-tagged ULK1

>  <EC50 (nM)>


>  <Assay (EC50)>


>  <Article DOI>
10.1021/acs.jmedchem.7b01019

>  <Molecular Weight>
434.588

>  <Exact Mass>
434.279409708

>  <XLogP3>
4.4

>  <Heavy Atom Count>
32

>  <Ring Count>
5

>  <Hydrogen Bond Acceptor Count>
6

>  <Hydrogen Bond Donor Count>
3

>  <Rotatable Bond Count>
9

>  <Topological Polar Surface Area>
82.18

>  <Molecular Formula>
C25H34N6O

>  <InChI>
InChI=1S/C25H34N6O/c1-31-13-10-19-14-21(9-8-20(19)16-31)29-25-28-15-22(17-6-7-17)23(30-25)26-11-3-12-27-24(32)18-4-2-5-18/h8-9,14-15,17-18H,2-7,10-13,16H2,1H3,(H,27,32)(H2,26,28,29,30)

>  <InChI Key>
KKISLZKMBSCLSS-UHFFFAOYSA-N

>  <BindingDB>
50503137

>  <PubChem>
59225335

>  <ChEMBL>
CHEMBL4516990

$$$$
Compound 643
Actelion Java MolfileCreator 2.0

  0  0  0  0  0  0              0 V3000
M  V30 BEGIN CTAB
M  V30 COUNTS 32 36 0 0 0
M  V30 BEGIN ATOM
M  V30 1 O 0.0 0.0 0.0 0
M  V30 2 C 0.754 -1.2725 0.0 0
M  V30 3 N 0.0117 -2.5685 0.0 0
M  V30 4 C 2.2386 -1.2489 0.0 0
M  V30 5 C -1.4963 -2.5685 0.0 0
M  V30 6 C 3.299 -2.2857 0.0 0
M  V30 7 C 3.2755 -0.1649 0.0 0
M  V30 8 C -2.2386 -3.8646 0.0 0
M  V30 9 C 4.3359 -1.2018 0.0 0
M  V30 10 C -3.7468 -3.8646 0.0 0
M  V30 11 N -4.4891 -5.1607 0.0 0
M  V30 12 C -5.9972 -5.1607 0.0 0
M  V30 13 N -6.7749 -3.8646 0.0 0
M  V30 14 C -6.7395 -6.4567 0.0 0
M  V30 15 C -8.283 -3.8646 0.0 0
M  V30 16 C -8.2477 -6.4567 0.0 0
M  V30 17 C -5.9854 -7.7292 0.0 0
M  V30 18 N -9.0253 -5.1607 0.0 0
M  V30 19 N -9.0607 -2.5685 0.0 0
M  V30 20 C -4.6894 -8.448 0.0 0
M  V30 21 C -5.9854 -9.2138 0.0 0
M  V30 22 C -10.5688 -2.5685 0.0 0
M  V30 23 C -11.3465 -1.2725 0.0 0
M  V30 24 C -11.3111 -3.8646 0.0 0
M  V30 25 C -12.8546 -1.2725 0.0 0
M  V30 26 C -12.8193 -3.8646 0.0 0
M  V30 27 C -13.5969 -2.5685 0.0 0
M  V30 28 C -13.6322 0.0235 0.0 0
M  V30 29 C -15.1051 -2.5685 0.0 0
M  V30 30 C -15.1404 0.0235 0.0 0
M  V30 31 N -15.8827 -1.2725 0.0 0
M  V30 32 C -17.3908 -1.2725 0.0 0
M  V30 END ATOM
M  V30 BEGIN BOND
M  V30 1 2 1 2
M  V30 2 1 2 3
M  V30 3 1 2 4
M  V30 4 1 3 5
M  V30 5 1 4 6
M  V30 6 1 4 7
M  V30 7 1 5 8
M  V30 8 1 6 9
M  V30 9 1 8 10
M  V30 10 1 10 11
M  V30 11 1 11 12
M  V30 12 2 12 13
M  V30 13 1 12 14
M  V30 14 1 13 15
M  V30 15 2 14 16
M  V30 16 1 14 17
M  V30 17 2 15 18
M  V30 18 1 15 19
M  V30 19 1 17 20
M  V30 20 1 17 21
M  V30 21 1 19 22
M  V30 22 2 22 23
M  V30 23 1 22 24
M  V30 24 1 23 25
M  V30 25 2 24 26
M  V30 26 2 25 27
M  V30 27 1 25 28
M  V30 28 1 27 29
M  V30 29 1 28 30
M  V30 30 1 29 31
M  V30 31 1 31 32
M  V30 32 1 7 9
M  V30 33 1 16 18
M  V30 34 1 20 21
M  V30 35 1 26 27
M  V30 36 1 30 31
M  V30 END BOND
M  V30 END CTAB
M  END
>  <Compound ID>
207

>  <Name>
MRT68921

>  <Uniprot>
P30291

>  <Target>
Wee1

>  <Smiles>
CN1CCC2=CC(NC3=NC=C(C4CC4)C(NCCCNC(=O)C4CCC4)=N3)=CC=C2C1

>  <Kd (nM)>


>  <Assay (Kd)>


>  <Ki (nM)>


>  <Assay (Ki)>


>  <IC50 (nM)>


>  <Assay (IC50)>


>  <EC50 (nM)>


>  <Assay (EC50)>


>  <Article DOI>
10.1016/j.cell.2020.10.038

>  <Molecular Weight>
434.588

>  <Exact Mass>
434.279409708

>  <XLogP3>
4.4

>  <Heavy Atom Count>
32

>  <Ring Count>
5

>  <Hydrogen Bond Acceptor Count>
6

>  <Hydrogen Bond Donor Count>
3

>  <Rotatable Bond Count>
9

>  <Topological Polar Surface Area>
82.18

>  <Molecular Formula>
C25H34N6O

>  <InChI>
InChI=1S/C25H34N6O/c1-31-13-10-19-14-21(9-8-20(19)16-31)29-25-28-15-22(17-6-7-17)23(30-25)26-11-3-12-27-24(32)18-4-2-5-18/h8-9,14-15,17-18H,2-7,10-13,16H2,1H3,(H,27,32)(H2,26,28,29,30)

>  <InChI Key>
KKISLZKMBSCLSS-UHFFFAOYSA-N

>  <BindingDB>
50503137

>  <PubChem>
59225335

>  <ChEMBL>
CHEMBL4516990

$$$$
Compound 644
Actelion Java MolfileCreator 2.0

  0  0  0  0  0  0              0 V3000
M  V30 BEGIN CTAB
M  V30 COUNTS 33 37 0 0 0
M  V30 BEGIN ATOM
M  V30 1 O 0.0 0.0 0.0 0
M  V30 2 C -1.4996 0.0937 0.0 0
M  V30 3 N -2.2259 -1.195 0.0 0
M  V30 4 C -2.0853 1.4761 0.0 0
M  V30 5 C -3.7021 -1.441 0.0 0
M  V30 6 C -3.5264 1.8979 0.0 0
M  V30 7 C -1.0309 2.5188 0.0 0
M  V30 8 C -4.8268 -0.4334 0.0 0
M  V30 9 C -4.0184 -2.8937 0.0 0
M  V30 10 N -4.7565 1.0426 0.0 0
M  V30 11 C -3.9013 3.3506 0.0 0
M  V30 12 C -1.4058 3.9716 0.0 0
M  V30 13 N -6.2561 -0.8903 0.0 0
M  V30 14 N -5.4478 -3.3506 0.0 0
M  V30 15 C -6.0687 1.769 0.0 0
M  V30 16 C -2.8469 4.3933 0.0 0
M  V30 17 C -6.5725 -2.3431 0.0 0
M  V30 18 N -8.0018 -2.8 0.0 0
M  V30 19 C -9.1265 -1.7925 0.0 0
M  V30 20 C -10.5558 -2.2494 0.0 0
M  V30 21 C -8.8336 -0.3163 0.0 0
M  V30 22 O -10.8721 -3.7021 0.0 0
M  V30 23 C -11.6805 -1.2418 0.0 0
M  V30 24 C -9.9583 0.6912 0.0 0
M  V30 25 C -12.3014 -4.159 0.0 0
M  V30 26 C -11.3876 0.2343 0.0 0
M  V30 27 N -12.5123 1.2418 0.0 0
M  V30 28 C -12.2194 2.718 0.0 0
M  V30 29 C -13.9416 0.7849 0.0 0
M  V30 30 C -13.3441 3.7255 0.0 0
M  V30 31 C -15.0663 1.7925 0.0 0
M  V30 32 N -14.7734 3.2686 0.0 0
M  V30 33 C -15.8982 4.2762 0.0 0
M  V30 END ATOM
M  V30 BEGIN BOND
M  V30 1 2 1 2
M  V30 2 1 2 3
M  V30 3 1 2 4
M  V30 4 1 3 5
M  V30 5 2 4 6
M  V30 6 1 4 7
M  V30 7 2 5 8
M  V30 8 1 5 9
M  V30 9 1 6 10
M  V30 10 1 6 11
M  V30 11 2 7 12
M  V30 12 1 8 13
M  V30 13 2 9 14
M  V30 14 1 10 15
M  V30 15 2 11 16
M  V30 16 2 13 17
M  V30 17 1 17 18
M  V30 18 1 18 19
M  V30 19 2 19 20
M  V30 20 1 19 21
M  V30 21 1 20 22
M  V30 22 1 20 23
M  V30 23 2 21 24
M  V30 24 1 22 25
M  V30 25 2 23 26
M  V30 26 1 26 27
M  V30 27 1 27 28
M  V30 28 1 27 29
M  V30 29 1 28 30
M  V30 30 1 29 31
M  V30 31 1 30 32
M  V30 32 1 32 33
M  V30 33 1 8 10
M  V30 34 1 12 16
M  V30 35 1 14 17
M  V30 36 1 24 26
M  V30 37 1 31 32
M  V30 END BOND
M  V30 END CTAB
M  END
>  <Compound ID>
208

>  <Name>
XMD8-87

>  <Uniprot>
P51451

>  <Target>
BLK

>  <Smiles>
COC1=CC(N2CCN(C)CC2)=CC=C1NC1=NC=C2NC(=O)C3=CC=CC=C3N(C)C2=N1

>  <Kd (nM)>


>  <Assay (Kd)>


>  <Ki (nM)>


>  <Assay (Ki)>


>  <IC50 (nM)>


>  <Assay (IC50)>


>  <EC50 (nM)>


>  <Assay (EC50)>


>  <Article DOI>
10.1016/j.cell.2020.10.038

>  <Molecular Weight>
445.527

>  <Exact Mass>
445.222623104

>  <XLogP3>
2.91

>  <Heavy Atom Count>
33

>  <Ring Count>
5

>  <Hydrogen Bond Acceptor Count>
8

>  <Hydrogen Bond Donor Count>
2

>  <Rotatable Bond Count>
4

>  <Topological Polar Surface Area>
85.86

>  <Molecular Formula>
C24H27N7O2

>  <InChI>
InChI=1S/C24H27N7O2/c1-29-10-12-31(13-11-29)16-8-9-18(21(14-16)33-3)27-24-25-15-19-22(28-24)30(2)20-7-5-4-6-17(20)23(32)26-19/h4-9,14-15H,10-13H2,1-3H3,(H,26,32)(H,25,27,28)

>  <InChI Key>
LGLHCXISMKHLIK-UHFFFAOYSA-N

>  <BindingDB>
50337126

>  <PubChem>
53322923

>  <ChEMBL>
CHEMBL1672987

$$$$
Compound 645
Actelion Java MolfileCreator 2.0

  0  0  0  0  0  0              0 V3000
M  V30 BEGIN CTAB
M  V30 COUNTS 33 37 0 0 0
M  V30 BEGIN ATOM
M  V30 1 O 0.0 0.0 0.0 0
M  V30 2 C -1.4996 0.0937 0.0 0
M  V30 3 N -2.2259 -1.195 0.0 0
M  V30 4 C -2.0853 1.4761 0.0 0
M  V30 5 C -3.7021 -1.441 0.0 0
M  V30 6 C -3.5264 1.8979 0.0 0
M  V30 7 C -1.0309 2.5188 0.0 0
M  V30 8 C -4.8268 -0.4334 0.0 0
M  V30 9 C -4.0184 -2.8937 0.0 0
M  V30 10 N -4.7565 1.0426 0.0 0
M  V30 11 C -3.9013 3.3506 0.0 0
M  V30 12 C -1.4058 3.9716 0.0 0
M  V30 13 N -6.2561 -0.8903 0.0 0
M  V30 14 N -5.4478 -3.3506 0.0 0
M  V30 15 C -6.0687 1.769 0.0 0
M  V30 16 C -2.8469 4.3933 0.0 0
M  V30 17 C -6.5725 -2.3431 0.0 0
M  V30 18 N -8.0018 -2.8 0.0 0
M  V30 19 C -9.1265 -1.7925 0.0 0
M  V30 20 C -10.5558 -2.2494 0.0 0
M  V30 21 C -8.8336 -0.3163 0.0 0
M  V30 22 O -10.8721 -3.7021 0.0 0
M  V30 23 C -11.6805 -1.2418 0.0 0
M  V30 24 C -9.9583 0.6912 0.0 0
M  V30 25 C -12.3014 -4.159 0.0 0
M  V30 26 C -11.3876 0.2343 0.0 0
M  V30 27 N -12.5123 1.2418 0.0 0
M  V30 28 C -12.2194 2.718 0.0 0
M  V30 29 C -13.9416 0.7849 0.0 0
M  V30 30 C -13.3441 3.7255 0.0 0
M  V30 31 C -15.0663 1.7925 0.0 0
M  V30 32 N -14.7734 3.2686 0.0 0
M  V30 33 C -15.8982 4.2762 0.0 0
M  V30 END ATOM
M  V30 BEGIN BOND
M  V30 1 2 1 2
M  V30 2 1 2 3
M  V30 3 1 2 4
M  V30 4 1 3 5
M  V30 5 2 4 6
M  V30 6 1 4 7
M  V30 7 2 5 8
M  V30 8 1 5 9
M  V30 9 1 6 10
M  V30 10 1 6 11
M  V30 11 2 7 12
M  V30 12 1 8 13
M  V30 13 2 9 14
M  V30 14 1 10 15
M  V30 15 2 11 16
M  V30 16 2 13 17
M  V30 17 1 17 18
M  V30 18 1 18 19
M  V30 19 2 19 20
M  V30 20 1 19 21
M  V30 21 1 20 22
M  V30 22 1 20 23
M  V30 23 2 21 24
M  V30 24 1 22 25
M  V30 25 2 23 26
M  V30 26 1 26 27
M  V30 27 1 27 28
M  V30 28 1 27 29
M  V30 29 1 28 30
M  V30 30 1 29 31
M  V30 31 1 30 32
M  V30 32 1 32 33
M  V30 33 1 8 10
M  V30 34 1 12 16
M  V30 35 1 14 17
M  V30 36 1 24 26
M  V30 37 1 31 32
M  V30 END BOND
M  V30 END CTAB
M  END
>  <Compound ID>
208

>  <Name>
XMD8-87

>  <Uniprot>
P53667

>  <Target>
LIMK1

>  <Smiles>
COC1=CC(N2CCN(C)CC2)=CC=C1NC1=NC=C2NC(=O)C3=CC=CC=C3N(C)C2=N1

>  <Kd (nM)>


>  <Assay (Kd)>


>  <Ki (nM)>


>  <Assay (Ki)>


>  <IC50 (nM)>


>  <Assay (IC50)>


>  <EC50 (nM)>


>  <Assay (EC50)>


>  <Article DOI>
10.1016/j.cell.2020.10.038

>  <Molecular Weight>
445.527

>  <Exact Mass>
445.222623104

>  <XLogP3>
2.91

>  <Heavy Atom Count>
33

>  <Ring Count>
5

>  <Hydrogen Bond Acceptor Count>
8

>  <Hydrogen Bond Donor Count>
2

>  <Rotatable Bond Count>
4

>  <Topological Polar Surface Area>
85.86

>  <Molecular Formula>
C24H27N7O2

>  <InChI>
InChI=1S/C24H27N7O2/c1-29-10-12-31(13-11-29)16-8-9-18(21(14-16)33-3)27-24-25-15-19-22(28-24)30(2)20-7-5-4-6-17(20)23(32)26-19/h4-9,14-15H,10-13H2,1-3H3,(H,26,32)(H,25,27,28)

>  <InChI Key>
LGLHCXISMKHLIK-UHFFFAOYSA-N

>  <BindingDB>
50337126

>  <PubChem>
53322923

>  <ChEMBL>
CHEMBL1672987

$$$$
Compound 646
Actelion Java MolfileCreator 2.0

  0  0  0  0  0  0              0 V3000
M  V30 BEGIN CTAB
M  V30 COUNTS 33 37 0 0 0
M  V30 BEGIN ATOM
M  V30 1 O 0.0 0.0 0.0 0
M  V30 2 C -1.4996 0.0937 0.0 0
M  V30 3 N -2.2259 -1.195 0.0 0
M  V30 4 C -2.0853 1.4761 0.0 0
M  V30 5 C -3.7021 -1.441 0.0 0
M  V30 6 C -3.5264 1.8979 0.0 0
M  V30 7 C -1.0309 2.5188 0.0 0
M  V30 8 C -4.8268 -0.4334 0.0 0
M  V30 9 C -4.0184 -2.8937 0.0 0
M  V30 10 N -4.7565 1.0426 0.0 0
M  V30 11 C -3.9013 3.3506 0.0 0
M  V30 12 C -1.4058 3.9716 0.0 0
M  V30 13 N -6.2561 -0.8903 0.0 0
M  V30 14 N -5.4478 -3.3506 0.0 0
M  V30 15 C -6.0687 1.769 0.0 0
M  V30 16 C -2.8469 4.3933 0.0 0
M  V30 17 C -6.5725 -2.3431 0.0 0
M  V30 18 N -8.0018 -2.8 0.0 0
M  V30 19 C -9.1265 -1.7925 0.0 0
M  V30 20 C -10.5558 -2.2494 0.0 0
M  V30 21 C -8.8336 -0.3163 0.0 0
M  V30 22 O -10.8721 -3.7021 0.0 0
M  V30 23 C -11.6805 -1.2418 0.0 0
M  V30 24 C -9.9583 0.6912 0.0 0
M  V30 25 C -12.3014 -4.159 0.0 0
M  V30 26 C -11.3876 0.2343 0.0 0
M  V30 27 N -12.5123 1.2418 0.0 0
M  V30 28 C -12.2194 2.718 0.0 0
M  V30 29 C -13.9416 0.7849 0.0 0
M  V30 30 C -13.3441 3.7255 0.0 0
M  V30 31 C -15.0663 1.7925 0.0 0
M  V30 32 N -14.7734 3.2686 0.0 0
M  V30 33 C -15.8982 4.2762 0.0 0
M  V30 END ATOM
M  V30 BEGIN BOND
M  V30 1 2 1 2
M  V30 2 1 2 3
M  V30 3 1 2 4
M  V30 4 1 3 5
M  V30 5 2 4 6
M  V30 6 1 4 7
M  V30 7 2 5 8
M  V30 8 1 5 9
M  V30 9 1 6 10
M  V30 10 1 6 11
M  V30 11 2 7 12
M  V30 12 1 8 13
M  V30 13 2 9 14
M  V30 14 1 10 15
M  V30 15 2 11 16
M  V30 16 2 13 17
M  V30 17 1 17 18
M  V30 18 1 18 19
M  V30 19 2 19 20
M  V30 20 1 19 21
M  V30 21 1 20 22
M  V30 22 1 20 23
M  V30 23 2 21 24
M  V30 24 1 22 25
M  V30 25 2 23 26
M  V30 26 1 26 27
M  V30 27 1 27 28
M  V30 28 1 27 29
M  V30 29 1 28 30
M  V30 30 1 29 31
M  V30 31 1 30 32
M  V30 32 1 32 33
M  V30 33 1 8 10
M  V30 34 1 12 16
M  V30 35 1 14 17
M  V30 36 1 24 26
M  V30 37 1 31 32
M  V30 END BOND
M  V30 END CTAB
M  END
>  <Compound ID>
208

>  <Name>
XMD8-87

>  <Uniprot>
P53671

>  <Target>
LIMK2

>  <Smiles>
COC1=CC(N2CCN(C)CC2)=CC=C1NC1=NC=C2NC(=O)C3=CC=CC=C3N(C)C2=N1

>  <Kd (nM)>


>  <Assay (Kd)>


>  <Ki (nM)>


>  <Assay (Ki)>


>  <IC50 (nM)>


>  <Assay (IC50)>


>  <EC50 (nM)>


>  <Assay (EC50)>


>  <Article DOI>
10.1016/j.cell.2020.10.038

>  <Molecular Weight>
445.527

>  <Exact Mass>
445.222623104

>  <XLogP3>
2.91

>  <Heavy Atom Count>
33

>  <Ring Count>
5

>  <Hydrogen Bond Acceptor Count>
8

>  <Hydrogen Bond Donor Count>
2

>  <Rotatable Bond Count>
4

>  <Topological Polar Surface Area>
85.86

>  <Molecular Formula>
C24H27N7O2

>  <InChI>
InChI=1S/C24H27N7O2/c1-29-10-12-31(13-11-29)16-8-9-18(21(14-16)33-3)27-24-25-15-19-22(28-24)30(2)20-7-5-4-6-17(20)23(32)26-19/h4-9,14-15H,10-13H2,1-3H3,(H,26,32)(H,25,27,28)

>  <InChI Key>
LGLHCXISMKHLIK-UHFFFAOYSA-N

>  <BindingDB>
50337126

>  <PubChem>
53322923

>  <ChEMBL>
CHEMBL1672987

$$$$
Compound 647
Actelion Java MolfileCreator 2.0

  0  0  0  0  0  0              0 V3000
M  V30 BEGIN CTAB
M  V30 COUNTS 33 37 0 0 0
M  V30 BEGIN ATOM
M  V30 1 O 0.0 0.0 0.0 0
M  V30 2 C -1.4996 0.0937 0.0 0
M  V30 3 N -2.2259 -1.195 0.0 0
M  V30 4 C -2.0853 1.4761 0.0 0
M  V30 5 C -3.7021 -1.441 0.0 0
M  V30 6 C -3.5264 1.8979 0.0 0
M  V30 7 C -1.0309 2.5188 0.0 0
M  V30 8 C -4.8268 -0.4334 0.0 0
M  V30 9 C -4.0184 -2.8937 0.0 0
M  V30 10 N -4.7565 1.0426 0.0 0
M  V30 11 C -3.9013 3.3506 0.0 0
M  V30 12 C -1.4058 3.9716 0.0 0
M  V30 13 N -6.2561 -0.8903 0.0 0
M  V30 14 N -5.4478 -3.3506 0.0 0
M  V30 15 C -6.0687 1.769 0.0 0
M  V30 16 C -2.8469 4.3933 0.0 0
M  V30 17 C -6.5725 -2.3431 0.0 0
M  V30 18 N -8.0018 -2.8 0.0 0
M  V30 19 C -9.1265 -1.7925 0.0 0
M  V30 20 C -10.5558 -2.2494 0.0 0
M  V30 21 C -8.8336 -0.3163 0.0 0
M  V30 22 O -10.8721 -3.7021 0.0 0
M  V30 23 C -11.6805 -1.2418 0.0 0
M  V30 24 C -9.9583 0.6912 0.0 0
M  V30 25 C -12.3014 -4.159 0.0 0
M  V30 26 C -11.3876 0.2343 0.0 0
M  V30 27 N -12.5123 1.2418 0.0 0
M  V30 28 C -12.2194 2.718 0.0 0
M  V30 29 C -13.9416 0.7849 0.0 0
M  V30 30 C -13.3441 3.7255 0.0 0
M  V30 31 C -15.0663 1.7925 0.0 0
M  V30 32 N -14.7734 3.2686 0.0 0
M  V30 33 C -15.8982 4.2762 0.0 0
M  V30 END ATOM
M  V30 BEGIN BOND
M  V30 1 2 1 2
M  V30 2 1 2 3
M  V30 3 1 2 4
M  V30 4 1 3 5
M  V30 5 2 4 6
M  V30 6 1 4 7
M  V30 7 2 5 8
M  V30 8 1 5 9
M  V30 9 1 6 10
M  V30 10 1 6 11
M  V30 11 2 7 12
M  V30 12 1 8 13
M  V30 13 2 9 14
M  V30 14 1 10 15
M  V30 15 2 11 16
M  V30 16 2 13 17
M  V30 17 1 17 18
M  V30 18 1 18 19
M  V30 19 2 19 20
M  V30 20 1 19 21
M  V30 21 1 20 22
M  V30 22 1 20 23
M  V30 23 2 21 24
M  V30 24 1 22 25
M  V30 25 2 23 26
M  V30 26 1 26 27
M  V30 27 1 27 28
M  V30 28 1 27 29
M  V30 29 1 28 30
M  V30 30 1 29 31
M  V30 31 1 30 32
M  V30 32 1 32 33
M  V30 33 1 8 10
M  V30 34 1 12 16
M  V30 35 1 14 17
M  V30 36 1 24 26
M  V30 37 1 31 32
M  V30 END BOND
M  V30 END CTAB
M  END
>  <Compound ID>
208

>  <Name>
XMD8-87

>  <Uniprot>
Q9UEE5

>  <Target>
STK17A

>  <Smiles>
COC1=CC(N2CCN(C)CC2)=CC=C1NC1=NC=C2NC(=O)C3=CC=CC=C3N(C)C2=N1

>  <Kd (nM)>


>  <Assay (Kd)>


>  <Ki (nM)>


>  <Assay (Ki)>


>  <IC50 (nM)>


>  <Assay (IC50)>


>  <EC50 (nM)>


>  <Assay (EC50)>


>  <Article DOI>
10.1016/j.cell.2020.10.038

>  <Molecular Weight>
445.527

>  <Exact Mass>
445.222623104

>  <XLogP3>
2.91

>  <Heavy Atom Count>
33

>  <Ring Count>
5

>  <Hydrogen Bond Acceptor Count>
8

>  <Hydrogen Bond Donor Count>
2

>  <Rotatable Bond Count>
4

>  <Topological Polar Surface Area>
85.86

>  <Molecular Formula>
C24H27N7O2

>  <InChI>
InChI=1S/C24H27N7O2/c1-29-10-12-31(13-11-29)16-8-9-18(21(14-16)33-3)27-24-25-15-19-22(28-24)30(2)20-7-5-4-6-17(20)23(32)26-19/h4-9,14-15H,10-13H2,1-3H3,(H,26,32)(H,25,27,28)

>  <InChI Key>
LGLHCXISMKHLIK-UHFFFAOYSA-N

>  <BindingDB>
50337126

>  <PubChem>
53322923

>  <ChEMBL>
CHEMBL1672987

$$$$
Compound 648
Actelion Java MolfileCreator 2.0

  0  0  0  0  0  0              0 V3000
M  V30 BEGIN CTAB
M  V30 COUNTS 33 37 0 0 0
M  V30 BEGIN ATOM
M  V30 1 O 0.0 0.0 0.0 0
M  V30 2 C -1.4996 0.0937 0.0 0
M  V30 3 N -2.2259 -1.195 0.0 0
M  V30 4 C -2.0853 1.4761 0.0 0
M  V30 5 C -3.7021 -1.441 0.0 0
M  V30 6 C -3.5264 1.8979 0.0 0
M  V30 7 C -1.0309 2.5188 0.0 0
M  V30 8 C -4.8268 -0.4334 0.0 0
M  V30 9 C -4.0184 -2.8937 0.0 0
M  V30 10 N -4.7565 1.0426 0.0 0
M  V30 11 C -3.9013 3.3506 0.0 0
M  V30 12 C -1.4058 3.9716 0.0 0
M  V30 13 N -6.2561 -0.8903 0.0 0
M  V30 14 N -5.4478 -3.3506 0.0 0
M  V30 15 C -6.0687 1.769 0.0 0
M  V30 16 C -2.8469 4.3933 0.0 0
M  V30 17 C -6.5725 -2.3431 0.0 0
M  V30 18 N -8.0018 -2.8 0.0 0
M  V30 19 C -9.1265 -1.7925 0.0 0
M  V30 20 C -10.5558 -2.2494 0.0 0
M  V30 21 C -8.8336 -0.3163 0.0 0
M  V30 22 O -10.8721 -3.7021 0.0 0
M  V30 23 C -11.6805 -1.2418 0.0 0
M  V30 24 C -9.9583 0.6912 0.0 0
M  V30 25 C -12.3014 -4.159 0.0 0
M  V30 26 C -11.3876 0.2343 0.0 0
M  V30 27 N -12.5123 1.2418 0.0 0
M  V30 28 C -12.2194 2.718 0.0 0
M  V30 29 C -13.9416 0.7849 0.0 0
M  V30 30 C -13.3441 3.7255 0.0 0
M  V30 31 C -15.0663 1.7925 0.0 0
M  V30 32 N -14.7734 3.2686 0.0 0
M  V30 33 C -15.8982 4.2762 0.0 0
M  V30 END ATOM
M  V30 BEGIN BOND
M  V30 1 2 1 2
M  V30 2 1 2 3
M  V30 3 1 2 4
M  V30 4 1 3 5
M  V30 5 2 4 6
M  V30 6 1 4 7
M  V30 7 2 5 8
M  V30 8 1 5 9
M  V30 9 1 6 10
M  V30 10 1 6 11
M  V30 11 2 7 12
M  V30 12 1 8 13
M  V30 13 2 9 14
M  V30 14 1 10 15
M  V30 15 2 11 16
M  V30 16 2 13 17
M  V30 17 1 17 18
M  V30 18 1 18 19
M  V30 19 2 19 20
M  V30 20 1 19 21
M  V30 21 1 20 22
M  V30 22 1 20 23
M  V30 23 2 21 24
M  V30 24 1 22 25
M  V30 25 2 23 26
M  V30 26 1 26 27
M  V30 27 1 27 28
M  V30 28 1 27 29
M  V30 29 1 28 30
M  V30 30 1 29 31
M  V30 31 1 30 32
M  V30 32 1 32 33
M  V30 33 1 8 10
M  V30 34 1 12 16
M  V30 35 1 14 17
M  V30 36 1 24 26
M  V30 37 1 31 32
M  V30 END BOND
M  V30 END CTAB
M  END
>  <Compound ID>
208

>  <Name>
XMD8-87

>  <Uniprot>
Q07912

>  <Target>
TNK2

>  <Smiles>
COC1=CC(N2CCN(C)CC2)=CC=C1NC1=NC=C2NC(=O)C3=CC=CC=C3N(C)C2=N1

>  <Kd (nM)>
2

>  <Assay (Kd)>
Kd of ACK1

>  <Ki (nM)>


>  <Assay (Ki)>


>  <IC50 (nM)>


>  <Assay (IC50)>


>  <EC50 (nM)>


>  <Assay (EC50)>


>  <Article DOI>
10.1021/jm501929n

>  <Molecular Weight>
445.527

>  <Exact Mass>
445.222623104

>  <XLogP3>
2.91

>  <Heavy Atom Count>
33

>  <Ring Count>
5

>  <Hydrogen Bond Acceptor Count>
8

>  <Hydrogen Bond Donor Count>
2

>  <Rotatable Bond Count>
4

>  <Topological Polar Surface Area>
85.86

>  <Molecular Formula>
C24H27N7O2

>  <InChI>
InChI=1S/C24H27N7O2/c1-29-10-12-31(13-11-29)16-8-9-18(21(14-16)33-3)27-24-25-15-19-22(28-24)30(2)20-7-5-4-6-17(20)23(32)26-19/h4-9,14-15H,10-13H2,1-3H3,(H,26,32)(H,25,27,28)

>  <InChI Key>
LGLHCXISMKHLIK-UHFFFAOYSA-N

>  <BindingDB>
50337126

>  <PubChem>
53322923

>  <ChEMBL>
CHEMBL1672987

$$$$
Compound 649
Actelion Java MolfileCreator 2.0

  0  0  0  0  0  0              0 V3000
M  V30 BEGIN CTAB
M  V30 COUNTS 38 42 0 0 0
M  V30 BEGIN ATOM
M  V30 1 F 0.0 0.0 0.0 0
M  V30 2 C -1.0485 -1.072 0.0 0
M  V30 3 F 0.1413 -1.9556 0.0 0
M  V30 4 F -2.1441 -0.0235 0.0 0
M  V30 5 C -2.097 -2.1441 0.0 0
M  V30 6 N -1.6846 -3.5696 0.0 0
M  V30 7 C -0.2238 -3.8052 0.0 0
M  V30 8 C -2.8156 -4.5592 0.0 0
M  V30 9 O 0.7657 -2.686 0.0 0
M  V30 10 C 0.4947 -5.1011 0.0 0
M  V30 11 C -2.7331 -6.0436 0.0 0
M  V30 12 C -4.1704 -3.8759 0.0 0
M  V30 13 C -0.0824 -6.4795 0.0 0
M  V30 14 C 1.9674 -4.889 0.0 0
M  V30 15 N -3.9937 -6.8565 0.0 0
M  V30 16 N -1.5197 -6.8918 0.0 0
M  V30 17 N -5.431 -4.6888 0.0 0
M  V30 18 C 0.8246 -7.6576 0.0 0
M  V30 19 C 2.8745 -6.0671 0.0 0
M  V30 20 C -5.3485 -6.1732 0.0 0
M  V30 21 C -1.7789 -8.3526 0.0 0
M  V30 22 C 2.2972 -7.4455 0.0 0
M  V30 23 N -6.6091 -6.9861 0.0 0
M  V30 24 C -7.9639 -6.3028 0.0 0
M  V30 25 C -9.2244 -7.1156 0.0 0
M  V30 26 C -8.0699 -4.7948 0.0 0
M  V30 27 O -9.142 -8.6 0.0 0
M  V30 28 C -10.5792 -6.4323 0.0 0
M  V30 29 C -9.4247 -4.1115 0.0 0
M  V30 30 C -10.4025 -9.4129 0.0 0
M  V30 31 C -10.6853 -4.9244 0.0 0
M  V30 32 N -12.0401 -4.2411 0.0 0
M  V30 33 C -12.1461 -2.7331 0.0 0
M  V30 34 C -13.3006 -5.054 0.0 0
M  V30 35 C -13.5009 -2.0498 0.0 0
M  V30 36 C -14.6555 -4.3707 0.0 0
M  V30 37 N -14.7615 -2.8627 0.0 0
M  V30 38 C -16.1163 -2.1794 0.0 0
M  V30 END ATOM
M  V30 BEGIN BOND
M  V30 1 1 1 2
M  V30 2 1 2 3
M  V30 3 1 2 4
M  V30 4 1 2 5
M  V30 5 1 5 6
M  V30 6 1 6 7
M  V30 7 1 6 8
M  V30 8 2 7 9
M  V30 9 1 7 10
M  V30 10 2 8 11
M  V30 11 1 8 12
M  V30 12 2 10 13
M  V30 13 1 10 14
M  V30 14 1 11 15
M  V30 15 1 11 16
M  V30 16 2 12 17
M  V30 17 1 13 18
M  V30 18 2 14 19
M  V30 19 2 15 20
M  V30 20 1 16 21
M  V30 21 2 18 22
M  V30 22 1 20 23
M  V30 23 1 23 24
M  V30 24 2 24 25
M  V30 25 1 24 26
M  V30 26 1 25 27
M  V30 27 1 25 28
M  V30 28 2 26 29
M  V30 29 1 27 30
M  V30 30 2 28 31
M  V30 31 1 31 32
M  V30 32 1 32 33
M  V30 33 1 32 34
M  V30 34 1 33 35
M  V30 35 1 34 36
M  V30 36 1 35 37
M  V30 37 1 37 38
M  V30 38 1 13 16
M  V30 39 1 17 20
M  V30 40 1 19 22
M  V30 41 1 29 31
M  V30 42 1 36 37
M  V30 END BOND
M  V30 END CTAB
M  END
>  <Compound ID>
209

>  <Name>
DCLK1-IN-1

>  <Uniprot>
P51451

>  <Target>
BLK

>  <Smiles>
COC1=CC(N2CCN(C)CC2)=CC=C1NC1=NC=C2C(=N1)N(C)C1=CC=CC=C1C(=O)N2CC(F)(F)F

>  <Kd (nM)>


>  <Assay (Kd)>


>  <Ki (nM)>


>  <Assay (Ki)>


>  <IC50 (nM)>


>  <Assay (IC50)>


>  <EC50 (nM)>


>  <Assay (EC50)>


>  <Article DOI>
10.1016/j.cell.2020.10.038

>  <Molecular Weight>
527.551

>  <Exact Mass>
527.225657796

>  <XLogP3>
4.21

>  <Heavy Atom Count>
38

>  <Ring Count>
5

>  <Hydrogen Bond Acceptor Count>
8

>  <Hydrogen Bond Donor Count>
1

>  <Rotatable Bond Count>
5

>  <Topological Polar Surface Area>
77.07

>  <Molecular Formula>
C26H28F3N7O2

>  <InChI>
InChI=1S/C26H28F3N7O2/c1-33-10-12-35(13-11-33)17-8-9-19(22(14-17)38-3)31-25-30-15-21-23(32-25)34(2)20-7-5-4-6-18(20)24(37)36(21)16-26(27,28)29/h4-9,14-15H,10-13,16H2,1-3H3,(H,30,31,32)

>  <InChI Key>
OQFCHSFVWSLDAO-UHFFFAOYSA-N

>  <BindingDB>


>  <PubChem>
134457640

>  <ChEMBL>


$$$$
Compound 650
Actelion Java MolfileCreator 2.0

  0  0  0  0  0  0              0 V3000
M  V30 BEGIN CTAB
M  V30 COUNTS 38 42 0 0 0
M  V30 BEGIN ATOM
M  V30 1 F 0.0 0.0 0.0 0
M  V30 2 C -1.0485 -1.072 0.0 0
M  V30 3 F 0.1413 -1.9556 0.0 0
M  V30 4 F -2.1441 -0.0235 0.0 0
M  V30 5 C -2.097 -2.1441 0.0 0
M  V30 6 N -1.6846 -3.5696 0.0 0
M  V30 7 C -0.2238 -3.8052 0.0 0
M  V30 8 C -2.8156 -4.5592 0.0 0
M  V30 9 O 0.7657 -2.686 0.0 0
M  V30 10 C 0.4947 -5.1011 0.0 0
M  V30 11 C -2.7331 -6.0436 0.0 0
M  V30 12 C -4.1704 -3.8759 0.0 0
M  V30 13 C -0.0824 -6.4795 0.0 0
M  V30 14 C 1.9674 -4.889 0.0 0
M  V30 15 N -3.9937 -6.8565 0.0 0
M  V30 16 N -1.5197 -6.8918 0.0 0
M  V30 17 N -5.431 -4.6888 0.0 0
M  V30 18 C 0.8246 -7.6576 0.0 0
M  V30 19 C 2.8745 -6.0671 0.0 0
M  V30 20 C -5.3485 -6.1732 0.0 0
M  V30 21 C -1.7789 -8.3526 0.0 0
M  V30 22 C 2.2972 -7.4455 0.0 0
M  V30 23 N -6.6091 -6.9861 0.0 0
M  V30 24 C -7.9639 -6.3028 0.0 0
M  V30 25 C -9.2244 -7.1156 0.0 0
M  V30 26 C -8.0699 -4.7948 0.0 0
M  V30 27 O -9.142 -8.6 0.0 0
M  V30 28 C -10.5792 -6.4323 0.0 0
M  V30 29 C -9.4247 -4.1115 0.0 0
M  V30 30 C -10.4025 -9.4129 0.0 0
M  V30 31 C -10.6853 -4.9244 0.0 0
M  V30 32 N -12.0401 -4.2411 0.0 0
M  V30 33 C -12.1461 -2.7331 0.0 0
M  V30 34 C -13.3006 -5.054 0.0 0
M  V30 35 C -13.5009 -2.0498 0.0 0
M  V30 36 C -14.6555 -4.3707 0.0 0
M  V30 37 N -14.7615 -2.8627 0.0 0
M  V30 38 C -16.1163 -2.1794 0.0 0
M  V30 END ATOM
M  V30 BEGIN BOND
M  V30 1 1 1 2
M  V30 2 1 2 3
M  V30 3 1 2 4
M  V30 4 1 2 5
M  V30 5 1 5 6
M  V30 6 1 6 7
M  V30 7 1 6 8
M  V30 8 2 7 9
M  V30 9 1 7 10
M  V30 10 2 8 11
M  V30 11 1 8 12
M  V30 12 2 10 13
M  V30 13 1 10 14
M  V30 14 1 11 15
M  V30 15 1 11 16
M  V30 16 2 12 17
M  V30 17 1 13 18
M  V30 18 2 14 19
M  V30 19 2 15 20
M  V30 20 1 16 21
M  V30 21 2 18 22
M  V30 22 1 20 23
M  V30 23 1 23 24
M  V30 24 2 24 25
M  V30 25 1 24 26
M  V30 26 1 25 27
M  V30 27 1 25 28
M  V30 28 2 26 29
M  V30 29 1 27 30
M  V30 30 2 28 31
M  V30 31 1 31 32
M  V30 32 1 32 33
M  V30 33 1 32 34
M  V30 34 1 33 35
M  V30 35 1 34 36
M  V30 36 1 35 37
M  V30 37 1 37 38
M  V30 38 1 13 16
M  V30 39 1 17 20
M  V30 40 1 19 22
M  V30 41 1 29 31
M  V30 42 1 36 37
M  V30 END BOND
M  V30 END CTAB
M  END
>  <Compound ID>
209

>  <Name>
DCLK1-IN-1

>  <Uniprot>
P41240

>  <Target>
CSK

>  <Smiles>
COC1=CC(N2CCN(C)CC2)=CC=C1NC1=NC=C2C(=N1)N(C)C1=CC=CC=C1C(=O)N2CC(F)(F)F

>  <Kd (nM)>


>  <Assay (Kd)>


>  <Ki (nM)>


>  <Assay (Ki)>


>  <IC50 (nM)>


>  <Assay (IC50)>


>  <EC50 (nM)>


>  <Assay (EC50)>


>  <Article DOI>
10.1016/j.cell.2020.10.038

>  <Molecular Weight>
527.551

>  <Exact Mass>
527.225657796

>  <XLogP3>
4.21

>  <Heavy Atom Count>
38

>  <Ring Count>
5

>  <Hydrogen Bond Acceptor Count>
8

>  <Hydrogen Bond Donor Count>
1

>  <Rotatable Bond Count>
5

>  <Topological Polar Surface Area>
77.07

>  <Molecular Formula>
C26H28F3N7O2

>  <InChI>
InChI=1S/C26H28F3N7O2/c1-33-10-12-35(13-11-33)17-8-9-19(22(14-17)38-3)31-25-30-15-21-23(32-25)34(2)20-7-5-4-6-18(20)24(37)36(21)16-26(27,28)29/h4-9,14-15H,10-13,16H2,1-3H3,(H,30,31,32)

>  <InChI Key>
OQFCHSFVWSLDAO-UHFFFAOYSA-N

>  <BindingDB>


>  <PubChem>
134457640

>  <ChEMBL>


$$$$
Compound 651
Actelion Java MolfileCreator 2.0

  0  0  0  0  0  0              0 V3000
M  V30 BEGIN CTAB
M  V30 COUNTS 35 39 0 0 0
M  V30 BEGIN ATOM
M  V30 1 S 0.0 0.0 0.0 0
M  V30 2 O 0.9096 1.1931 0.0 0
M  V30 3 O -0.9332 -1.1695 0.0 0
M  V30 4 N 1.1695 -0.9096 0.0 0
M  V30 5 C -1.1931 0.9332 0.0 0
M  V30 6 C 2.5516 -0.3307 0.0 0
M  V30 7 C 3.7212 -1.2404 0.0 0
M  V30 8 C 2.7525 1.1695 0.0 0
M  V30 9 C 5.1033 -0.6615 0.0 0
M  V30 10 C 4.1346 1.7483 0.0 0
M  V30 11 C 6.2728 -1.5711 0.0 0
M  V30 12 C 5.3041 0.8387 0.0 0
M  V30 13 C 6.2138 -3.0596 0.0 0
M  V30 14 C 7.7023 -1.1458 0.0 0
M  V30 15 N 5.0561 -4.0165 0.0 0
M  V30 16 C 7.6078 -3.5558 0.0 0
M  V30 17 S 8.5292 -2.3744 0.0 0
M  V30 18 C 5.3041 -5.4814 0.0 0
M  V30 19 C 7.8558 -5.0206 0.0 0
M  V30 20 N 6.6981 -5.9775 0.0 0
M  V30 21 N 4.1464 -6.4382 0.0 0
M  V30 22 C 2.7288 -5.9184 0.0 0
M  V30 23 C 1.5711 -6.8753 0.0 0
M  V30 24 C 2.4571 -4.43 0.0 0
M  V30 25 C 0.1535 -6.3555 0.0 0
M  V30 26 C 1.0395 -3.9102 0.0 0
M  V30 27 C -0.1181 -4.8671 0.0 0
M  V30 28 N -1.5357 -4.3473 0.0 0
M  V30 29 C -1.8074 -2.8588 0.0 0
M  V30 30 C -2.6934 -5.3041 0.0 0
M  V30 31 C -3.225 -2.339 0.0 0
M  V30 32 C -4.111 -4.7844 0.0 0
M  V30 33 N -4.3827 -3.2959 0.0 0
M  V30 34 C -5.8003 -2.7761 0.0 0
M  V30 35 C -6.072 -1.2876 0.0 0
M  V30 END ATOM
M  V30 BEGIN BOND
M  V30 1 2 1 2
M  V30 2 2 1 3
M  V30 3 1 1 4
M  V30 4 1 1 5
M  V30 5 1 4 6
M  V30 6 2 6 7
M  V30 7 1 6 8
M  V30 8 1 7 9
M  V30 9 2 8 10
M  V30 10 1 9 11
M  V30 11 2 9 12
M  V30 12 1 11 13
M  V30 13 2 11 14
M  V30 14 2 13 15
M  V30 15 1 13 16
M  V30 16 1 14 17
M  V30 17 1 15 18
M  V30 18 2 16 19
M  V30 19 2 18 20
M  V30 20 1 18 21
M  V30 21 1 21 22
M  V30 22 2 22 23
M  V30 23 1 22 24
M  V30 24 1 23 25
M  V30 25 2 24 26
M  V30 26 2 25 27
M  V30 27 1 27 28
M  V30 28 1 28 29
M  V30 29 1 28 30
M  V30 30 1 29 31
M  V30 31 1 30 32
M  V30 32 1 31 33
M  V30 33 1 33 34
M  V30 34 1 34 35
M  V30 35 1 10 12
M  V30 36 1 16 17
M  V30 37 1 19 20
M  V30 38 1 26 27
M  V30 39 1 32 33
M  V30 END BOND
M  V30 END CTAB
M  END
>  <Compound ID>
210

>  <Name>


>  <Uniprot>
Q2M2I8

>  <Target>
AAK1

>  <Smiles>
CCN1CCN(C2=CC=C(NC3=NC=C4SC=C(C5=CC=CC(NS(C)(=O)=O)=C5)C4=N3)C=C2)CC1

>  <Kd (nM)>


>  <Assay (Kd)>


>  <Ki (nM)>


>  <Assay (Ki)>


>  <IC50 (nM)>


>  <Assay (IC50)>


>  <EC50 (nM)>


>  <Assay (EC50)>


>  <Article DOI>
10.1016/j.cell.2020.10.038

>  <Molecular Weight>
508.673

>  <Exact Mass>
508.171516136

>  <XLogP3>
4.08

>  <Heavy Atom Count>
35

>  <Ring Count>
5

>  <Hydrogen Bond Acceptor Count>
8

>  <Hydrogen Bond Donor Count>
2

>  <Rotatable Bond Count>
7

>  <Topological Polar Surface Area>
90.46

>  <Molecular Formula>
C25H28N6O2S2

>  <InChI>
InChI=1S/C25H28N6O2S2/c1-3-30-11-13-31(14-12-30)21-9-7-19(8-10-21)27-25-26-16-23-24(28-25)22(17-34-23)18-5-4-6-20(15-18)29-35(2,32)33/h4-10,15-17,29H,3,11-14H2,1-2H3,(H,26,27,28)

>  <InChI Key>
MQMVBXQAIMTOTQ-UHFFFAOYSA-N

>  <BindingDB>


>  <PubChem>
90466261

>  <ChEMBL>


$$$$
Compound 652
Actelion Java MolfileCreator 2.0

  0  0  0  0  0  0              0 V3000
M  V30 BEGIN CTAB
M  V30 COUNTS 35 39 0 0 0
M  V30 BEGIN ATOM
M  V30 1 S 0.0 0.0 0.0 0
M  V30 2 O 0.9096 1.1931 0.0 0
M  V30 3 O -0.9332 -1.1695 0.0 0
M  V30 4 N 1.1695 -0.9096 0.0 0
M  V30 5 C -1.1931 0.9332 0.0 0
M  V30 6 C 2.5516 -0.3307 0.0 0
M  V30 7 C 3.7212 -1.2404 0.0 0
M  V30 8 C 2.7525 1.1695 0.0 0
M  V30 9 C 5.1033 -0.6615 0.0 0
M  V30 10 C 4.1346 1.7483 0.0 0
M  V30 11 C 6.2728 -1.5711 0.0 0
M  V30 12 C 5.3041 0.8387 0.0 0
M  V30 13 C 6.2138 -3.0596 0.0 0
M  V30 14 C 7.7023 -1.1458 0.0 0
M  V30 15 N 5.0561 -4.0165 0.0 0
M  V30 16 C 7.6078 -3.5558 0.0 0
M  V30 17 S 8.5292 -2.3744 0.0 0
M  V30 18 C 5.3041 -5.4814 0.0 0
M  V30 19 C 7.8558 -5.0206 0.0 0
M  V30 20 N 6.6981 -5.9775 0.0 0
M  V30 21 N 4.1464 -6.4382 0.0 0
M  V30 22 C 2.7288 -5.9184 0.0 0
M  V30 23 C 1.5711 -6.8753 0.0 0
M  V30 24 C 2.4571 -4.43 0.0 0
M  V30 25 C 0.1535 -6.3555 0.0 0
M  V30 26 C 1.0395 -3.9102 0.0 0
M  V30 27 C -0.1181 -4.8671 0.0 0
M  V30 28 N -1.5357 -4.3473 0.0 0
M  V30 29 C -1.8074 -2.8588 0.0 0
M  V30 30 C -2.6934 -5.3041 0.0 0
M  V30 31 C -3.225 -2.339 0.0 0
M  V30 32 C -4.111 -4.7844 0.0 0
M  V30 33 N -4.3827 -3.2959 0.0 0
M  V30 34 C -5.8003 -2.7761 0.0 0
M  V30 35 C -6.072 -1.2876 0.0 0
M  V30 END ATOM
M  V30 BEGIN BOND
M  V30 1 2 1 2
M  V30 2 2 1 3
M  V30 3 1 1 4
M  V30 4 1 1 5
M  V30 5 1 4 6
M  V30 6 2 6 7
M  V30 7 1 6 8
M  V30 8 1 7 9
M  V30 9 2 8 10
M  V30 10 1 9 11
M  V30 11 2 9 12
M  V30 12 1 11 13
M  V30 13 2 11 14
M  V30 14 2 13 15
M  V30 15 1 13 16
M  V30 16 1 14 17
M  V30 17 1 15 18
M  V30 18 2 16 19
M  V30 19 2 18 20
M  V30 20 1 18 21
M  V30 21 1 21 22
M  V30 22 2 22 23
M  V30 23 1 22 24
M  V30 24 1 23 25
M  V30 25 2 24 26
M  V30 26 2 25 27
M  V30 27 1 27 28
M  V30 28 1 28 29
M  V30 29 1 28 30
M  V30 30 1 29 31
M  V30 31 1 30 32
M  V30 32 1 31 33
M  V30 33 1 33 34
M  V30 34 1 34 35
M  V30 35 1 10 12
M  V30 36 1 16 17
M  V30 37 1 19 20
M  V30 38 1 26 27
M  V30 39 1 32 33
M  V30 END BOND
M  V30 END CTAB
M  END
>  <Compound ID>
210

>  <Name>


>  <Uniprot>
O14965

>  <Target>
AURKA

>  <Smiles>
CCN1CCN(C2=CC=C(NC3=NC=C4SC=C(C5=CC=CC(NS(C)(=O)=O)=C5)C4=N3)C=C2)CC1

>  <Kd (nM)>


>  <Assay (Kd)>


>  <Ki (nM)>


>  <Assay (Ki)>


>  <IC50 (nM)>


>  <Assay (IC50)>


>  <EC50 (nM)>


>  <Assay (EC50)>


>  <Article DOI>
10.1016/j.cell.2020.10.038

>  <Molecular Weight>
508.673

>  <Exact Mass>
508.171516136

>  <XLogP3>
4.08

>  <Heavy Atom Count>
35

>  <Ring Count>
5

>  <Hydrogen Bond Acceptor Count>
8

>  <Hydrogen Bond Donor Count>
2

>  <Rotatable Bond Count>
7

>  <Topological Polar Surface Area>
90.46

>  <Molecular Formula>
C25H28N6O2S2

>  <InChI>
InChI=1S/C25H28N6O2S2/c1-3-30-11-13-31(14-12-30)21-9-7-19(8-10-21)27-25-26-16-23-24(28-25)22(17-34-23)18-5-4-6-20(15-18)29-35(2,32)33/h4-10,15-17,29H,3,11-14H2,1-2H3,(H,26,27,28)

>  <InChI Key>
MQMVBXQAIMTOTQ-UHFFFAOYSA-N

>  <BindingDB>


>  <PubChem>
90466261

>  <ChEMBL>


$$$$
Compound 653
Actelion Java MolfileCreator 2.0

  0  0  0  0  0  0              0 V3000
M  V30 BEGIN CTAB
M  V30 COUNTS 35 39 0 0 0
M  V30 BEGIN ATOM
M  V30 1 S 0.0 0.0 0.0 0
M  V30 2 O 0.9096 1.1931 0.0 0
M  V30 3 O -0.9332 -1.1695 0.0 0
M  V30 4 N 1.1695 -0.9096 0.0 0
M  V30 5 C -1.1931 0.9332 0.0 0
M  V30 6 C 2.5516 -0.3307 0.0 0
M  V30 7 C 3.7212 -1.2404 0.0 0
M  V30 8 C 2.7525 1.1695 0.0 0
M  V30 9 C 5.1033 -0.6615 0.0 0
M  V30 10 C 4.1346 1.7483 0.0 0
M  V30 11 C 6.2728 -1.5711 0.0 0
M  V30 12 C 5.3041 0.8387 0.0 0
M  V30 13 C 6.2138 -3.0596 0.0 0
M  V30 14 C 7.7023 -1.1458 0.0 0
M  V30 15 N 5.0561 -4.0165 0.0 0
M  V30 16 C 7.6078 -3.5558 0.0 0
M  V30 17 S 8.5292 -2.3744 0.0 0
M  V30 18 C 5.3041 -5.4814 0.0 0
M  V30 19 C 7.8558 -5.0206 0.0 0
M  V30 20 N 6.6981 -5.9775 0.0 0
M  V30 21 N 4.1464 -6.4382 0.0 0
M  V30 22 C 2.7288 -5.9184 0.0 0
M  V30 23 C 1.5711 -6.8753 0.0 0
M  V30 24 C 2.4571 -4.43 0.0 0
M  V30 25 C 0.1535 -6.3555 0.0 0
M  V30 26 C 1.0395 -3.9102 0.0 0
M  V30 27 C -0.1181 -4.8671 0.0 0
M  V30 28 N -1.5357 -4.3473 0.0 0
M  V30 29 C -1.8074 -2.8588 0.0 0
M  V30 30 C -2.6934 -5.3041 0.0 0
M  V30 31 C -3.225 -2.339 0.0 0
M  V30 32 C -4.111 -4.7844 0.0 0
M  V30 33 N -4.3827 -3.2959 0.0 0
M  V30 34 C -5.8003 -2.7761 0.0 0
M  V30 35 C -6.072 -1.2876 0.0 0
M  V30 END ATOM
M  V30 BEGIN BOND
M  V30 1 2 1 2
M  V30 2 2 1 3
M  V30 3 1 1 4
M  V30 4 1 1 5
M  V30 5 1 4 6
M  V30 6 2 6 7
M  V30 7 1 6 8
M  V30 8 1 7 9
M  V30 9 2 8 10
M  V30 10 1 9 11
M  V30 11 2 9 12
M  V30 12 1 11 13
M  V30 13 2 11 14
M  V30 14 2 13 15
M  V30 15 1 13 16
M  V30 16 1 14 17
M  V30 17 1 15 18
M  V30 18 2 16 19
M  V30 19 2 18 20
M  V30 20 1 18 21
M  V30 21 1 21 22
M  V30 22 2 22 23
M  V30 23 1 22 24
M  V30 24 1 23 25
M  V30 25 2 24 26
M  V30 26 2 25 27
M  V30 27 1 27 28
M  V30 28 1 28 29
M  V30 29 1 28 30
M  V30 30 1 29 31
M  V30 31 1 30 32
M  V30 32 1 31 33
M  V30 33 1 33 34
M  V30 34 1 34 35
M  V30 35 1 10 12
M  V30 36 1 16 17
M  V30 37 1 19 20
M  V30 38 1 26 27
M  V30 39 1 32 33
M  V30 END BOND
M  V30 END CTAB
M  END
>  <Compound ID>
210

>  <Name>


>  <Uniprot>
Q9NSY1

>  <Target>
BMP2K

>  <Smiles>
CCN1CCN(C2=CC=C(NC3=NC=C4SC=C(C5=CC=CC(NS(C)(=O)=O)=C5)C4=N3)C=C2)CC1

>  <Kd (nM)>


>  <Assay (Kd)>


>  <Ki (nM)>


>  <Assay (Ki)>


>  <IC50 (nM)>


>  <Assay (IC50)>


>  <EC50 (nM)>


>  <Assay (EC50)>


>  <Article DOI>
10.1016/j.cell.2020.10.038

>  <Molecular Weight>
508.673

>  <Exact Mass>
508.171516136

>  <XLogP3>
4.08

>  <Heavy Atom Count>
35

>  <Ring Count>
5

>  <Hydrogen Bond Acceptor Count>
8

>  <Hydrogen Bond Donor Count>
2

>  <Rotatable Bond Count>
7

>  <Topological Polar Surface Area>
90.46

>  <Molecular Formula>
C25H28N6O2S2

>  <InChI>
InChI=1S/C25H28N6O2S2/c1-3-30-11-13-31(14-12-30)21-9-7-19(8-10-21)27-25-26-16-23-24(28-25)22(17-34-23)18-5-4-6-20(15-18)29-35(2,32)33/h4-10,15-17,29H,3,11-14H2,1-2H3,(H,26,27,28)

>  <InChI Key>
MQMVBXQAIMTOTQ-UHFFFAOYSA-N

>  <BindingDB>


>  <PubChem>
90466261

>  <ChEMBL>


$$$$
Compound 654
Actelion Java MolfileCreator 2.0

  0  0  0  0  0  0              0 V3000
M  V30 BEGIN CTAB
M  V30 COUNTS 35 39 0 0 0
M  V30 BEGIN ATOM
M  V30 1 S 0.0 0.0 0.0 0
M  V30 2 O 0.9096 1.1931 0.0 0
M  V30 3 O -0.9332 -1.1695 0.0 0
M  V30 4 N 1.1695 -0.9096 0.0 0
M  V30 5 C -1.1931 0.9332 0.0 0
M  V30 6 C 2.5516 -0.3307 0.0 0
M  V30 7 C 3.7212 -1.2404 0.0 0
M  V30 8 C 2.7525 1.1695 0.0 0
M  V30 9 C 5.1033 -0.6615 0.0 0
M  V30 10 C 4.1346 1.7483 0.0 0
M  V30 11 C 6.2728 -1.5711 0.0 0
M  V30 12 C 5.3041 0.8387 0.0 0
M  V30 13 C 6.2138 -3.0596 0.0 0
M  V30 14 C 7.7023 -1.1458 0.0 0
M  V30 15 N 5.0561 -4.0165 0.0 0
M  V30 16 C 7.6078 -3.5558 0.0 0
M  V30 17 S 8.5292 -2.3744 0.0 0
M  V30 18 C 5.3041 -5.4814 0.0 0
M  V30 19 C 7.8558 -5.0206 0.0 0
M  V30 20 N 6.6981 -5.9775 0.0 0
M  V30 21 N 4.1464 -6.4382 0.0 0
M  V30 22 C 2.7288 -5.9184 0.0 0
M  V30 23 C 1.5711 -6.8753 0.0 0
M  V30 24 C 2.4571 -4.43 0.0 0
M  V30 25 C 0.1535 -6.3555 0.0 0
M  V30 26 C 1.0395 -3.9102 0.0 0
M  V30 27 C -0.1181 -4.8671 0.0 0
M  V30 28 N -1.5357 -4.3473 0.0 0
M  V30 29 C -1.8074 -2.8588 0.0 0
M  V30 30 C -2.6934 -5.3041 0.0 0
M  V30 31 C -3.225 -2.339 0.0 0
M  V30 32 C -4.111 -4.7844 0.0 0
M  V30 33 N -4.3827 -3.2959 0.0 0
M  V30 34 C -5.8003 -2.7761 0.0 0
M  V30 35 C -6.072 -1.2876 0.0 0
M  V30 END ATOM
M  V30 BEGIN BOND
M  V30 1 2 1 2
M  V30 2 2 1 3
M  V30 3 1 1 4
M  V30 4 1 1 5
M  V30 5 1 4 6
M  V30 6 2 6 7
M  V30 7 1 6 8
M  V30 8 1 7 9
M  V30 9 2 8 10
M  V30 10 1 9 11
M  V30 11 2 9 12
M  V30 12 1 11 13
M  V30 13 2 11 14
M  V30 14 2 13 15
M  V30 15 1 13 16
M  V30 16 1 14 17
M  V30 17 1 15 18
M  V30 18 2 16 19
M  V30 19 2 18 20
M  V30 20 1 18 21
M  V30 21 1 21 22
M  V30 22 2 22 23
M  V30 23 1 22 24
M  V30 24 1 23 25
M  V30 25 2 24 26
M  V30 26 2 25 27
M  V30 27 1 27 28
M  V30 28 1 28 29
M  V30 29 1 28 30
M  V30 30 1 29 31
M  V30 31 1 30 32
M  V30 32 1 31 33
M  V30 33 1 33 34
M  V30 34 1 34 35
M  V30 35 1 10 12
M  V30 36 1 16 17
M  V30 37 1 19 20
M  V30 38 1 26 27
M  V30 39 1 32 33
M  V30 END BOND
M  V30 END CTAB
M  END
>  <Compound ID>
210

>  <Name>


>  <Uniprot>
Q8N5S9

>  <Target>
CAMKK1

>  <Smiles>
CCN1CCN(C2=CC=C(NC3=NC=C4SC=C(C5=CC=CC(NS(C)(=O)=O)=C5)C4=N3)C=C2)CC1

>  <Kd (nM)>


>  <Assay (Kd)>


>  <Ki (nM)>


>  <Assay (Ki)>


>  <IC50 (nM)>


>  <Assay (IC50)>


>  <EC50 (nM)>


>  <Assay (EC50)>


>  <Article DOI>
10.1016/j.cell.2020.10.038

>  <Molecular Weight>
508.673

>  <Exact Mass>
508.171516136

>  <XLogP3>
4.08

>  <Heavy Atom Count>
35

>  <Ring Count>
5

>  <Hydrogen Bond Acceptor Count>
8

>  <Hydrogen Bond Donor Count>
2

>  <Rotatable Bond Count>
7

>  <Topological Polar Surface Area>
90.46

>  <Molecular Formula>
C25H28N6O2S2

>  <InChI>
InChI=1S/C25H28N6O2S2/c1-3-30-11-13-31(14-12-30)21-9-7-19(8-10-21)27-25-26-16-23-24(28-25)22(17-34-23)18-5-4-6-20(15-18)29-35(2,32)33/h4-10,15-17,29H,3,11-14H2,1-2H3,(H,26,27,28)

>  <InChI Key>
MQMVBXQAIMTOTQ-UHFFFAOYSA-N

>  <BindingDB>


>  <PubChem>
90466261

>  <ChEMBL>


$$$$
Compound 655
Actelion Java MolfileCreator 2.0

  0  0  0  0  0  0              0 V3000
M  V30 BEGIN CTAB
M  V30 COUNTS 35 39 0 0 0
M  V30 BEGIN ATOM
M  V30 1 S 0.0 0.0 0.0 0
M  V30 2 O 0.9096 1.1931 0.0 0
M  V30 3 O -0.9332 -1.1695 0.0 0
M  V30 4 N 1.1695 -0.9096 0.0 0
M  V30 5 C -1.1931 0.9332 0.0 0
M  V30 6 C 2.5516 -0.3307 0.0 0
M  V30 7 C 3.7212 -1.2404 0.0 0
M  V30 8 C 2.7525 1.1695 0.0 0
M  V30 9 C 5.1033 -0.6615 0.0 0
M  V30 10 C 4.1346 1.7483 0.0 0
M  V30 11 C 6.2728 -1.5711 0.0 0
M  V30 12 C 5.3041 0.8387 0.0 0
M  V30 13 C 6.2138 -3.0596 0.0 0
M  V30 14 C 7.7023 -1.1458 0.0 0
M  V30 15 N 5.0561 -4.0165 0.0 0
M  V30 16 C 7.6078 -3.5558 0.0 0
M  V30 17 S 8.5292 -2.3744 0.0 0
M  V30 18 C 5.3041 -5.4814 0.0 0
M  V30 19 C 7.8558 -5.0206 0.0 0
M  V30 20 N 6.6981 -5.9775 0.0 0
M  V30 21 N 4.1464 -6.4382 0.0 0
M  V30 22 C 2.7288 -5.9184 0.0 0
M  V30 23 C 1.5711 -6.8753 0.0 0
M  V30 24 C 2.4571 -4.43 0.0 0
M  V30 25 C 0.1535 -6.3555 0.0 0
M  V30 26 C 1.0395 -3.9102 0.0 0
M  V30 27 C -0.1181 -4.8671 0.0 0
M  V30 28 N -1.5357 -4.3473 0.0 0
M  V30 29 C -1.8074 -2.8588 0.0 0
M  V30 30 C -2.6934 -5.3041 0.0 0
M  V30 31 C -3.225 -2.339 0.0 0
M  V30 32 C -4.111 -4.7844 0.0 0
M  V30 33 N -4.3827 -3.2959 0.0 0
M  V30 34 C -5.8003 -2.7761 0.0 0
M  V30 35 C -6.072 -1.2876 0.0 0
M  V30 END ATOM
M  V30 BEGIN BOND
M  V30 1 2 1 2
M  V30 2 2 1 3
M  V30 3 1 1 4
M  V30 4 1 1 5
M  V30 5 1 4 6
M  V30 6 2 6 7
M  V30 7 1 6 8
M  V30 8 1 7 9
M  V30 9 2 8 10
M  V30 10 1 9 11
M  V30 11 2 9 12
M  V30 12 1 11 13
M  V30 13 2 11 14
M  V30 14 2 13 15
M  V30 15 1 13 16
M  V30 16 1 14 17
M  V30 17 1 15 18
M  V30 18 2 16 19
M  V30 19 2 18 20
M  V30 20 1 18 21
M  V30 21 1 21 22
M  V30 22 2 22 23
M  V30 23 1 22 24
M  V30 24 1 23 25
M  V30 25 2 24 26
M  V30 26 2 25 27
M  V30 27 1 27 28
M  V30 28 1 28 29
M  V30 29 1 28 30
M  V30 30 1 29 31
M  V30 31 1 30 32
M  V30 32 1 31 33
M  V30 33 1 33 34
M  V30 34 1 34 35
M  V30 35 1 10 12
M  V30 36 1 16 17
M  V30 37 1 19 20
M  V30 38 1 26 27
M  V30 39 1 32 33
M  V30 END BOND
M  V30 END CTAB
M  END
>  <Compound ID>
210

>  <Name>


>  <Uniprot>
Q00536

>  <Target>
CDK16

>  <Smiles>
CCN1CCN(C2=CC=C(NC3=NC=C4SC=C(C5=CC=CC(NS(C)(=O)=O)=C5)C4=N3)C=C2)CC1

>  <Kd (nM)>


>  <Assay (Kd)>


>  <Ki (nM)>


>  <Assay (Ki)>


>  <IC50 (nM)>


>  <Assay (IC50)>


>  <EC50 (nM)>


>  <Assay (EC50)>


>  <Article DOI>
10.1016/j.cell.2020.10.038

>  <Molecular Weight>
508.673

>  <Exact Mass>
508.171516136

>  <XLogP3>
4.08

>  <Heavy Atom Count>
35

>  <Ring Count>
5

>  <Hydrogen Bond Acceptor Count>
8

>  <Hydrogen Bond Donor Count>
2

>  <Rotatable Bond Count>
7

>  <Topological Polar Surface Area>
90.46

>  <Molecular Formula>
C25H28N6O2S2

>  <InChI>
InChI=1S/C25H28N6O2S2/c1-3-30-11-13-31(14-12-30)21-9-7-19(8-10-21)27-25-26-16-23-24(28-25)22(17-34-23)18-5-4-6-20(15-18)29-35(2,32)33/h4-10,15-17,29H,3,11-14H2,1-2H3,(H,26,27,28)

>  <InChI Key>
MQMVBXQAIMTOTQ-UHFFFAOYSA-N

>  <BindingDB>


>  <PubChem>
90466261

>  <ChEMBL>


$$$$
Compound 656
Actelion Java MolfileCreator 2.0

  0  0  0  0  0  0              0 V3000
M  V30 BEGIN CTAB
M  V30 COUNTS 35 39 0 0 0
M  V30 BEGIN ATOM
M  V30 1 S 0.0 0.0 0.0 0
M  V30 2 O 0.9096 1.1931 0.0 0
M  V30 3 O -0.9332 -1.1695 0.0 0
M  V30 4 N 1.1695 -0.9096 0.0 0
M  V30 5 C -1.1931 0.9332 0.0 0
M  V30 6 C 2.5516 -0.3307 0.0 0
M  V30 7 C 3.7212 -1.2404 0.0 0
M  V30 8 C 2.7525 1.1695 0.0 0
M  V30 9 C 5.1033 -0.6615 0.0 0
M  V30 10 C 4.1346 1.7483 0.0 0
M  V30 11 C 6.2728 -1.5711 0.0 0
M  V30 12 C 5.3041 0.8387 0.0 0
M  V30 13 C 6.2138 -3.0596 0.0 0
M  V30 14 C 7.7023 -1.1458 0.0 0
M  V30 15 N 5.0561 -4.0165 0.0 0
M  V30 16 C 7.6078 -3.5558 0.0 0
M  V30 17 S 8.5292 -2.3744 0.0 0
M  V30 18 C 5.3041 -5.4814 0.0 0
M  V30 19 C 7.8558 -5.0206 0.0 0
M  V30 20 N 6.6981 -5.9775 0.0 0
M  V30 21 N 4.1464 -6.4382 0.0 0
M  V30 22 C 2.7288 -5.9184 0.0 0
M  V30 23 C 1.5711 -6.8753 0.0 0
M  V30 24 C 2.4571 -4.43 0.0 0
M  V30 25 C 0.1535 -6.3555 0.0 0
M  V30 26 C 1.0395 -3.9102 0.0 0
M  V30 27 C -0.1181 -4.8671 0.0 0
M  V30 28 N -1.5357 -4.3473 0.0 0
M  V30 29 C -1.8074 -2.8588 0.0 0
M  V30 30 C -2.6934 -5.3041 0.0 0
M  V30 31 C -3.225 -2.339 0.0 0
M  V30 32 C -4.111 -4.7844 0.0 0
M  V30 33 N -4.3827 -3.2959 0.0 0
M  V30 34 C -5.8003 -2.7761 0.0 0
M  V30 35 C -6.072 -1.2876 0.0 0
M  V30 END ATOM
M  V30 BEGIN BOND
M  V30 1 2 1 2
M  V30 2 2 1 3
M  V30 3 1 1 4
M  V30 4 1 1 5
M  V30 5 1 4 6
M  V30 6 2 6 7
M  V30 7 1 6 8
M  V30 8 1 7 9
M  V30 9 2 8 10
M  V30 10 1 9 11
M  V30 11 2 9 12
M  V30 12 1 11 13
M  V30 13 2 11 14
M  V30 14 2 13 15
M  V30 15 1 13 16
M  V30 16 1 14 17
M  V30 17 1 15 18
M  V30 18 2 16 19
M  V30 19 2 18 20
M  V30 20 1 18 21
M  V30 21 1 21 22
M  V30 22 2 22 23
M  V30 23 1 22 24
M  V30 24 1 23 25
M  V30 25 2 24 26
M  V30 26 2 25 27
M  V30 27 1 27 28
M  V30 28 1 28 29
M  V30 29 1 28 30
M  V30 30 1 29 31
M  V30 31 1 30 32
M  V30 32 1 31 33
M  V30 33 1 33 34
M  V30 34 1 34 35
M  V30 35 1 10 12
M  V30 36 1 16 17
M  V30 37 1 19 20
M  V30 38 1 26 27
M  V30 39 1 32 33
M  V30 END BOND
M  V30 END CTAB
M  END
>  <Compound ID>
210

>  <Name>


>  <Uniprot>
Q00537

>  <Target>
CDK17

>  <Smiles>
CCN1CCN(C2=CC=C(NC3=NC=C4SC=C(C5=CC=CC(NS(C)(=O)=O)=C5)C4=N3)C=C2)CC1

>  <Kd (nM)>


>  <Assay (Kd)>


>  <Ki (nM)>


>  <Assay (Ki)>


>  <IC50 (nM)>


>  <Assay (IC50)>


>  <EC50 (nM)>


>  <Assay (EC50)>


>  <Article DOI>
10.1016/j.cell.2020.10.038

>  <Molecular Weight>
508.673

>  <Exact Mass>
508.171516136

>  <XLogP3>
4.08

>  <Heavy Atom Count>
35

>  <Ring Count>
5

>  <Hydrogen Bond Acceptor Count>
8

>  <Hydrogen Bond Donor Count>
2

>  <Rotatable Bond Count>
7

>  <Topological Polar Surface Area>
90.46

>  <Molecular Formula>
C25H28N6O2S2

>  <InChI>
InChI=1S/C25H28N6O2S2/c1-3-30-11-13-31(14-12-30)21-9-7-19(8-10-21)27-25-26-16-23-24(28-25)22(17-34-23)18-5-4-6-20(15-18)29-35(2,32)33/h4-10,15-17,29H,3,11-14H2,1-2H3,(H,26,27,28)

>  <InChI Key>
MQMVBXQAIMTOTQ-UHFFFAOYSA-N

>  <BindingDB>


>  <PubChem>
90466261

>  <ChEMBL>


$$$$
Compound 657
Actelion Java MolfileCreator 2.0

  0  0  0  0  0  0              0 V3000
M  V30 BEGIN CTAB
M  V30 COUNTS 35 39 0 0 0
M  V30 BEGIN ATOM
M  V30 1 S 0.0 0.0 0.0 0
M  V30 2 O 0.9096 1.1931 0.0 0
M  V30 3 O -0.9332 -1.1695 0.0 0
M  V30 4 N 1.1695 -0.9096 0.0 0
M  V30 5 C -1.1931 0.9332 0.0 0
M  V30 6 C 2.5516 -0.3307 0.0 0
M  V30 7 C 3.7212 -1.2404 0.0 0
M  V30 8 C 2.7525 1.1695 0.0 0
M  V30 9 C 5.1033 -0.6615 0.0 0
M  V30 10 C 4.1346 1.7483 0.0 0
M  V30 11 C 6.2728 -1.5711 0.0 0
M  V30 12 C 5.3041 0.8387 0.0 0
M  V30 13 C 6.2138 -3.0596 0.0 0
M  V30 14 C 7.7023 -1.1458 0.0 0
M  V30 15 N 5.0561 -4.0165 0.0 0
M  V30 16 C 7.6078 -3.5558 0.0 0
M  V30 17 S 8.5292 -2.3744 0.0 0
M  V30 18 C 5.3041 -5.4814 0.0 0
M  V30 19 C 7.8558 -5.0206 0.0 0
M  V30 20 N 6.6981 -5.9775 0.0 0
M  V30 21 N 4.1464 -6.4382 0.0 0
M  V30 22 C 2.7288 -5.9184 0.0 0
M  V30 23 C 1.5711 -6.8753 0.0 0
M  V30 24 C 2.4571 -4.43 0.0 0
M  V30 25 C 0.1535 -6.3555 0.0 0
M  V30 26 C 1.0395 -3.9102 0.0 0
M  V30 27 C -0.1181 -4.8671 0.0 0
M  V30 28 N -1.5357 -4.3473 0.0 0
M  V30 29 C -1.8074 -2.8588 0.0 0
M  V30 30 C -2.6934 -5.3041 0.0 0
M  V30 31 C -3.225 -2.339 0.0 0
M  V30 32 C -4.111 -4.7844 0.0 0
M  V30 33 N -4.3827 -3.2959 0.0 0
M  V30 34 C -5.8003 -2.7761 0.0 0
M  V30 35 C -6.072 -1.2876 0.0 0
M  V30 END ATOM
M  V30 BEGIN BOND
M  V30 1 2 1 2
M  V30 2 2 1 3
M  V30 3 1 1 4
M  V30 4 1 1 5
M  V30 5 1 4 6
M  V30 6 2 6 7
M  V30 7 1 6 8
M  V30 8 1 7 9
M  V30 9 2 8 10
M  V30 10 1 9 11
M  V30 11 2 9 12
M  V30 12 1 11 13
M  V30 13 2 11 14
M  V30 14 2 13 15
M  V30 15 1 13 16
M  V30 16 1 14 17
M  V30 17 1 15 18
M  V30 18 2 16 19
M  V30 19 2 18 20
M  V30 20 1 18 21
M  V30 21 1 21 22
M  V30 22 2 22 23
M  V30 23 1 22 24
M  V30 24 1 23 25
M  V30 25 2 24 26
M  V30 26 2 25 27
M  V30 27 1 27 28
M  V30 28 1 28 29
M  V30 29 1 28 30
M  V30 30 1 29 31
M  V30 31 1 30 32
M  V30 32 1 31 33
M  V30 33 1 33 34
M  V30 34 1 34 35
M  V30 35 1 10 12
M  V30 36 1 16 17
M  V30 37 1 19 20
M  V30 38 1 26 27
M  V30 39 1 32 33
M  V30 END BOND
M  V30 END CTAB
M  END
>  <Compound ID>
210

>  <Name>


>  <Uniprot>
P06493

>  <Target>
CDK1

>  <Smiles>
CCN1CCN(C2=CC=C(NC3=NC=C4SC=C(C5=CC=CC(NS(C)(=O)=O)=C5)C4=N3)C=C2)CC1

>  <Kd (nM)>


>  <Assay (Kd)>


>  <Ki (nM)>


>  <Assay (Ki)>


>  <IC50 (nM)>


>  <Assay (IC50)>


>  <EC50 (nM)>


>  <Assay (EC50)>


>  <Article DOI>
10.1016/j.cell.2020.10.038

>  <Molecular Weight>
508.673

>  <Exact Mass>
508.171516136

>  <XLogP3>
4.08

>  <Heavy Atom Count>
35

>  <Ring Count>
5

>  <Hydrogen Bond Acceptor Count>
8

>  <Hydrogen Bond Donor Count>
2

>  <Rotatable Bond Count>
7

>  <Topological Polar Surface Area>
90.46

>  <Molecular Formula>
C25H28N6O2S2

>  <InChI>
InChI=1S/C25H28N6O2S2/c1-3-30-11-13-31(14-12-30)21-9-7-19(8-10-21)27-25-26-16-23-24(28-25)22(17-34-23)18-5-4-6-20(15-18)29-35(2,32)33/h4-10,15-17,29H,3,11-14H2,1-2H3,(H,26,27,28)

>  <InChI Key>
MQMVBXQAIMTOTQ-UHFFFAOYSA-N

>  <BindingDB>


>  <PubChem>
90466261

>  <ChEMBL>


$$$$
Compound 658
Actelion Java MolfileCreator 2.0

  0  0  0  0  0  0              0 V3000
M  V30 BEGIN CTAB
M  V30 COUNTS 35 39 0 0 0
M  V30 BEGIN ATOM
M  V30 1 S 0.0 0.0 0.0 0
M  V30 2 O 0.9096 1.1931 0.0 0
M  V30 3 O -0.9332 -1.1695 0.0 0
M  V30 4 N 1.1695 -0.9096 0.0 0
M  V30 5 C -1.1931 0.9332 0.0 0
M  V30 6 C 2.5516 -0.3307 0.0 0
M  V30 7 C 3.7212 -1.2404 0.0 0
M  V30 8 C 2.7525 1.1695 0.0 0
M  V30 9 C 5.1033 -0.6615 0.0 0
M  V30 10 C 4.1346 1.7483 0.0 0
M  V30 11 C 6.2728 -1.5711 0.0 0
M  V30 12 C 5.3041 0.8387 0.0 0
M  V30 13 C 6.2138 -3.0596 0.0 0
M  V30 14 C 7.7023 -1.1458 0.0 0
M  V30 15 N 5.0561 -4.0165 0.0 0
M  V30 16 C 7.6078 -3.5558 0.0 0
M  V30 17 S 8.5292 -2.3744 0.0 0
M  V30 18 C 5.3041 -5.4814 0.0 0
M  V30 19 C 7.8558 -5.0206 0.0 0
M  V30 20 N 6.6981 -5.9775 0.0 0
M  V30 21 N 4.1464 -6.4382 0.0 0
M  V30 22 C 2.7288 -5.9184 0.0 0
M  V30 23 C 1.5711 -6.8753 0.0 0
M  V30 24 C 2.4571 -4.43 0.0 0
M  V30 25 C 0.1535 -6.3555 0.0 0
M  V30 26 C 1.0395 -3.9102 0.0 0
M  V30 27 C -0.1181 -4.8671 0.0 0
M  V30 28 N -1.5357 -4.3473 0.0 0
M  V30 29 C -1.8074 -2.8588 0.0 0
M  V30 30 C -2.6934 -5.3041 0.0 0
M  V30 31 C -3.225 -2.339 0.0 0
M  V30 32 C -4.111 -4.7844 0.0 0
M  V30 33 N -4.3827 -3.2959 0.0 0
M  V30 34 C -5.8003 -2.7761 0.0 0
M  V30 35 C -6.072 -1.2876 0.0 0
M  V30 END ATOM
M  V30 BEGIN BOND
M  V30 1 2 1 2
M  V30 2 2 1 3
M  V30 3 1 1 4
M  V30 4 1 1 5
M  V30 5 1 4 6
M  V30 6 2 6 7
M  V30 7 1 6 8
M  V30 8 1 7 9
M  V30 9 2 8 10
M  V30 10 1 9 11
M  V30 11 2 9 12
M  V30 12 1 11 13
M  V30 13 2 11 14
M  V30 14 2 13 15
M  V30 15 1 13 16
M  V30 16 1 14 17
M  V30 17 1 15 18
M  V30 18 2 16 19
M  V30 19 2 18 20
M  V30 20 1 18 21
M  V30 21 1 21 22
M  V30 22 2 22 23
M  V30 23 1 22 24
M  V30 24 1 23 25
M  V30 25 2 24 26
M  V30 26 2 25 27
M  V30 27 1 27 28
M  V30 28 1 28 29
M  V30 29 1 28 30
M  V30 30 1 29 31
M  V30 31 1 30 32
M  V30 32 1 31 33
M  V30 33 1 33 34
M  V30 34 1 34 35
M  V30 35 1 10 12
M  V30 36 1 16 17
M  V30 37 1 19 20
M  V30 38 1 26 27
M  V30 39 1 32 33
M  V30 END BOND
M  V30 END CTAB
M  END
>  <Compound ID>
210

>  <Name>


>  <Uniprot>
P24941

>  <Target>
CDK2

>  <Smiles>
CCN1CCN(C2=CC=C(NC3=NC=C4SC=C(C5=CC=CC(NS(C)(=O)=O)=C5)C4=N3)C=C2)CC1

>  <Kd (nM)>


>  <Assay (Kd)>


>  <Ki (nM)>


>  <Assay (Ki)>


>  <IC50 (nM)>


>  <Assay (IC50)>


>  <EC50 (nM)>


>  <Assay (EC50)>


>  <Article DOI>
10.1016/j.cell.2020.10.038

>  <Molecular Weight>
508.673

>  <Exact Mass>
508.171516136

>  <XLogP3>
4.08

>  <Heavy Atom Count>
35

>  <Ring Count>
5

>  <Hydrogen Bond Acceptor Count>
8

>  <Hydrogen Bond Donor Count>
2

>  <Rotatable Bond Count>
7

>  <Topological Polar Surface Area>
90.46

>  <Molecular Formula>
C25H28N6O2S2

>  <InChI>
InChI=1S/C25H28N6O2S2/c1-3-30-11-13-31(14-12-30)21-9-7-19(8-10-21)27-25-26-16-23-24(28-25)22(17-34-23)18-5-4-6-20(15-18)29-35(2,32)33/h4-10,15-17,29H,3,11-14H2,1-2H3,(H,26,27,28)

>  <InChI Key>
MQMVBXQAIMTOTQ-UHFFFAOYSA-N

>  <BindingDB>


>  <PubChem>
90466261

>  <ChEMBL>


$$$$
Compound 659
Actelion Java MolfileCreator 2.0

  0  0  0  0  0  0              0 V3000
M  V30 BEGIN CTAB
M  V30 COUNTS 35 39 0 0 0
M  V30 BEGIN ATOM
M  V30 1 S 0.0 0.0 0.0 0
M  V30 2 O 0.9096 1.1931 0.0 0
M  V30 3 O -0.9332 -1.1695 0.0 0
M  V30 4 N 1.1695 -0.9096 0.0 0
M  V30 5 C -1.1931 0.9332 0.0 0
M  V30 6 C 2.5516 -0.3307 0.0 0
M  V30 7 C 3.7212 -1.2404 0.0 0
M  V30 8 C 2.7525 1.1695 0.0 0
M  V30 9 C 5.1033 -0.6615 0.0 0
M  V30 10 C 4.1346 1.7483 0.0 0
M  V30 11 C 6.2728 -1.5711 0.0 0
M  V30 12 C 5.3041 0.8387 0.0 0
M  V30 13 C 6.2138 -3.0596 0.0 0
M  V30 14 C 7.7023 -1.1458 0.0 0
M  V30 15 N 5.0561 -4.0165 0.0 0
M  V30 16 C 7.6078 -3.5558 0.0 0
M  V30 17 S 8.5292 -2.3744 0.0 0
M  V30 18 C 5.3041 -5.4814 0.0 0
M  V30 19 C 7.8558 -5.0206 0.0 0
M  V30 20 N 6.6981 -5.9775 0.0 0
M  V30 21 N 4.1464 -6.4382 0.0 0
M  V30 22 C 2.7288 -5.9184 0.0 0
M  V30 23 C 1.5711 -6.8753 0.0 0
M  V30 24 C 2.4571 -4.43 0.0 0
M  V30 25 C 0.1535 -6.3555 0.0 0
M  V30 26 C 1.0395 -3.9102 0.0 0
M  V30 27 C -0.1181 -4.8671 0.0 0
M  V30 28 N -1.5357 -4.3473 0.0 0
M  V30 29 C -1.8074 -2.8588 0.0 0
M  V30 30 C -2.6934 -5.3041 0.0 0
M  V30 31 C -3.225 -2.339 0.0 0
M  V30 32 C -4.111 -4.7844 0.0 0
M  V30 33 N -4.3827 -3.2959 0.0 0
M  V30 34 C -5.8003 -2.7761 0.0 0
M  V30 35 C -6.072 -1.2876 0.0 0
M  V30 END ATOM
M  V30 BEGIN BOND
M  V30 1 2 1 2
M  V30 2 2 1 3
M  V30 3 1 1 4
M  V30 4 1 1 5
M  V30 5 1 4 6
M  V30 6 2 6 7
M  V30 7 1 6 8
M  V30 8 1 7 9
M  V30 9 2 8 10
M  V30 10 1 9 11
M  V30 11 2 9 12
M  V30 12 1 11 13
M  V30 13 2 11 14
M  V30 14 2 13 15
M  V30 15 1 13 16
M  V30 16 1 14 17
M  V30 17 1 15 18
M  V30 18 2 16 19
M  V30 19 2 18 20
M  V30 20 1 18 21
M  V30 21 1 21 22
M  V30 22 2 22 23
M  V30 23 1 22 24
M  V30 24 1 23 25
M  V30 25 2 24 26
M  V30 26 2 25 27
M  V30 27 1 27 28
M  V30 28 1 28 29
M  V30 29 1 28 30
M  V30 30 1 29 31
M  V30 31 1 30 32
M  V30 32 1 31 33
M  V30 33 1 33 34
M  V30 34 1 34 35
M  V30 35 1 10 12
M  V30 36 1 16 17
M  V30 37 1 19 20
M  V30 38 1 26 27
M  V30 39 1 32 33
M  V30 END BOND
M  V30 END CTAB
M  END
>  <Compound ID>
210

>  <Name>


>  <Uniprot>
P11802

>  <Target>
CDK4

>  <Smiles>
CCN1CCN(C2=CC=C(NC3=NC=C4SC=C(C5=CC=CC(NS(C)(=O)=O)=C5)C4=N3)C=C2)CC1

>  <Kd (nM)>


>  <Assay (Kd)>


>  <Ki (nM)>


>  <Assay (Ki)>


>  <IC50 (nM)>


>  <Assay (IC50)>


>  <EC50 (nM)>


>  <Assay (EC50)>


>  <Article DOI>
10.1016/j.cell.2020.10.038

>  <Molecular Weight>
508.673

>  <Exact Mass>
508.171516136

>  <XLogP3>
4.08

>  <Heavy Atom Count>
35

>  <Ring Count>
5

>  <Hydrogen Bond Acceptor Count>
8

>  <Hydrogen Bond Donor Count>
2

>  <Rotatable Bond Count>
7

>  <Topological Polar Surface Area>
90.46

>  <Molecular Formula>
C25H28N6O2S2

>  <InChI>
InChI=1S/C25H28N6O2S2/c1-3-30-11-13-31(14-12-30)21-9-7-19(8-10-21)27-25-26-16-23-24(28-25)22(17-34-23)18-5-4-6-20(15-18)29-35(2,32)33/h4-10,15-17,29H,3,11-14H2,1-2H3,(H,26,27,28)

>  <InChI Key>
MQMVBXQAIMTOTQ-UHFFFAOYSA-N

>  <BindingDB>


>  <PubChem>
90466261

>  <ChEMBL>


$$$$
Compound 660
Actelion Java MolfileCreator 2.0

  0  0  0  0  0  0              0 V3000
M  V30 BEGIN CTAB
M  V30 COUNTS 35 39 0 0 0
M  V30 BEGIN ATOM
M  V30 1 S 0.0 0.0 0.0 0
M  V30 2 O 0.9096 1.1931 0.0 0
M  V30 3 O -0.9332 -1.1695 0.0 0
M  V30 4 N 1.1695 -0.9096 0.0 0
M  V30 5 C -1.1931 0.9332 0.0 0
M  V30 6 C 2.5516 -0.3307 0.0 0
M  V30 7 C 3.7212 -1.2404 0.0 0
M  V30 8 C 2.7525 1.1695 0.0 0
M  V30 9 C 5.1033 -0.6615 0.0 0
M  V30 10 C 4.1346 1.7483 0.0 0
M  V30 11 C 6.2728 -1.5711 0.0 0
M  V30 12 C 5.3041 0.8387 0.0 0
M  V30 13 C 6.2138 -3.0596 0.0 0
M  V30 14 C 7.7023 -1.1458 0.0 0
M  V30 15 N 5.0561 -4.0165 0.0 0
M  V30 16 C 7.6078 -3.5558 0.0 0
M  V30 17 S 8.5292 -2.3744 0.0 0
M  V30 18 C 5.3041 -5.4814 0.0 0
M  V30 19 C 7.8558 -5.0206 0.0 0
M  V30 20 N 6.6981 -5.9775 0.0 0
M  V30 21 N 4.1464 -6.4382 0.0 0
M  V30 22 C 2.7288 -5.9184 0.0 0
M  V30 23 C 1.5711 -6.8753 0.0 0
M  V30 24 C 2.4571 -4.43 0.0 0
M  V30 25 C 0.1535 -6.3555 0.0 0
M  V30 26 C 1.0395 -3.9102 0.0 0
M  V30 27 C -0.1181 -4.8671 0.0 0
M  V30 28 N -1.5357 -4.3473 0.0 0
M  V30 29 C -1.8074 -2.8588 0.0 0
M  V30 30 C -2.6934 -5.3041 0.0 0
M  V30 31 C -3.225 -2.339 0.0 0
M  V30 32 C -4.111 -4.7844 0.0 0
M  V30 33 N -4.3827 -3.2959 0.0 0
M  V30 34 C -5.8003 -2.7761 0.0 0
M  V30 35 C -6.072 -1.2876 0.0 0
M  V30 END ATOM
M  V30 BEGIN BOND
M  V30 1 2 1 2
M  V30 2 2 1 3
M  V30 3 1 1 4
M  V30 4 1 1 5
M  V30 5 1 4 6
M  V30 6 2 6 7
M  V30 7 1 6 8
M  V30 8 1 7 9
M  V30 9 2 8 10
M  V30 10 1 9 11
M  V30 11 2 9 12
M  V30 12 1 11 13
M  V30 13 2 11 14
M  V30 14 2 13 15
M  V30 15 1 13 16
M  V30 16 1 14 17
M  V30 17 1 15 18
M  V30 18 2 16 19
M  V30 19 2 18 20
M  V30 20 1 18 21
M  V30 21 1 21 22
M  V30 22 2 22 23
M  V30 23 1 22 24
M  V30 24 1 23 25
M  V30 25 2 24 26
M  V30 26 2 25 27
M  V30 27 1 27 28
M  V30 28 1 28 29
M  V30 29 1 28 30
M  V30 30 1 29 31
M  V30 31 1 30 32
M  V30 32 1 31 33
M  V30 33 1 33 34
M  V30 34 1 34 35
M  V30 35 1 10 12
M  V30 36 1 16 17
M  V30 37 1 19 20
M  V30 38 1 26 27
M  V30 39 1 32 33
M  V30 END BOND
M  V30 END CTAB
M  END
>  <Compound ID>
210

>  <Name>


>  <Uniprot>
Q00534

>  <Target>
CDK6

>  <Smiles>
CCN1CCN(C2=CC=C(NC3=NC=C4SC=C(C5=CC=CC(NS(C)(=O)=O)=C5)C4=N3)C=C2)CC1

>  <Kd (nM)>


>  <Assay (Kd)>


>  <Ki (nM)>


>  <Assay (Ki)>


>  <IC50 (nM)>


>  <Assay (IC50)>


>  <EC50 (nM)>


>  <Assay (EC50)>


>  <Article DOI>
10.1016/j.cell.2020.10.038

>  <Molecular Weight>
508.673

>  <Exact Mass>
508.171516136

>  <XLogP3>
4.08

>  <Heavy Atom Count>
35

>  <Ring Count>
5

>  <Hydrogen Bond Acceptor Count>
8

>  <Hydrogen Bond Donor Count>
2

>  <Rotatable Bond Count>
7

>  <Topological Polar Surface Area>
90.46

>  <Molecular Formula>
C25H28N6O2S2

>  <InChI>
InChI=1S/C25H28N6O2S2/c1-3-30-11-13-31(14-12-30)21-9-7-19(8-10-21)27-25-26-16-23-24(28-25)22(17-34-23)18-5-4-6-20(15-18)29-35(2,32)33/h4-10,15-17,29H,3,11-14H2,1-2H3,(H,26,27,28)

>  <InChI Key>
MQMVBXQAIMTOTQ-UHFFFAOYSA-N

>  <BindingDB>


>  <PubChem>
90466261

>  <ChEMBL>


$$$$
Compound 661
Actelion Java MolfileCreator 2.0

  0  0  0  0  0  0              0 V3000
M  V30 BEGIN CTAB
M  V30 COUNTS 35 39 0 0 0
M  V30 BEGIN ATOM
M  V30 1 S 0.0 0.0 0.0 0
M  V30 2 O 0.9096 1.1931 0.0 0
M  V30 3 O -0.9332 -1.1695 0.0 0
M  V30 4 N 1.1695 -0.9096 0.0 0
M  V30 5 C -1.1931 0.9332 0.0 0
M  V30 6 C 2.5516 -0.3307 0.0 0
M  V30 7 C 3.7212 -1.2404 0.0 0
M  V30 8 C 2.7525 1.1695 0.0 0
M  V30 9 C 5.1033 -0.6615 0.0 0
M  V30 10 C 4.1346 1.7483 0.0 0
M  V30 11 C 6.2728 -1.5711 0.0 0
M  V30 12 C 5.3041 0.8387 0.0 0
M  V30 13 C 6.2138 -3.0596 0.0 0
M  V30 14 C 7.7023 -1.1458 0.0 0
M  V30 15 N 5.0561 -4.0165 0.0 0
M  V30 16 C 7.6078 -3.5558 0.0 0
M  V30 17 S 8.5292 -2.3744 0.0 0
M  V30 18 C 5.3041 -5.4814 0.0 0
M  V30 19 C 7.8558 -5.0206 0.0 0
M  V30 20 N 6.6981 -5.9775 0.0 0
M  V30 21 N 4.1464 -6.4382 0.0 0
M  V30 22 C 2.7288 -5.9184 0.0 0
M  V30 23 C 1.5711 -6.8753 0.0 0
M  V30 24 C 2.4571 -4.43 0.0 0
M  V30 25 C 0.1535 -6.3555 0.0 0
M  V30 26 C 1.0395 -3.9102 0.0 0
M  V30 27 C -0.1181 -4.8671 0.0 0
M  V30 28 N -1.5357 -4.3473 0.0 0
M  V30 29 C -1.8074 -2.8588 0.0 0
M  V30 30 C -2.6934 -5.3041 0.0 0
M  V30 31 C -3.225 -2.339 0.0 0
M  V30 32 C -4.111 -4.7844 0.0 0
M  V30 33 N -4.3827 -3.2959 0.0 0
M  V30 34 C -5.8003 -2.7761 0.0 0
M  V30 35 C -6.072 -1.2876 0.0 0
M  V30 END ATOM
M  V30 BEGIN BOND
M  V30 1 2 1 2
M  V30 2 2 1 3
M  V30 3 1 1 4
M  V30 4 1 1 5
M  V30 5 1 4 6
M  V30 6 2 6 7
M  V30 7 1 6 8
M  V30 8 1 7 9
M  V30 9 2 8 10
M  V30 10 1 9 11
M  V30 11 2 9 12
M  V30 12 1 11 13
M  V30 13 2 11 14
M  V30 14 2 13 15
M  V30 15 1 13 16
M  V30 16 1 14 17
M  V30 17 1 15 18
M  V30 18 2 16 19
M  V30 19 2 18 20
M  V30 20 1 18 21
M  V30 21 1 21 22
M  V30 22 2 22 23
M  V30 23 1 22 24
M  V30 24 1 23 25
M  V30 25 2 24 26
M  V30 26 2 25 27
M  V30 27 1 27 28
M  V30 28 1 28 29
M  V30 29 1 28 30
M  V30 30 1 29 31
M  V30 31 1 30 32
M  V30 32 1 31 33
M  V30 33 1 33 34
M  V30 34 1 34 35
M  V30 35 1 10 12
M  V30 36 1 16 17
M  V30 37 1 19 20
M  V30 38 1 26 27
M  V30 39 1 32 33
M  V30 END BOND
M  V30 END CTAB
M  END
>  <Compound ID>
210

>  <Name>


>  <Uniprot>
P50613

>  <Target>
CDK7

>  <Smiles>
CCN1CCN(C2=CC=C(NC3=NC=C4SC=C(C5=CC=CC(NS(C)(=O)=O)=C5)C4=N3)C=C2)CC1

>  <Kd (nM)>


>  <Assay (Kd)>


>  <Ki (nM)>


>  <Assay (Ki)>


>  <IC50 (nM)>


>  <Assay (IC50)>


>  <EC50 (nM)>


>  <Assay (EC50)>


>  <Article DOI>
10.1016/j.cell.2020.10.038

>  <Molecular Weight>
508.673

>  <Exact Mass>
508.171516136

>  <XLogP3>
4.08

>  <Heavy Atom Count>
35

>  <Ring Count>
5

>  <Hydrogen Bond Acceptor Count>
8

>  <Hydrogen Bond Donor Count>
2

>  <Rotatable Bond Count>
7

>  <Topological Polar Surface Area>
90.46

>  <Molecular Formula>
C25H28N6O2S2

>  <InChI>
InChI=1S/C25H28N6O2S2/c1-3-30-11-13-31(14-12-30)21-9-7-19(8-10-21)27-25-26-16-23-24(28-25)22(17-34-23)18-5-4-6-20(15-18)29-35(2,32)33/h4-10,15-17,29H,3,11-14H2,1-2H3,(H,26,27,28)

>  <InChI Key>
MQMVBXQAIMTOTQ-UHFFFAOYSA-N

>  <BindingDB>


>  <PubChem>
90466261

>  <ChEMBL>


$$$$
Compound 662
Actelion Java MolfileCreator 2.0

  0  0  0  0  0  0              0 V3000
M  V30 BEGIN CTAB
M  V30 COUNTS 35 39 0 0 0
M  V30 BEGIN ATOM
M  V30 1 S 0.0 0.0 0.0 0
M  V30 2 O 0.9096 1.1931 0.0 0
M  V30 3 O -0.9332 -1.1695 0.0 0
M  V30 4 N 1.1695 -0.9096 0.0 0
M  V30 5 C -1.1931 0.9332 0.0 0
M  V30 6 C 2.5516 -0.3307 0.0 0
M  V30 7 C 3.7212 -1.2404 0.0 0
M  V30 8 C 2.7525 1.1695 0.0 0
M  V30 9 C 5.1033 -0.6615 0.0 0
M  V30 10 C 4.1346 1.7483 0.0 0
M  V30 11 C 6.2728 -1.5711 0.0 0
M  V30 12 C 5.3041 0.8387 0.0 0
M  V30 13 C 6.2138 -3.0596 0.0 0
M  V30 14 C 7.7023 -1.1458 0.0 0
M  V30 15 N 5.0561 -4.0165 0.0 0
M  V30 16 C 7.6078 -3.5558 0.0 0
M  V30 17 S 8.5292 -2.3744 0.0 0
M  V30 18 C 5.3041 -5.4814 0.0 0
M  V30 19 C 7.8558 -5.0206 0.0 0
M  V30 20 N 6.6981 -5.9775 0.0 0
M  V30 21 N 4.1464 -6.4382 0.0 0
M  V30 22 C 2.7288 -5.9184 0.0 0
M  V30 23 C 1.5711 -6.8753 0.0 0
M  V30 24 C 2.4571 -4.43 0.0 0
M  V30 25 C 0.1535 -6.3555 0.0 0
M  V30 26 C 1.0395 -3.9102 0.0 0
M  V30 27 C -0.1181 -4.8671 0.0 0
M  V30 28 N -1.5357 -4.3473 0.0 0
M  V30 29 C -1.8074 -2.8588 0.0 0
M  V30 30 C -2.6934 -5.3041 0.0 0
M  V30 31 C -3.225 -2.339 0.0 0
M  V30 32 C -4.111 -4.7844 0.0 0
M  V30 33 N -4.3827 -3.2959 0.0 0
M  V30 34 C -5.8003 -2.7761 0.0 0
M  V30 35 C -6.072 -1.2876 0.0 0
M  V30 END ATOM
M  V30 BEGIN BOND
M  V30 1 2 1 2
M  V30 2 2 1 3
M  V30 3 1 1 4
M  V30 4 1 1 5
M  V30 5 1 4 6
M  V30 6 2 6 7
M  V30 7 1 6 8
M  V30 8 1 7 9
M  V30 9 2 8 10
M  V30 10 1 9 11
M  V30 11 2 9 12
M  V30 12 1 11 13
M  V30 13 2 11 14
M  V30 14 2 13 15
M  V30 15 1 13 16
M  V30 16 1 14 17
M  V30 17 1 15 18
M  V30 18 2 16 19
M  V30 19 2 18 20
M  V30 20 1 18 21
M  V30 21 1 21 22
M  V30 22 2 22 23
M  V30 23 1 22 24
M  V30 24 1 23 25
M  V30 25 2 24 26
M  V30 26 2 25 27
M  V30 27 1 27 28
M  V30 28 1 28 29
M  V30 29 1 28 30
M  V30 30 1 29 31
M  V30 31 1 30 32
M  V30 32 1 31 33
M  V30 33 1 33 34
M  V30 34 1 34 35
M  V30 35 1 10 12
M  V30 36 1 16 17
M  V30 37 1 19 20
M  V30 38 1 26 27
M  V30 39 1 32 33
M  V30 END BOND
M  V30 END CTAB
M  END
>  <Compound ID>
210

>  <Name>


>  <Uniprot>
P19525

>  <Target>
EIF2AK2

>  <Smiles>
CCN1CCN(C2=CC=C(NC3=NC=C4SC=C(C5=CC=CC(NS(C)(=O)=O)=C5)C4=N3)C=C2)CC1

>  <Kd (nM)>


>  <Assay (Kd)>


>  <Ki (nM)>


>  <Assay (Ki)>


>  <IC50 (nM)>


>  <Assay (IC50)>


>  <EC50 (nM)>


>  <Assay (EC50)>


>  <Article DOI>
10.1016/j.cell.2020.10.038

>  <Molecular Weight>
508.673

>  <Exact Mass>
508.171516136

>  <XLogP3>
4.08

>  <Heavy Atom Count>
35

>  <Ring Count>
5

>  <Hydrogen Bond Acceptor Count>
8

>  <Hydrogen Bond Donor Count>
2

>  <Rotatable Bond Count>
7

>  <Topological Polar Surface Area>
90.46

>  <Molecular Formula>
C25H28N6O2S2

>  <InChI>
InChI=1S/C25H28N6O2S2/c1-3-30-11-13-31(14-12-30)21-9-7-19(8-10-21)27-25-26-16-23-24(28-25)22(17-34-23)18-5-4-6-20(15-18)29-35(2,32)33/h4-10,15-17,29H,3,11-14H2,1-2H3,(H,26,27,28)

>  <InChI Key>
MQMVBXQAIMTOTQ-UHFFFAOYSA-N

>  <BindingDB>


>  <PubChem>
90466261

>  <ChEMBL>


$$$$
Compound 663
Actelion Java MolfileCreator 2.0

  0  0  0  0  0  0              0 V3000
M  V30 BEGIN CTAB
M  V30 COUNTS 35 39 0 0 0
M  V30 BEGIN ATOM
M  V30 1 S 0.0 0.0 0.0 0
M  V30 2 O 0.9096 1.1931 0.0 0
M  V30 3 O -0.9332 -1.1695 0.0 0
M  V30 4 N 1.1695 -0.9096 0.0 0
M  V30 5 C -1.1931 0.9332 0.0 0
M  V30 6 C 2.5516 -0.3307 0.0 0
M  V30 7 C 3.7212 -1.2404 0.0 0
M  V30 8 C 2.7525 1.1695 0.0 0
M  V30 9 C 5.1033 -0.6615 0.0 0
M  V30 10 C 4.1346 1.7483 0.0 0
M  V30 11 C 6.2728 -1.5711 0.0 0
M  V30 12 C 5.3041 0.8387 0.0 0
M  V30 13 C 6.2138 -3.0596 0.0 0
M  V30 14 C 7.7023 -1.1458 0.0 0
M  V30 15 N 5.0561 -4.0165 0.0 0
M  V30 16 C 7.6078 -3.5558 0.0 0
M  V30 17 S 8.5292 -2.3744 0.0 0
M  V30 18 C 5.3041 -5.4814 0.0 0
M  V30 19 C 7.8558 -5.0206 0.0 0
M  V30 20 N 6.6981 -5.9775 0.0 0
M  V30 21 N 4.1464 -6.4382 0.0 0
M  V30 22 C 2.7288 -5.9184 0.0 0
M  V30 23 C 1.5711 -6.8753 0.0 0
M  V30 24 C 2.4571 -4.43 0.0 0
M  V30 25 C 0.1535 -6.3555 0.0 0
M  V30 26 C 1.0395 -3.9102 0.0 0
M  V30 27 C -0.1181 -4.8671 0.0 0
M  V30 28 N -1.5357 -4.3473 0.0 0
M  V30 29 C -1.8074 -2.8588 0.0 0
M  V30 30 C -2.6934 -5.3041 0.0 0
M  V30 31 C -3.225 -2.339 0.0 0
M  V30 32 C -4.111 -4.7844 0.0 0
M  V30 33 N -4.3827 -3.2959 0.0 0
M  V30 34 C -5.8003 -2.7761 0.0 0
M  V30 35 C -6.072 -1.2876 0.0 0
M  V30 END ATOM
M  V30 BEGIN BOND
M  V30 1 2 1 2
M  V30 2 2 1 3
M  V30 3 1 1 4
M  V30 4 1 1 5
M  V30 5 1 4 6
M  V30 6 2 6 7
M  V30 7 1 6 8
M  V30 8 1 7 9
M  V30 9 2 8 10
M  V30 10 1 9 11
M  V30 11 2 9 12
M  V30 12 1 11 13
M  V30 13 2 11 14
M  V30 14 2 13 15
M  V30 15 1 13 16
M  V30 16 1 14 17
M  V30 17 1 15 18
M  V30 18 2 16 19
M  V30 19 2 18 20
M  V30 20 1 18 21
M  V30 21 1 21 22
M  V30 22 2 22 23
M  V30 23 1 22 24
M  V30 24 1 23 25
M  V30 25 2 24 26
M  V30 26 2 25 27
M  V30 27 1 27 28
M  V30 28 1 28 29
M  V30 29 1 28 30
M  V30 30 1 29 31
M  V30 31 1 30 32
M  V30 32 1 31 33
M  V30 33 1 33 34
M  V30 34 1 34 35
M  V30 35 1 10 12
M  V30 36 1 16 17
M  V30 37 1 19 20
M  V30 38 1 26 27
M  V30 39 1 32 33
M  V30 END BOND
M  V30 END CTAB
M  END
>  <Compound ID>
210

>  <Name>


>  <Uniprot>
Q9P2K8

>  <Target>
EIF2AK4

>  <Smiles>
CCN1CCN(C2=CC=C(NC3=NC=C4SC=C(C5=CC=CC(NS(C)(=O)=O)=C5)C4=N3)C=C2)CC1

>  <Kd (nM)>


>  <Assay (Kd)>


>  <Ki (nM)>


>  <Assay (Ki)>


>  <IC50 (nM)>


>  <Assay (IC50)>


>  <EC50 (nM)>


>  <Assay (EC50)>


>  <Article DOI>
10.1016/j.cell.2020.10.038

>  <Molecular Weight>
508.673

>  <Exact Mass>
508.171516136

>  <XLogP3>
4.08

>  <Heavy Atom Count>
35

>  <Ring Count>
5

>  <Hydrogen Bond Acceptor Count>
8

>  <Hydrogen Bond Donor Count>
2

>  <Rotatable Bond Count>
7

>  <Topological Polar Surface Area>
90.46

>  <Molecular Formula>
C25H28N6O2S2

>  <InChI>
InChI=1S/C25H28N6O2S2/c1-3-30-11-13-31(14-12-30)21-9-7-19(8-10-21)27-25-26-16-23-24(28-25)22(17-34-23)18-5-4-6-20(15-18)29-35(2,32)33/h4-10,15-17,29H,3,11-14H2,1-2H3,(H,26,27,28)

>  <InChI Key>
MQMVBXQAIMTOTQ-UHFFFAOYSA-N

>  <BindingDB>


>  <PubChem>
90466261

>  <ChEMBL>


$$$$
Compound 664
Actelion Java MolfileCreator 2.0

  0  0  0  0  0  0              0 V3000
M  V30 BEGIN CTAB
M  V30 COUNTS 35 39 0 0 0
M  V30 BEGIN ATOM
M  V30 1 S 0.0 0.0 0.0 0
M  V30 2 O 0.9096 1.1931 0.0 0
M  V30 3 O -0.9332 -1.1695 0.0 0
M  V30 4 N 1.1695 -0.9096 0.0 0
M  V30 5 C -1.1931 0.9332 0.0 0
M  V30 6 C 2.5516 -0.3307 0.0 0
M  V30 7 C 3.7212 -1.2404 0.0 0
M  V30 8 C 2.7525 1.1695 0.0 0
M  V30 9 C 5.1033 -0.6615 0.0 0
M  V30 10 C 4.1346 1.7483 0.0 0
M  V30 11 C 6.2728 -1.5711 0.0 0
M  V30 12 C 5.3041 0.8387 0.0 0
M  V30 13 C 6.2138 -3.0596 0.0 0
M  V30 14 C 7.7023 -1.1458 0.0 0
M  V30 15 N 5.0561 -4.0165 0.0 0
M  V30 16 C 7.6078 -3.5558 0.0 0
M  V30 17 S 8.5292 -2.3744 0.0 0
M  V30 18 C 5.3041 -5.4814 0.0 0
M  V30 19 C 7.8558 -5.0206 0.0 0
M  V30 20 N 6.6981 -5.9775 0.0 0
M  V30 21 N 4.1464 -6.4382 0.0 0
M  V30 22 C 2.7288 -5.9184 0.0 0
M  V30 23 C 1.5711 -6.8753 0.0 0
M  V30 24 C 2.4571 -4.43 0.0 0
M  V30 25 C 0.1535 -6.3555 0.0 0
M  V30 26 C 1.0395 -3.9102 0.0 0
M  V30 27 C -0.1181 -4.8671 0.0 0
M  V30 28 N -1.5357 -4.3473 0.0 0
M  V30 29 C -1.8074 -2.8588 0.0 0
M  V30 30 C -2.6934 -5.3041 0.0 0
M  V30 31 C -3.225 -2.339 0.0 0
M  V30 32 C -4.111 -4.7844 0.0 0
M  V30 33 N -4.3827 -3.2959 0.0 0
M  V30 34 C -5.8003 -2.7761 0.0 0
M  V30 35 C -6.072 -1.2876 0.0 0
M  V30 END ATOM
M  V30 BEGIN BOND
M  V30 1 2 1 2
M  V30 2 2 1 3
M  V30 3 1 1 4
M  V30 4 1 1 5
M  V30 5 1 4 6
M  V30 6 2 6 7
M  V30 7 1 6 8
M  V30 8 1 7 9
M  V30 9 2 8 10
M  V30 10 1 9 11
M  V30 11 2 9 12
M  V30 12 1 11 13
M  V30 13 2 11 14
M  V30 14 2 13 15
M  V30 15 1 13 16
M  V30 16 1 14 17
M  V30 17 1 15 18
M  V30 18 2 16 19
M  V30 19 2 18 20
M  V30 20 1 18 21
M  V30 21 1 21 22
M  V30 22 2 22 23
M  V30 23 1 22 24
M  V30 24 1 23 25
M  V30 25 2 24 26
M  V30 26 2 25 27
M  V30 27 1 27 28
M  V30 28 1 28 29
M  V30 29 1 28 30
M  V30 30 1 29 31
M  V30 31 1 30 32
M  V30 32 1 31 33
M  V30 33 1 33 34
M  V30 34 1 34 35
M  V30 35 1 10 12
M  V30 36 1 16 17
M  V30 37 1 19 20
M  V30 38 1 26 27
M  V30 39 1 32 33
M  V30 END BOND
M  V30 END CTAB
M  END
>  <Compound ID>
210

>  <Name>


>  <Uniprot>
P16591

>  <Target>
FER

>  <Smiles>
CCN1CCN(C2=CC=C(NC3=NC=C4SC=C(C5=CC=CC(NS(C)(=O)=O)=C5)C4=N3)C=C2)CC1

>  <Kd (nM)>


>  <Assay (Kd)>


>  <Ki (nM)>


>  <Assay (Ki)>


>  <IC50 (nM)>


>  <Assay (IC50)>


>  <EC50 (nM)>


>  <Assay (EC50)>


>  <Article DOI>
10.1016/j.cell.2020.10.038

>  <Molecular Weight>
508.673

>  <Exact Mass>
508.171516136

>  <XLogP3>
4.08

>  <Heavy Atom Count>
35

>  <Ring Count>
5

>  <Hydrogen Bond Acceptor Count>
8

>  <Hydrogen Bond Donor Count>
2

>  <Rotatable Bond Count>
7

>  <Topological Polar Surface Area>
90.46

>  <Molecular Formula>
C25H28N6O2S2

>  <InChI>
InChI=1S/C25H28N6O2S2/c1-3-30-11-13-31(14-12-30)21-9-7-19(8-10-21)27-25-26-16-23-24(28-25)22(17-34-23)18-5-4-6-20(15-18)29-35(2,32)33/h4-10,15-17,29H,3,11-14H2,1-2H3,(H,26,27,28)

>  <InChI Key>
MQMVBXQAIMTOTQ-UHFFFAOYSA-N

>  <BindingDB>


>  <PubChem>
90466261

>  <ChEMBL>


$$$$
Compound 665
Actelion Java MolfileCreator 2.0

  0  0  0  0  0  0              0 V3000
M  V30 BEGIN CTAB
M  V30 COUNTS 35 39 0 0 0
M  V30 BEGIN ATOM
M  V30 1 S 0.0 0.0 0.0 0
M  V30 2 O 0.9096 1.1931 0.0 0
M  V30 3 O -0.9332 -1.1695 0.0 0
M  V30 4 N 1.1695 -0.9096 0.0 0
M  V30 5 C -1.1931 0.9332 0.0 0
M  V30 6 C 2.5516 -0.3307 0.0 0
M  V30 7 C 3.7212 -1.2404 0.0 0
M  V30 8 C 2.7525 1.1695 0.0 0
M  V30 9 C 5.1033 -0.6615 0.0 0
M  V30 10 C 4.1346 1.7483 0.0 0
M  V30 11 C 6.2728 -1.5711 0.0 0
M  V30 12 C 5.3041 0.8387 0.0 0
M  V30 13 C 6.2138 -3.0596 0.0 0
M  V30 14 C 7.7023 -1.1458 0.0 0
M  V30 15 N 5.0561 -4.0165 0.0 0
M  V30 16 C 7.6078 -3.5558 0.0 0
M  V30 17 S 8.5292 -2.3744 0.0 0
M  V30 18 C 5.3041 -5.4814 0.0 0
M  V30 19 C 7.8558 -5.0206 0.0 0
M  V30 20 N 6.6981 -5.9775 0.0 0
M  V30 21 N 4.1464 -6.4382 0.0 0
M  V30 22 C 2.7288 -5.9184 0.0 0
M  V30 23 C 1.5711 -6.8753 0.0 0
M  V30 24 C 2.4571 -4.43 0.0 0
M  V30 25 C 0.1535 -6.3555 0.0 0
M  V30 26 C 1.0395 -3.9102 0.0 0
M  V30 27 C -0.1181 -4.8671 0.0 0
M  V30 28 N -1.5357 -4.3473 0.0 0
M  V30 29 C -1.8074 -2.8588 0.0 0
M  V30 30 C -2.6934 -5.3041 0.0 0
M  V30 31 C -3.225 -2.339 0.0 0
M  V30 32 C -4.111 -4.7844 0.0 0
M  V30 33 N -4.3827 -3.2959 0.0 0
M  V30 34 C -5.8003 -2.7761 0.0 0
M  V30 35 C -6.072 -1.2876 0.0 0
M  V30 END ATOM
M  V30 BEGIN BOND
M  V30 1 2 1 2
M  V30 2 2 1 3
M  V30 3 1 1 4
M  V30 4 1 1 5
M  V30 5 1 4 6
M  V30 6 2 6 7
M  V30 7 1 6 8
M  V30 8 1 7 9
M  V30 9 2 8 10
M  V30 10 1 9 11
M  V30 11 2 9 12
M  V30 12 1 11 13
M  V30 13 2 11 14
M  V30 14 2 13 15
M  V30 15 1 13 16
M  V30 16 1 14 17
M  V30 17 1 15 18
M  V30 18 2 16 19
M  V30 19 2 18 20
M  V30 20 1 18 21
M  V30 21 1 21 22
M  V30 22 2 22 23
M  V30 23 1 22 24
M  V30 24 1 23 25
M  V30 25 2 24 26
M  V30 26 2 25 27
M  V30 27 1 27 28
M  V30 28 1 28 29
M  V30 29 1 28 30
M  V30 30 1 29 31
M  V30 31 1 30 32
M  V30 32 1 31 33
M  V30 33 1 33 34
M  V30 34 1 34 35
M  V30 35 1 10 12
M  V30 36 1 16 17
M  V30 37 1 19 20
M  V30 38 1 26 27
M  V30 39 1 32 33
M  V30 END BOND
M  V30 END CTAB
M  END
>  <Compound ID>
210

>  <Name>


>  <Uniprot>
O14976

>  <Target>
GAK

>  <Smiles>
CCN1CCN(C2=CC=C(NC3=NC=C4SC=C(C5=CC=CC(NS(C)(=O)=O)=C5)C4=N3)C=C2)CC1

>  <Kd (nM)>


>  <Assay (Kd)>


>  <Ki (nM)>


>  <Assay (Ki)>


>  <IC50 (nM)>


>  <Assay (IC50)>


>  <EC50 (nM)>


>  <Assay (EC50)>


>  <Article DOI>
10.1016/j.cell.2020.10.038

>  <Molecular Weight>
508.673

>  <Exact Mass>
508.171516136

>  <XLogP3>
4.08

>  <Heavy Atom Count>
35

>  <Ring Count>
5

>  <Hydrogen Bond Acceptor Count>
8

>  <Hydrogen Bond Donor Count>
2

>  <Rotatable Bond Count>
7

>  <Topological Polar Surface Area>
90.46

>  <Molecular Formula>
C25H28N6O2S2

>  <InChI>
InChI=1S/C25H28N6O2S2/c1-3-30-11-13-31(14-12-30)21-9-7-19(8-10-21)27-25-26-16-23-24(28-25)22(17-34-23)18-5-4-6-20(15-18)29-35(2,32)33/h4-10,15-17,29H,3,11-14H2,1-2H3,(H,26,27,28)

>  <InChI Key>
MQMVBXQAIMTOTQ-UHFFFAOYSA-N

>  <BindingDB>


>  <PubChem>
90466261

>  <ChEMBL>


$$$$
Compound 666
Actelion Java MolfileCreator 2.0

  0  0  0  0  0  0              0 V3000
M  V30 BEGIN CTAB
M  V30 COUNTS 35 39 0 0 0
M  V30 BEGIN ATOM
M  V30 1 S 0.0 0.0 0.0 0
M  V30 2 O 0.9096 1.1931 0.0 0
M  V30 3 O -0.9332 -1.1695 0.0 0
M  V30 4 N 1.1695 -0.9096 0.0 0
M  V30 5 C -1.1931 0.9332 0.0 0
M  V30 6 C 2.5516 -0.3307 0.0 0
M  V30 7 C 3.7212 -1.2404 0.0 0
M  V30 8 C 2.7525 1.1695 0.0 0
M  V30 9 C 5.1033 -0.6615 0.0 0
M  V30 10 C 4.1346 1.7483 0.0 0
M  V30 11 C 6.2728 -1.5711 0.0 0
M  V30 12 C 5.3041 0.8387 0.0 0
M  V30 13 C 6.2138 -3.0596 0.0 0
M  V30 14 C 7.7023 -1.1458 0.0 0
M  V30 15 N 5.0561 -4.0165 0.0 0
M  V30 16 C 7.6078 -3.5558 0.0 0
M  V30 17 S 8.5292 -2.3744 0.0 0
M  V30 18 C 5.3041 -5.4814 0.0 0
M  V30 19 C 7.8558 -5.0206 0.0 0
M  V30 20 N 6.6981 -5.9775 0.0 0
M  V30 21 N 4.1464 -6.4382 0.0 0
M  V30 22 C 2.7288 -5.9184 0.0 0
M  V30 23 C 1.5711 -6.8753 0.0 0
M  V30 24 C 2.4571 -4.43 0.0 0
M  V30 25 C 0.1535 -6.3555 0.0 0
M  V30 26 C 1.0395 -3.9102 0.0 0
M  V30 27 C -0.1181 -4.8671 0.0 0
M  V30 28 N -1.5357 -4.3473 0.0 0
M  V30 29 C -1.8074 -2.8588 0.0 0
M  V30 30 C -2.6934 -5.3041 0.0 0
M  V30 31 C -3.225 -2.339 0.0 0
M  V30 32 C -4.111 -4.7844 0.0 0
M  V30 33 N -4.3827 -3.2959 0.0 0
M  V30 34 C -5.8003 -2.7761 0.0 0
M  V30 35 C -6.072 -1.2876 0.0 0
M  V30 END ATOM
M  V30 BEGIN BOND
M  V30 1 2 1 2
M  V30 2 2 1 3
M  V30 3 1 1 4
M  V30 4 1 1 5
M  V30 5 1 4 6
M  V30 6 2 6 7
M  V30 7 1 6 8
M  V30 8 1 7 9
M  V30 9 2 8 10
M  V30 10 1 9 11
M  V30 11 2 9 12
M  V30 12 1 11 13
M  V30 13 2 11 14
M  V30 14 2 13 15
M  V30 15 1 13 16
M  V30 16 1 14 17
M  V30 17 1 15 18
M  V30 18 2 16 19
M  V30 19 2 18 20
M  V30 20 1 18 21
M  V30 21 1 21 22
M  V30 22 2 22 23
M  V30 23 1 22 24
M  V30 24 1 23 25
M  V30 25 2 24 26
M  V30 26 2 25 27
M  V30 27 1 27 28
M  V30 28 1 28 29
M  V30 29 1 28 30
M  V30 30 1 29 31
M  V30 31 1 30 32
M  V30 32 1 31 33
M  V30 33 1 33 34
M  V30 34 1 34 35
M  V30 35 1 10 12
M  V30 36 1 16 17
M  V30 37 1 19 20
M  V30 38 1 26 27
M  V30 39 1 32 33
M  V30 END BOND
M  V30 END CTAB
M  END
>  <Compound ID>
210

>  <Name>


>  <Uniprot>
O95835

>  <Target>
LATS1

>  <Smiles>
CCN1CCN(C2=CC=C(NC3=NC=C4SC=C(C5=CC=CC(NS(C)(=O)=O)=C5)C4=N3)C=C2)CC1

>  <Kd (nM)>


>  <Assay (Kd)>


>  <Ki (nM)>


>  <Assay (Ki)>


>  <IC50 (nM)>


>  <Assay (IC50)>


>  <EC50 (nM)>


>  <Assay (EC50)>


>  <Article DOI>
10.1016/j.cell.2020.10.038

>  <Molecular Weight>
508.673

>  <Exact Mass>
508.171516136

>  <XLogP3>
4.08

>  <Heavy Atom Count>
35

>  <Ring Count>
5

>  <Hydrogen Bond Acceptor Count>
8

>  <Hydrogen Bond Donor Count>
2

>  <Rotatable Bond Count>
7

>  <Topological Polar Surface Area>
90.46

>  <Molecular Formula>
C25H28N6O2S2

>  <InChI>
InChI=1S/C25H28N6O2S2/c1-3-30-11-13-31(14-12-30)21-9-7-19(8-10-21)27-25-26-16-23-24(28-25)22(17-34-23)18-5-4-6-20(15-18)29-35(2,32)33/h4-10,15-17,29H,3,11-14H2,1-2H3,(H,26,27,28)

>  <InChI Key>
MQMVBXQAIMTOTQ-UHFFFAOYSA-N

>  <BindingDB>


>  <PubChem>
90466261

>  <ChEMBL>


$$$$
Compound 667
Actelion Java MolfileCreator 2.0

  0  0  0  0  0  0              0 V3000
M  V30 BEGIN CTAB
M  V30 COUNTS 35 39 0 0 0
M  V30 BEGIN ATOM
M  V30 1 S 0.0 0.0 0.0 0
M  V30 2 O 0.9096 1.1931 0.0 0
M  V30 3 O -0.9332 -1.1695 0.0 0
M  V30 4 N 1.1695 -0.9096 0.0 0
M  V30 5 C -1.1931 0.9332 0.0 0
M  V30 6 C 2.5516 -0.3307 0.0 0
M  V30 7 C 3.7212 -1.2404 0.0 0
M  V30 8 C 2.7525 1.1695 0.0 0
M  V30 9 C 5.1033 -0.6615 0.0 0
M  V30 10 C 4.1346 1.7483 0.0 0
M  V30 11 C 6.2728 -1.5711 0.0 0
M  V30 12 C 5.3041 0.8387 0.0 0
M  V30 13 C 6.2138 -3.0596 0.0 0
M  V30 14 C 7.7023 -1.1458 0.0 0
M  V30 15 N 5.0561 -4.0165 0.0 0
M  V30 16 C 7.6078 -3.5558 0.0 0
M  V30 17 S 8.5292 -2.3744 0.0 0
M  V30 18 C 5.3041 -5.4814 0.0 0
M  V30 19 C 7.8558 -5.0206 0.0 0
M  V30 20 N 6.6981 -5.9775 0.0 0
M  V30 21 N 4.1464 -6.4382 0.0 0
M  V30 22 C 2.7288 -5.9184 0.0 0
M  V30 23 C 1.5711 -6.8753 0.0 0
M  V30 24 C 2.4571 -4.43 0.0 0
M  V30 25 C 0.1535 -6.3555 0.0 0
M  V30 26 C 1.0395 -3.9102 0.0 0
M  V30 27 C -0.1181 -4.8671 0.0 0
M  V30 28 N -1.5357 -4.3473 0.0 0
M  V30 29 C -1.8074 -2.8588 0.0 0
M  V30 30 C -2.6934 -5.3041 0.0 0
M  V30 31 C -3.225 -2.339 0.0 0
M  V30 32 C -4.111 -4.7844 0.0 0
M  V30 33 N -4.3827 -3.2959 0.0 0
M  V30 34 C -5.8003 -2.7761 0.0 0
M  V30 35 C -6.072 -1.2876 0.0 0
M  V30 END ATOM
M  V30 BEGIN BOND
M  V30 1 2 1 2
M  V30 2 2 1 3
M  V30 3 1 1 4
M  V30 4 1 1 5
M  V30 5 1 4 6
M  V30 6 2 6 7
M  V30 7 1 6 8
M  V30 8 1 7 9
M  V30 9 2 8 10
M  V30 10 1 9 11
M  V30 11 2 9 12
M  V30 12 1 11 13
M  V30 13 2 11 14
M  V30 14 2 13 15
M  V30 15 1 13 16
M  V30 16 1 14 17
M  V30 17 1 15 18
M  V30 18 2 16 19
M  V30 19 2 18 20
M  V30 20 1 18 21
M  V30 21 1 21 22
M  V30 22 2 22 23
M  V30 23 1 22 24
M  V30 24 1 23 25
M  V30 25 2 24 26
M  V30 26 2 25 27
M  V30 27 1 27 28
M  V30 28 1 28 29
M  V30 29 1 28 30
M  V30 30 1 29 31
M  V30 31 1 30 32
M  V30 32 1 31 33
M  V30 33 1 33 34
M  V30 34 1 34 35
M  V30 35 1 10 12
M  V30 36 1 16 17
M  V30 37 1 19 20
M  V30 38 1 26 27
M  V30 39 1 32 33
M  V30 END BOND
M  V30 END CTAB
M  END
>  <Compound ID>
210

>  <Name>


>  <Uniprot>
P06239

>  <Target>
LCK

>  <Smiles>
CCN1CCN(C2=CC=C(NC3=NC=C4SC=C(C5=CC=CC(NS(C)(=O)=O)=C5)C4=N3)C=C2)CC1

>  <Kd (nM)>


>  <Assay (Kd)>


>  <Ki (nM)>


>  <Assay (Ki)>


>  <IC50 (nM)>


>  <Assay (IC50)>


>  <EC50 (nM)>


>  <Assay (EC50)>


>  <Article DOI>
10.1016/j.cell.2020.10.038

>  <Molecular Weight>
508.673

>  <Exact Mass>
508.171516136

>  <XLogP3>
4.08

>  <Heavy Atom Count>
35

>  <Ring Count>
5

>  <Hydrogen Bond Acceptor Count>
8

>  <Hydrogen Bond Donor Count>
2

>  <Rotatable Bond Count>
7

>  <Topological Polar Surface Area>
90.46

>  <Molecular Formula>
C25H28N6O2S2

>  <InChI>
InChI=1S/C25H28N6O2S2/c1-3-30-11-13-31(14-12-30)21-9-7-19(8-10-21)27-25-26-16-23-24(28-25)22(17-34-23)18-5-4-6-20(15-18)29-35(2,32)33/h4-10,15-17,29H,3,11-14H2,1-2H3,(H,26,27,28)

>  <InChI Key>
MQMVBXQAIMTOTQ-UHFFFAOYSA-N

>  <BindingDB>


>  <PubChem>
90466261

>  <ChEMBL>


$$$$
Compound 668
Actelion Java MolfileCreator 2.0

  0  0  0  0  0  0              0 V3000
M  V30 BEGIN CTAB
M  V30 COUNTS 35 39 0 0 0
M  V30 BEGIN ATOM
M  V30 1 S 0.0 0.0 0.0 0
M  V30 2 O 0.9096 1.1931 0.0 0
M  V30 3 O -0.9332 -1.1695 0.0 0
M  V30 4 N 1.1695 -0.9096 0.0 0
M  V30 5 C -1.1931 0.9332 0.0 0
M  V30 6 C 2.5516 -0.3307 0.0 0
M  V30 7 C 3.7212 -1.2404 0.0 0
M  V30 8 C 2.7525 1.1695 0.0 0
M  V30 9 C 5.1033 -0.6615 0.0 0
M  V30 10 C 4.1346 1.7483 0.0 0
M  V30 11 C 6.2728 -1.5711 0.0 0
M  V30 12 C 5.3041 0.8387 0.0 0
M  V30 13 C 6.2138 -3.0596 0.0 0
M  V30 14 C 7.7023 -1.1458 0.0 0
M  V30 15 N 5.0561 -4.0165 0.0 0
M  V30 16 C 7.6078 -3.5558 0.0 0
M  V30 17 S 8.5292 -2.3744 0.0 0
M  V30 18 C 5.3041 -5.4814 0.0 0
M  V30 19 C 7.8558 -5.0206 0.0 0
M  V30 20 N 6.6981 -5.9775 0.0 0
M  V30 21 N 4.1464 -6.4382 0.0 0
M  V30 22 C 2.7288 -5.9184 0.0 0
M  V30 23 C 1.5711 -6.8753 0.0 0
M  V30 24 C 2.4571 -4.43 0.0 0
M  V30 25 C 0.1535 -6.3555 0.0 0
M  V30 26 C 1.0395 -3.9102 0.0 0
M  V30 27 C -0.1181 -4.8671 0.0 0
M  V30 28 N -1.5357 -4.3473 0.0 0
M  V30 29 C -1.8074 -2.8588 0.0 0
M  V30 30 C -2.6934 -5.3041 0.0 0
M  V30 31 C -3.225 -2.339 0.0 0
M  V30 32 C -4.111 -4.7844 0.0 0
M  V30 33 N -4.3827 -3.2959 0.0 0
M  V30 34 C -5.8003 -2.7761 0.0 0
M  V30 35 C -6.072 -1.2876 0.0 0
M  V30 END ATOM
M  V30 BEGIN BOND
M  V30 1 2 1 2
M  V30 2 2 1 3
M  V30 3 1 1 4
M  V30 4 1 1 5
M  V30 5 1 4 6
M  V30 6 2 6 7
M  V30 7 1 6 8
M  V30 8 1 7 9
M  V30 9 2 8 10
M  V30 10 1 9 11
M  V30 11 2 9 12
M  V30 12 1 11 13
M  V30 13 2 11 14
M  V30 14 2 13 15
M  V30 15 1 13 16
M  V30 16 1 14 17
M  V30 17 1 15 18
M  V30 18 2 16 19
M  V30 19 2 18 20
M  V30 20 1 18 21
M  V30 21 1 21 22
M  V30 22 2 22 23
M  V30 23 1 22 24
M  V30 24 1 23 25
M  V30 25 2 24 26
M  V30 26 2 25 27
M  V30 27 1 27 28
M  V30 28 1 28 29
M  V30 29 1 28 30
M  V30 30 1 29 31
M  V30 31 1 30 32
M  V30 32 1 31 33
M  V30 33 1 33 34
M  V30 34 1 34 35
M  V30 35 1 10 12
M  V30 36 1 16 17
M  V30 37 1 19 20
M  V30 38 1 26 27
M  V30 39 1 32 33
M  V30 END BOND
M  V30 END CTAB
M  END
>  <Compound ID>
210

>  <Name>


>  <Uniprot>
P53671

>  <Target>
LIMK2

>  <Smiles>
CCN1CCN(C2=CC=C(NC3=NC=C4SC=C(C5=CC=CC(NS(C)(=O)=O)=C5)C4=N3)C=C2)CC1

>  <Kd (nM)>


>  <Assay (Kd)>


>  <Ki (nM)>


>  <Assay (Ki)>


>  <IC50 (nM)>


>  <Assay (IC50)>


>  <EC50 (nM)>


>  <Assay (EC50)>


>  <Article DOI>
10.1016/j.cell.2020.10.038

>  <Molecular Weight>
508.673

>  <Exact Mass>
508.171516136

>  <XLogP3>
4.08

>  <Heavy Atom Count>
35

>  <Ring Count>
5

>  <Hydrogen Bond Acceptor Count>
8

>  <Hydrogen Bond Donor Count>
2

>  <Rotatable Bond Count>
7

>  <Topological Polar Surface Area>
90.46

>  <Molecular Formula>
C25H28N6O2S2

>  <InChI>
InChI=1S/C25H28N6O2S2/c1-3-30-11-13-31(14-12-30)21-9-7-19(8-10-21)27-25-26-16-23-24(28-25)22(17-34-23)18-5-4-6-20(15-18)29-35(2,32)33/h4-10,15-17,29H,3,11-14H2,1-2H3,(H,26,27,28)

>  <InChI Key>
MQMVBXQAIMTOTQ-UHFFFAOYSA-N

>  <BindingDB>


>  <PubChem>
90466261

>  <ChEMBL>


$$$$
Compound 669
Actelion Java MolfileCreator 2.0

  0  0  0  0  0  0              0 V3000
M  V30 BEGIN CTAB
M  V30 COUNTS 35 39 0 0 0
M  V30 BEGIN ATOM
M  V30 1 S 0.0 0.0 0.0 0
M  V30 2 O 0.9096 1.1931 0.0 0
M  V30 3 O -0.9332 -1.1695 0.0 0
M  V30 4 N 1.1695 -0.9096 0.0 0
M  V30 5 C -1.1931 0.9332 0.0 0
M  V30 6 C 2.5516 -0.3307 0.0 0
M  V30 7 C 3.7212 -1.2404 0.0 0
M  V30 8 C 2.7525 1.1695 0.0 0
M  V30 9 C 5.1033 -0.6615 0.0 0
M  V30 10 C 4.1346 1.7483 0.0 0
M  V30 11 C 6.2728 -1.5711 0.0 0
M  V30 12 C 5.3041 0.8387 0.0 0
M  V30 13 C 6.2138 -3.0596 0.0 0
M  V30 14 C 7.7023 -1.1458 0.0 0
M  V30 15 N 5.0561 -4.0165 0.0 0
M  V30 16 C 7.6078 -3.5558 0.0 0
M  V30 17 S 8.5292 -2.3744 0.0 0
M  V30 18 C 5.3041 -5.4814 0.0 0
M  V30 19 C 7.8558 -5.0206 0.0 0
M  V30 20 N 6.6981 -5.9775 0.0 0
M  V30 21 N 4.1464 -6.4382 0.0 0
M  V30 22 C 2.7288 -5.9184 0.0 0
M  V30 23 C 1.5711 -6.8753 0.0 0
M  V30 24 C 2.4571 -4.43 0.0 0
M  V30 25 C 0.1535 -6.3555 0.0 0
M  V30 26 C 1.0395 -3.9102 0.0 0
M  V30 27 C -0.1181 -4.8671 0.0 0
M  V30 28 N -1.5357 -4.3473 0.0 0
M  V30 29 C -1.8074 -2.8588 0.0 0
M  V30 30 C -2.6934 -5.3041 0.0 0
M  V30 31 C -3.225 -2.339 0.0 0
M  V30 32 C -4.111 -4.7844 0.0 0
M  V30 33 N -4.3827 -3.2959 0.0 0
M  V30 34 C -5.8003 -2.7761 0.0 0
M  V30 35 C -6.072 -1.2876 0.0 0
M  V30 END ATOM
M  V30 BEGIN BOND
M  V30 1 2 1 2
M  V30 2 2 1 3
M  V30 3 1 1 4
M  V30 4 1 1 5
M  V30 5 1 4 6
M  V30 6 2 6 7
M  V30 7 1 6 8
M  V30 8 1 7 9
M  V30 9 2 8 10
M  V30 10 1 9 11
M  V30 11 2 9 12
M  V30 12 1 11 13
M  V30 13 2 11 14
M  V30 14 2 13 15
M  V30 15 1 13 16
M  V30 16 1 14 17
M  V30 17 1 15 18
M  V30 18 2 16 19
M  V30 19 2 18 20
M  V30 20 1 18 21
M  V30 21 1 21 22
M  V30 22 2 22 23
M  V30 23 1 22 24
M  V30 24 1 23 25
M  V30 25 2 24 26
M  V30 26 2 25 27
M  V30 27 1 27 28
M  V30 28 1 28 29
M  V30 29 1 28 30
M  V30 30 1 29 31
M  V30 31 1 30 32
M  V30 32 1 31 33
M  V30 33 1 33 34
M  V30 34 1 34 35
M  V30 35 1 10 12
M  V30 36 1 16 17
M  V30 37 1 19 20
M  V30 38 1 26 27
M  V30 39 1 32 33
M  V30 END BOND
M  V30 END CTAB
M  END
>  <Compound ID>
210

>  <Name>


>  <Uniprot>
Q16584

>  <Target>
MAP3K11

>  <Smiles>
CCN1CCN(C2=CC=C(NC3=NC=C4SC=C(C5=CC=CC(NS(C)(=O)=O)=C5)C4=N3)C=C2)CC1

>  <Kd (nM)>


>  <Assay (Kd)>


>  <Ki (nM)>


>  <Assay (Ki)>


>  <IC50 (nM)>


>  <Assay (IC50)>


>  <EC50 (nM)>


>  <Assay (EC50)>


>  <Article DOI>
10.1016/j.cell.2020.10.038

>  <Molecular Weight>
508.673

>  <Exact Mass>
508.171516136

>  <XLogP3>
4.08

>  <Heavy Atom Count>
35

>  <Ring Count>
5

>  <Hydrogen Bond Acceptor Count>
8

>  <Hydrogen Bond Donor Count>
2

>  <Rotatable Bond Count>
7

>  <Topological Polar Surface Area>
90.46

>  <Molecular Formula>
C25H28N6O2S2

>  <InChI>
InChI=1S/C25H28N6O2S2/c1-3-30-11-13-31(14-12-30)21-9-7-19(8-10-21)27-25-26-16-23-24(28-25)22(17-34-23)18-5-4-6-20(15-18)29-35(2,32)33/h4-10,15-17,29H,3,11-14H2,1-2H3,(H,26,27,28)

>  <InChI Key>
MQMVBXQAIMTOTQ-UHFFFAOYSA-N

>  <BindingDB>


>  <PubChem>
90466261

>  <ChEMBL>


$$$$
Compound 670
Actelion Java MolfileCreator 2.0

  0  0  0  0  0  0              0 V3000
M  V30 BEGIN CTAB
M  V30 COUNTS 35 39 0 0 0
M  V30 BEGIN ATOM
M  V30 1 S 0.0 0.0 0.0 0
M  V30 2 O 0.9096 1.1931 0.0 0
M  V30 3 O -0.9332 -1.1695 0.0 0
M  V30 4 N 1.1695 -0.9096 0.0 0
M  V30 5 C -1.1931 0.9332 0.0 0
M  V30 6 C 2.5516 -0.3307 0.0 0
M  V30 7 C 3.7212 -1.2404 0.0 0
M  V30 8 C 2.7525 1.1695 0.0 0
M  V30 9 C 5.1033 -0.6615 0.0 0
M  V30 10 C 4.1346 1.7483 0.0 0
M  V30 11 C 6.2728 -1.5711 0.0 0
M  V30 12 C 5.3041 0.8387 0.0 0
M  V30 13 C 6.2138 -3.0596 0.0 0
M  V30 14 C 7.7023 -1.1458 0.0 0
M  V30 15 N 5.0561 -4.0165 0.0 0
M  V30 16 C 7.6078 -3.5558 0.0 0
M  V30 17 S 8.5292 -2.3744 0.0 0
M  V30 18 C 5.3041 -5.4814 0.0 0
M  V30 19 C 7.8558 -5.0206 0.0 0
M  V30 20 N 6.6981 -5.9775 0.0 0
M  V30 21 N 4.1464 -6.4382 0.0 0
M  V30 22 C 2.7288 -5.9184 0.0 0
M  V30 23 C 1.5711 -6.8753 0.0 0
M  V30 24 C 2.4571 -4.43 0.0 0
M  V30 25 C 0.1535 -6.3555 0.0 0
M  V30 26 C 1.0395 -3.9102 0.0 0
M  V30 27 C -0.1181 -4.8671 0.0 0
M  V30 28 N -1.5357 -4.3473 0.0 0
M  V30 29 C -1.8074 -2.8588 0.0 0
M  V30 30 C -2.6934 -5.3041 0.0 0
M  V30 31 C -3.225 -2.339 0.0 0
M  V30 32 C -4.111 -4.7844 0.0 0
M  V30 33 N -4.3827 -3.2959 0.0 0
M  V30 34 C -5.8003 -2.7761 0.0 0
M  V30 35 C -6.072 -1.2876 0.0 0
M  V30 END ATOM
M  V30 BEGIN BOND
M  V30 1 2 1 2
M  V30 2 2 1 3
M  V30 3 1 1 4
M  V30 4 1 1 5
M  V30 5 1 4 6
M  V30 6 2 6 7
M  V30 7 1 6 8
M  V30 8 1 7 9
M  V30 9 2 8 10
M  V30 10 1 9 11
M  V30 11 2 9 12
M  V30 12 1 11 13
M  V30 13 2 11 14
M  V30 14 2 13 15
M  V30 15 1 13 16
M  V30 16 1 14 17
M  V30 17 1 15 18
M  V30 18 2 16 19
M  V30 19 2 18 20
M  V30 20 1 18 21
M  V30 21 1 21 22
M  V30 22 2 22 23
M  V30 23 1 22 24
M  V30 24 1 23 25
M  V30 25 2 24 26
M  V30 26 2 25 27
M  V30 27 1 27 28
M  V30 28 1 28 29
M  V30 29 1 28 30
M  V30 30 1 29 31
M  V30 31 1 30 32
M  V30 32 1 31 33
M  V30 33 1 33 34
M  V30 34 1 34 35
M  V30 35 1 10 12
M  V30 36 1 16 17
M  V30 37 1 19 20
M  V30 38 1 26 27
M  V30 39 1 32 33
M  V30 END BOND
M  V30 END CTAB
M  END
>  <Compound ID>
210

>  <Name>


>  <Uniprot>
Q16659

>  <Target>
MAPK6

>  <Smiles>
CCN1CCN(C2=CC=C(NC3=NC=C4SC=C(C5=CC=CC(NS(C)(=O)=O)=C5)C4=N3)C=C2)CC1

>  <Kd (nM)>


>  <Assay (Kd)>


>  <Ki (nM)>


>  <Assay (Ki)>


>  <IC50 (nM)>


>  <Assay (IC50)>


>  <EC50 (nM)>


>  <Assay (EC50)>


>  <Article DOI>
10.1016/j.cell.2020.10.038

>  <Molecular Weight>
508.673

>  <Exact Mass>
508.171516136

>  <XLogP3>
4.08

>  <Heavy Atom Count>
35

>  <Ring Count>
5

>  <Hydrogen Bond Acceptor Count>
8

>  <Hydrogen Bond Donor Count>
2

>  <Rotatable Bond Count>
7

>  <Topological Polar Surface Area>
90.46

>  <Molecular Formula>
C25H28N6O2S2

>  <InChI>
InChI=1S/C25H28N6O2S2/c1-3-30-11-13-31(14-12-30)21-9-7-19(8-10-21)27-25-26-16-23-24(28-25)22(17-34-23)18-5-4-6-20(15-18)29-35(2,32)33/h4-10,15-17,29H,3,11-14H2,1-2H3,(H,26,27,28)

>  <InChI Key>
MQMVBXQAIMTOTQ-UHFFFAOYSA-N

>  <BindingDB>


>  <PubChem>
90466261

>  <ChEMBL>


$$$$
Compound 671
Actelion Java MolfileCreator 2.0

  0  0  0  0  0  0              0 V3000
M  V30 BEGIN CTAB
M  V30 COUNTS 35 39 0 0 0
M  V30 BEGIN ATOM
M  V30 1 S 0.0 0.0 0.0 0
M  V30 2 O 0.9096 1.1931 0.0 0
M  V30 3 O -0.9332 -1.1695 0.0 0
M  V30 4 N 1.1695 -0.9096 0.0 0
M  V30 5 C -1.1931 0.9332 0.0 0
M  V30 6 C 2.5516 -0.3307 0.0 0
M  V30 7 C 3.7212 -1.2404 0.0 0
M  V30 8 C 2.7525 1.1695 0.0 0
M  V30 9 C 5.1033 -0.6615 0.0 0
M  V30 10 C 4.1346 1.7483 0.0 0
M  V30 11 C 6.2728 -1.5711 0.0 0
M  V30 12 C 5.3041 0.8387 0.0 0
M  V30 13 C 6.2138 -3.0596 0.0 0
M  V30 14 C 7.7023 -1.1458 0.0 0
M  V30 15 N 5.0561 -4.0165 0.0 0
M  V30 16 C 7.6078 -3.5558 0.0 0
M  V30 17 S 8.5292 -2.3744 0.0 0
M  V30 18 C 5.3041 -5.4814 0.0 0
M  V30 19 C 7.8558 -5.0206 0.0 0
M  V30 20 N 6.6981 -5.9775 0.0 0
M  V30 21 N 4.1464 -6.4382 0.0 0
M  V30 22 C 2.7288 -5.9184 0.0 0
M  V30 23 C 1.5711 -6.8753 0.0 0
M  V30 24 C 2.4571 -4.43 0.0 0
M  V30 25 C 0.1535 -6.3555 0.0 0
M  V30 26 C 1.0395 -3.9102 0.0 0
M  V30 27 C -0.1181 -4.8671 0.0 0
M  V30 28 N -1.5357 -4.3473 0.0 0
M  V30 29 C -1.8074 -2.8588 0.0 0
M  V30 30 C -2.6934 -5.3041 0.0 0
M  V30 31 C -3.225 -2.339 0.0 0
M  V30 32 C -4.111 -4.7844 0.0 0
M  V30 33 N -4.3827 -3.2959 0.0 0
M  V30 34 C -5.8003 -2.7761 0.0 0
M  V30 35 C -6.072 -1.2876 0.0 0
M  V30 END ATOM
M  V30 BEGIN BOND
M  V30 1 2 1 2
M  V30 2 2 1 3
M  V30 3 1 1 4
M  V30 4 1 1 5
M  V30 5 1 4 6
M  V30 6 2 6 7
M  V30 7 1 6 8
M  V30 8 1 7 9
M  V30 9 2 8 10
M  V30 10 1 9 11
M  V30 11 2 9 12
M  V30 12 1 11 13
M  V30 13 2 11 14
M  V30 14 2 13 15
M  V30 15 1 13 16
M  V30 16 1 14 17
M  V30 17 1 15 18
M  V30 18 2 16 19
M  V30 19 2 18 20
M  V30 20 1 18 21
M  V30 21 1 21 22
M  V30 22 2 22 23
M  V30 23 1 22 24
M  V30 24 1 23 25
M  V30 25 2 24 26
M  V30 26 2 25 27
M  V30 27 1 27 28
M  V30 28 1 28 29
M  V30 29 1 28 30
M  V30 30 1 29 31
M  V30 31 1 30 32
M  V30 32 1 31 33
M  V30 33 1 33 34
M  V30 34 1 34 35
M  V30 35 1 10 12
M  V30 36 1 16 17
M  V30 37 1 19 20
M  V30 38 1 26 27
M  V30 39 1 32 33
M  V30 END BOND
M  V30 END CTAB
M  END
>  <Compound ID>
210

>  <Name>


>  <Uniprot>
P45983

>  <Target>
MAPK8

>  <Smiles>
CCN1CCN(C2=CC=C(NC3=NC=C4SC=C(C5=CC=CC(NS(C)(=O)=O)=C5)C4=N3)C=C2)CC1

>  <Kd (nM)>


>  <Assay (Kd)>


>  <Ki (nM)>


>  <Assay (Ki)>


>  <IC50 (nM)>


>  <Assay (IC50)>


>  <EC50 (nM)>


>  <Assay (EC50)>


>  <Article DOI>
10.1016/j.cell.2020.10.038

>  <Molecular Weight>
508.673

>  <Exact Mass>
508.171516136

>  <XLogP3>
4.08

>  <Heavy Atom Count>
35

>  <Ring Count>
5

>  <Hydrogen Bond Acceptor Count>
8

>  <Hydrogen Bond Donor Count>
2

>  <Rotatable Bond Count>
7

>  <Topological Polar Surface Area>
90.46

>  <Molecular Formula>
C25H28N6O2S2

>  <InChI>
InChI=1S/C25H28N6O2S2/c1-3-30-11-13-31(14-12-30)21-9-7-19(8-10-21)27-25-26-16-23-24(28-25)22(17-34-23)18-5-4-6-20(15-18)29-35(2,32)33/h4-10,15-17,29H,3,11-14H2,1-2H3,(H,26,27,28)

>  <InChI Key>
MQMVBXQAIMTOTQ-UHFFFAOYSA-N

>  <BindingDB>


>  <PubChem>
90466261

>  <ChEMBL>


$$$$
Compound 672
Actelion Java MolfileCreator 2.0

  0  0  0  0  0  0              0 V3000
M  V30 BEGIN CTAB
M  V30 COUNTS 35 39 0 0 0
M  V30 BEGIN ATOM
M  V30 1 S 0.0 0.0 0.0 0
M  V30 2 O 0.9096 1.1931 0.0 0
M  V30 3 O -0.9332 -1.1695 0.0 0
M  V30 4 N 1.1695 -0.9096 0.0 0
M  V30 5 C -1.1931 0.9332 0.0 0
M  V30 6 C 2.5516 -0.3307 0.0 0
M  V30 7 C 3.7212 -1.2404 0.0 0
M  V30 8 C 2.7525 1.1695 0.0 0
M  V30 9 C 5.1033 -0.6615 0.0 0
M  V30 10 C 4.1346 1.7483 0.0 0
M  V30 11 C 6.2728 -1.5711 0.0 0
M  V30 12 C 5.3041 0.8387 0.0 0
M  V30 13 C 6.2138 -3.0596 0.0 0
M  V30 14 C 7.7023 -1.1458 0.0 0
M  V30 15 N 5.0561 -4.0165 0.0 0
M  V30 16 C 7.6078 -3.5558 0.0 0
M  V30 17 S 8.5292 -2.3744 0.0 0
M  V30 18 C 5.3041 -5.4814 0.0 0
M  V30 19 C 7.8558 -5.0206 0.0 0
M  V30 20 N 6.6981 -5.9775 0.0 0
M  V30 21 N 4.1464 -6.4382 0.0 0
M  V30 22 C 2.7288 -5.9184 0.0 0
M  V30 23 C 1.5711 -6.8753 0.0 0
M  V30 24 C 2.4571 -4.43 0.0 0
M  V30 25 C 0.1535 -6.3555 0.0 0
M  V30 26 C 1.0395 -3.9102 0.0 0
M  V30 27 C -0.1181 -4.8671 0.0 0
M  V30 28 N -1.5357 -4.3473 0.0 0
M  V30 29 C -1.8074 -2.8588 0.0 0
M  V30 30 C -2.6934 -5.3041 0.0 0
M  V30 31 C -3.225 -2.339 0.0 0
M  V30 32 C -4.111 -4.7844 0.0 0
M  V30 33 N -4.3827 -3.2959 0.0 0
M  V30 34 C -5.8003 -2.7761 0.0 0
M  V30 35 C -6.072 -1.2876 0.0 0
M  V30 END ATOM
M  V30 BEGIN BOND
M  V30 1 2 1 2
M  V30 2 2 1 3
M  V30 3 1 1 4
M  V30 4 1 1 5
M  V30 5 1 4 6
M  V30 6 2 6 7
M  V30 7 1 6 8
M  V30 8 1 7 9
M  V30 9 2 8 10
M  V30 10 1 9 11
M  V30 11 2 9 12
M  V30 12 1 11 13
M  V30 13 2 11 14
M  V30 14 2 13 15
M  V30 15 1 13 16
M  V30 16 1 14 17
M  V30 17 1 15 18
M  V30 18 2 16 19
M  V30 19 2 18 20
M  V30 20 1 18 21
M  V30 21 1 21 22
M  V30 22 2 22 23
M  V30 23 1 22 24
M  V30 24 1 23 25
M  V30 25 2 24 26
M  V30 26 2 25 27
M  V30 27 1 27 28
M  V30 28 1 28 29
M  V30 29 1 28 30
M  V30 30 1 29 31
M  V30 31 1 30 32
M  V30 32 1 31 33
M  V30 33 1 33 34
M  V30 34 1 34 35
M  V30 35 1 10 12
M  V30 36 1 16 17
M  V30 37 1 19 20
M  V30 38 1 26 27
M  V30 39 1 32 33
M  V30 END BOND
M  V30 END CTAB
M  END
>  <Compound ID>
210

>  <Name>


>  <Uniprot>
P45984

>  <Target>
MAPK9

>  <Smiles>
CCN1CCN(C2=CC=C(NC3=NC=C4SC=C(C5=CC=CC(NS(C)(=O)=O)=C5)C4=N3)C=C2)CC1

>  <Kd (nM)>


>  <Assay (Kd)>


>  <Ki (nM)>


>  <Assay (Ki)>


>  <IC50 (nM)>


>  <Assay (IC50)>


>  <EC50 (nM)>


>  <Assay (EC50)>


>  <Article DOI>
10.1016/j.cell.2020.10.038

>  <Molecular Weight>
508.673

>  <Exact Mass>
508.171516136

>  <XLogP3>
4.08

>  <Heavy Atom Count>
35

>  <Ring Count>
5

>  <Hydrogen Bond Acceptor Count>
8

>  <Hydrogen Bond Donor Count>
2

>  <Rotatable Bond Count>
7

>  <Topological Polar Surface Area>
90.46

>  <Molecular Formula>
C25H28N6O2S2

>  <InChI>
InChI=1S/C25H28N6O2S2/c1-3-30-11-13-31(14-12-30)21-9-7-19(8-10-21)27-25-26-16-23-24(28-25)22(17-34-23)18-5-4-6-20(15-18)29-35(2,32)33/h4-10,15-17,29H,3,11-14H2,1-2H3,(H,26,27,28)

>  <InChI Key>
MQMVBXQAIMTOTQ-UHFFFAOYSA-N

>  <BindingDB>


>  <PubChem>
90466261

>  <ChEMBL>


$$$$
Compound 673
Actelion Java MolfileCreator 2.0

  0  0  0  0  0  0              0 V3000
M  V30 BEGIN CTAB
M  V30 COUNTS 35 39 0 0 0
M  V30 BEGIN ATOM
M  V30 1 S 0.0 0.0 0.0 0
M  V30 2 O 0.9096 1.1931 0.0 0
M  V30 3 O -0.9332 -1.1695 0.0 0
M  V30 4 N 1.1695 -0.9096 0.0 0
M  V30 5 C -1.1931 0.9332 0.0 0
M  V30 6 C 2.5516 -0.3307 0.0 0
M  V30 7 C 3.7212 -1.2404 0.0 0
M  V30 8 C 2.7525 1.1695 0.0 0
M  V30 9 C 5.1033 -0.6615 0.0 0
M  V30 10 C 4.1346 1.7483 0.0 0
M  V30 11 C 6.2728 -1.5711 0.0 0
M  V30 12 C 5.3041 0.8387 0.0 0
M  V30 13 C 6.2138 -3.0596 0.0 0
M  V30 14 C 7.7023 -1.1458 0.0 0
M  V30 15 N 5.0561 -4.0165 0.0 0
M  V30 16 C 7.6078 -3.5558 0.0 0
M  V30 17 S 8.5292 -2.3744 0.0 0
M  V30 18 C 5.3041 -5.4814 0.0 0
M  V30 19 C 7.8558 -5.0206 0.0 0
M  V30 20 N 6.6981 -5.9775 0.0 0
M  V30 21 N 4.1464 -6.4382 0.0 0
M  V30 22 C 2.7288 -5.9184 0.0 0
M  V30 23 C 1.5711 -6.8753 0.0 0
M  V30 24 C 2.4571 -4.43 0.0 0
M  V30 25 C 0.1535 -6.3555 0.0 0
M  V30 26 C 1.0395 -3.9102 0.0 0
M  V30 27 C -0.1181 -4.8671 0.0 0
M  V30 28 N -1.5357 -4.3473 0.0 0
M  V30 29 C -1.8074 -2.8588 0.0 0
M  V30 30 C -2.6934 -5.3041 0.0 0
M  V30 31 C -3.225 -2.339 0.0 0
M  V30 32 C -4.111 -4.7844 0.0 0
M  V30 33 N -4.3827 -3.2959 0.0 0
M  V30 34 C -5.8003 -2.7761 0.0 0
M  V30 35 C -6.072 -1.2876 0.0 0
M  V30 END ATOM
M  V30 BEGIN BOND
M  V30 1 2 1 2
M  V30 2 2 1 3
M  V30 3 1 1 4
M  V30 4 1 1 5
M  V30 5 1 4 6
M  V30 6 2 6 7
M  V30 7 1 6 8
M  V30 8 1 7 9
M  V30 9 2 8 10
M  V30 10 1 9 11
M  V30 11 2 9 12
M  V30 12 1 11 13
M  V30 13 2 11 14
M  V30 14 2 13 15
M  V30 15 1 13 16
M  V30 16 1 14 17
M  V30 17 1 15 18
M  V30 18 2 16 19
M  V30 19 2 18 20
M  V30 20 1 18 21
M  V30 21 1 21 22
M  V30 22 2 22 23
M  V30 23 1 22 24
M  V30 24 1 23 25
M  V30 25 2 24 26
M  V30 26 2 25 27
M  V30 27 1 27 28
M  V30 28 1 28 29
M  V30 29 1 28 30
M  V30 30 1 29 31
M  V30 31 1 30 32
M  V30 32 1 31 33
M  V30 33 1 33 34
M  V30 34 1 34 35
M  V30 35 1 10 12
M  V30 36 1 16 17
M  V30 37 1 19 20
M  V30 38 1 26 27
M  V30 39 1 32 33
M  V30 END BOND
M  V30 END CTAB
M  END
>  <Compound ID>
210

>  <Name>


>  <Uniprot>
Q8IW41

>  <Target>
MAPKAPK5

>  <Smiles>
CCN1CCN(C2=CC=C(NC3=NC=C4SC=C(C5=CC=CC(NS(C)(=O)=O)=C5)C4=N3)C=C2)CC1

>  <Kd (nM)>


>  <Assay (Kd)>


>  <Ki (nM)>


>  <Assay (Ki)>


>  <IC50 (nM)>


>  <Assay (IC50)>


>  <EC50 (nM)>


>  <Assay (EC50)>


>  <Article DOI>
10.1016/j.cell.2020.10.038

>  <Molecular Weight>
508.673

>  <Exact Mass>
508.171516136

>  <XLogP3>
4.08

>  <Heavy Atom Count>
35

>  <Ring Count>
5

>  <Hydrogen Bond Acceptor Count>
8

>  <Hydrogen Bond Donor Count>
2

>  <Rotatable Bond Count>
7

>  <Topological Polar Surface Area>
90.46

>  <Molecular Formula>
C25H28N6O2S2

>  <InChI>
InChI=1S/C25H28N6O2S2/c1-3-30-11-13-31(14-12-30)21-9-7-19(8-10-21)27-25-26-16-23-24(28-25)22(17-34-23)18-5-4-6-20(15-18)29-35(2,32)33/h4-10,15-17,29H,3,11-14H2,1-2H3,(H,26,27,28)

>  <InChI Key>
MQMVBXQAIMTOTQ-UHFFFAOYSA-N

>  <BindingDB>


>  <PubChem>
90466261

>  <ChEMBL>


$$$$
Compound 674
Actelion Java MolfileCreator 2.0

  0  0  0  0  0  0              0 V3000
M  V30 BEGIN CTAB
M  V30 COUNTS 35 39 0 0 0
M  V30 BEGIN ATOM
M  V30 1 S 0.0 0.0 0.0 0
M  V30 2 O 0.9096 1.1931 0.0 0
M  V30 3 O -0.9332 -1.1695 0.0 0
M  V30 4 N 1.1695 -0.9096 0.0 0
M  V30 5 C -1.1931 0.9332 0.0 0
M  V30 6 C 2.5516 -0.3307 0.0 0
M  V30 7 C 3.7212 -1.2404 0.0 0
M  V30 8 C 2.7525 1.1695 0.0 0
M  V30 9 C 5.1033 -0.6615 0.0 0
M  V30 10 C 4.1346 1.7483 0.0 0
M  V30 11 C 6.2728 -1.5711 0.0 0
M  V30 12 C 5.3041 0.8387 0.0 0
M  V30 13 C 6.2138 -3.0596 0.0 0
M  V30 14 C 7.7023 -1.1458 0.0 0
M  V30 15 N 5.0561 -4.0165 0.0 0
M  V30 16 C 7.6078 -3.5558 0.0 0
M  V30 17 S 8.5292 -2.3744 0.0 0
M  V30 18 C 5.3041 -5.4814 0.0 0
M  V30 19 C 7.8558 -5.0206 0.0 0
M  V30 20 N 6.6981 -5.9775 0.0 0
M  V30 21 N 4.1464 -6.4382 0.0 0
M  V30 22 C 2.7288 -5.9184 0.0 0
M  V30 23 C 1.5711 -6.8753 0.0 0
M  V30 24 C 2.4571 -4.43 0.0 0
M  V30 25 C 0.1535 -6.3555 0.0 0
M  V30 26 C 1.0395 -3.9102 0.0 0
M  V30 27 C -0.1181 -4.8671 0.0 0
M  V30 28 N -1.5357 -4.3473 0.0 0
M  V30 29 C -1.8074 -2.8588 0.0 0
M  V30 30 C -2.6934 -5.3041 0.0 0
M  V30 31 C -3.225 -2.339 0.0 0
M  V30 32 C -4.111 -4.7844 0.0 0
M  V30 33 N -4.3827 -3.2959 0.0 0
M  V30 34 C -5.8003 -2.7761 0.0 0
M  V30 35 C -6.072 -1.2876 0.0 0
M  V30 END ATOM
M  V30 BEGIN BOND
M  V30 1 2 1 2
M  V30 2 2 1 3
M  V30 3 1 1 4
M  V30 4 1 1 5
M  V30 5 1 4 6
M  V30 6 2 6 7
M  V30 7 1 6 8
M  V30 8 1 7 9
M  V30 9 2 8 10
M  V30 10 1 9 11
M  V30 11 2 9 12
M  V30 12 1 11 13
M  V30 13 2 11 14
M  V30 14 2 13 15
M  V30 15 1 13 16
M  V30 16 1 14 17
M  V30 17 1 15 18
M  V30 18 2 16 19
M  V30 19 2 18 20
M  V30 20 1 18 21
M  V30 21 1 21 22
M  V30 22 2 22 23
M  V30 23 1 22 24
M  V30 24 1 23 25
M  V30 25 2 24 26
M  V30 26 2 25 27
M  V30 27 1 27 28
M  V30 28 1 28 29
M  V30 29 1 28 30
M  V30 30 1 29 31
M  V30 31 1 30 32
M  V30 32 1 31 33
M  V30 33 1 33 34
M  V30 34 1 34 35
M  V30 35 1 10 12
M  V30 36 1 16 17
M  V30 37 1 19 20
M  V30 38 1 26 27
M  V30 39 1 32 33
M  V30 END BOND
M  V30 END CTAB
M  END
>  <Compound ID>
210

>  <Name>


>  <Uniprot>
Q7KZI7

>  <Target>
MARK2

>  <Smiles>
CCN1CCN(C2=CC=C(NC3=NC=C4SC=C(C5=CC=CC(NS(C)(=O)=O)=C5)C4=N3)C=C2)CC1

>  <Kd (nM)>


>  <Assay (Kd)>


>  <Ki (nM)>


>  <Assay (Ki)>


>  <IC50 (nM)>


>  <Assay (IC50)>


>  <EC50 (nM)>


>  <Assay (EC50)>


>  <Article DOI>
10.1016/j.cell.2020.10.038

>  <Molecular Weight>
508.673

>  <Exact Mass>
508.171516136

>  <XLogP3>
4.08

>  <Heavy Atom Count>
35

>  <Ring Count>
5

>  <Hydrogen Bond Acceptor Count>
8

>  <Hydrogen Bond Donor Count>
2

>  <Rotatable Bond Count>
7

>  <Topological Polar Surface Area>
90.46

>  <Molecular Formula>
C25H28N6O2S2

>  <InChI>
InChI=1S/C25H28N6O2S2/c1-3-30-11-13-31(14-12-30)21-9-7-19(8-10-21)27-25-26-16-23-24(28-25)22(17-34-23)18-5-4-6-20(15-18)29-35(2,32)33/h4-10,15-17,29H,3,11-14H2,1-2H3,(H,26,27,28)

>  <InChI Key>
MQMVBXQAIMTOTQ-UHFFFAOYSA-N

>  <BindingDB>


>  <PubChem>
90466261

>  <ChEMBL>


$$$$
Compound 675
Actelion Java MolfileCreator 2.0

  0  0  0  0  0  0              0 V3000
M  V30 BEGIN CTAB
M  V30 COUNTS 35 39 0 0 0
M  V30 BEGIN ATOM
M  V30 1 S 0.0 0.0 0.0 0
M  V30 2 O 0.9096 1.1931 0.0 0
M  V30 3 O -0.9332 -1.1695 0.0 0
M  V30 4 N 1.1695 -0.9096 0.0 0
M  V30 5 C -1.1931 0.9332 0.0 0
M  V30 6 C 2.5516 -0.3307 0.0 0
M  V30 7 C 3.7212 -1.2404 0.0 0
M  V30 8 C 2.7525 1.1695 0.0 0
M  V30 9 C 5.1033 -0.6615 0.0 0
M  V30 10 C 4.1346 1.7483 0.0 0
M  V30 11 C 6.2728 -1.5711 0.0 0
M  V30 12 C 5.3041 0.8387 0.0 0
M  V30 13 C 6.2138 -3.0596 0.0 0
M  V30 14 C 7.7023 -1.1458 0.0 0
M  V30 15 N 5.0561 -4.0165 0.0 0
M  V30 16 C 7.6078 -3.5558 0.0 0
M  V30 17 S 8.5292 -2.3744 0.0 0
M  V30 18 C 5.3041 -5.4814 0.0 0
M  V30 19 C 7.8558 -5.0206 0.0 0
M  V30 20 N 6.6981 -5.9775 0.0 0
M  V30 21 N 4.1464 -6.4382 0.0 0
M  V30 22 C 2.7288 -5.9184 0.0 0
M  V30 23 C 1.5711 -6.8753 0.0 0
M  V30 24 C 2.4571 -4.43 0.0 0
M  V30 25 C 0.1535 -6.3555 0.0 0
M  V30 26 C 1.0395 -3.9102 0.0 0
M  V30 27 C -0.1181 -4.8671 0.0 0
M  V30 28 N -1.5357 -4.3473 0.0 0
M  V30 29 C -1.8074 -2.8588 0.0 0
M  V30 30 C -2.6934 -5.3041 0.0 0
M  V30 31 C -3.225 -2.339 0.0 0
M  V30 32 C -4.111 -4.7844 0.0 0
M  V30 33 N -4.3827 -3.2959 0.0 0
M  V30 34 C -5.8003 -2.7761 0.0 0
M  V30 35 C -6.072 -1.2876 0.0 0
M  V30 END ATOM
M  V30 BEGIN BOND
M  V30 1 2 1 2
M  V30 2 2 1 3
M  V30 3 1 1 4
M  V30 4 1 1 5
M  V30 5 1 4 6
M  V30 6 2 6 7
M  V30 7 1 6 8
M  V30 8 1 7 9
M  V30 9 2 8 10
M  V30 10 1 9 11
M  V30 11 2 9 12
M  V30 12 1 11 13
M  V30 13 2 11 14
M  V30 14 2 13 15
M  V30 15 1 13 16
M  V30 16 1 14 17
M  V30 17 1 15 18
M  V30 18 2 16 19
M  V30 19 2 18 20
M  V30 20 1 18 21
M  V30 21 1 21 22
M  V30 22 2 22 23
M  V30 23 1 22 24
M  V30 24 1 23 25
M  V30 25 2 24 26
M  V30 26 2 25 27
M  V30 27 1 27 28
M  V30 28 1 28 29
M  V30 29 1 28 30
M  V30 30 1 29 31
M  V30 31 1 30 32
M  V30 32 1 31 33
M  V30 33 1 33 34
M  V30 34 1 34 35
M  V30 35 1 10 12
M  V30 36 1 16 17
M  V30 37 1 19 20
M  V30 38 1 26 27
M  V30 39 1 32 33
M  V30 END BOND
M  V30 END CTAB
M  END
>  <Compound ID>
210

>  <Name>


>  <Uniprot>
Q96L34

>  <Target>
MARK4

>  <Smiles>
CCN1CCN(C2=CC=C(NC3=NC=C4SC=C(C5=CC=CC(NS(C)(=O)=O)=C5)C4=N3)C=C2)CC1

>  <Kd (nM)>


>  <Assay (Kd)>


>  <Ki (nM)>


>  <Assay (Ki)>


>  <IC50 (nM)>


>  <Assay (IC50)>


>  <EC50 (nM)>


>  <Assay (EC50)>


>  <Article DOI>
10.1016/j.cell.2020.10.038

>  <Molecular Weight>
508.673

>  <Exact Mass>
508.171516136

>  <XLogP3>
4.08

>  <Heavy Atom Count>
35

>  <Ring Count>
5

>  <Hydrogen Bond Acceptor Count>
8

>  <Hydrogen Bond Donor Count>
2

>  <Rotatable Bond Count>
7

>  <Topological Polar Surface Area>
90.46

>  <Molecular Formula>
C25H28N6O2S2

>  <InChI>
InChI=1S/C25H28N6O2S2/c1-3-30-11-13-31(14-12-30)21-9-7-19(8-10-21)27-25-26-16-23-24(28-25)22(17-34-23)18-5-4-6-20(15-18)29-35(2,32)33/h4-10,15-17,29H,3,11-14H2,1-2H3,(H,26,27,28)

>  <InChI Key>
MQMVBXQAIMTOTQ-UHFFFAOYSA-N

>  <BindingDB>


>  <PubChem>
90466261

>  <ChEMBL>


$$$$
Compound 676
Actelion Java MolfileCreator 2.0

  0  0  0  0  0  0              0 V3000
M  V30 BEGIN CTAB
M  V30 COUNTS 35 39 0 0 0
M  V30 BEGIN ATOM
M  V30 1 S 0.0 0.0 0.0 0
M  V30 2 O 0.9096 1.1931 0.0 0
M  V30 3 O -0.9332 -1.1695 0.0 0
M  V30 4 N 1.1695 -0.9096 0.0 0
M  V30 5 C -1.1931 0.9332 0.0 0
M  V30 6 C 2.5516 -0.3307 0.0 0
M  V30 7 C 3.7212 -1.2404 0.0 0
M  V30 8 C 2.7525 1.1695 0.0 0
M  V30 9 C 5.1033 -0.6615 0.0 0
M  V30 10 C 4.1346 1.7483 0.0 0
M  V30 11 C 6.2728 -1.5711 0.0 0
M  V30 12 C 5.3041 0.8387 0.0 0
M  V30 13 C 6.2138 -3.0596 0.0 0
M  V30 14 C 7.7023 -1.1458 0.0 0
M  V30 15 N 5.0561 -4.0165 0.0 0
M  V30 16 C 7.6078 -3.5558 0.0 0
M  V30 17 S 8.5292 -2.3744 0.0 0
M  V30 18 C 5.3041 -5.4814 0.0 0
M  V30 19 C 7.8558 -5.0206 0.0 0
M  V30 20 N 6.6981 -5.9775 0.0 0
M  V30 21 N 4.1464 -6.4382 0.0 0
M  V30 22 C 2.7288 -5.9184 0.0 0
M  V30 23 C 1.5711 -6.8753 0.0 0
M  V30 24 C 2.4571 -4.43 0.0 0
M  V30 25 C 0.1535 -6.3555 0.0 0
M  V30 26 C 1.0395 -3.9102 0.0 0
M  V30 27 C -0.1181 -4.8671 0.0 0
M  V30 28 N -1.5357 -4.3473 0.0 0
M  V30 29 C -1.8074 -2.8588 0.0 0
M  V30 30 C -2.6934 -5.3041 0.0 0
M  V30 31 C -3.225 -2.339 0.0 0
M  V30 32 C -4.111 -4.7844 0.0 0
M  V30 33 N -4.3827 -3.2959 0.0 0
M  V30 34 C -5.8003 -2.7761 0.0 0
M  V30 35 C -6.072 -1.2876 0.0 0
M  V30 END ATOM
M  V30 BEGIN BOND
M  V30 1 2 1 2
M  V30 2 2 1 3
M  V30 3 1 1 4
M  V30 4 1 1 5
M  V30 5 1 4 6
M  V30 6 2 6 7
M  V30 7 1 6 8
M  V30 8 1 7 9
M  V30 9 2 8 10
M  V30 10 1 9 11
M  V30 11 2 9 12
M  V30 12 1 11 13
M  V30 13 2 11 14
M  V30 14 2 13 15
M  V30 15 1 13 16
M  V30 16 1 14 17
M  V30 17 1 15 18
M  V30 18 2 16 19
M  V30 19 2 18 20
M  V30 20 1 18 21
M  V30 21 1 21 22
M  V30 22 2 22 23
M  V30 23 1 22 24
M  V30 24 1 23 25
M  V30 25 2 24 26
M  V30 26 2 25 27
M  V30 27 1 27 28
M  V30 28 1 28 29
M  V30 29 1 28 30
M  V30 30 1 29 31
M  V30 31 1 30 32
M  V30 32 1 31 33
M  V30 33 1 33 34
M  V30 34 1 34 35
M  V30 35 1 10 12
M  V30 36 1 16 17
M  V30 37 1 19 20
M  V30 38 1 26 27
M  V30 39 1 32 33
M  V30 END BOND
M  V30 END CTAB
M  END
>  <Compound ID>
210

>  <Name>


>  <Uniprot>
Q9HBH9

>  <Target>
MKNK2

>  <Smiles>
CCN1CCN(C2=CC=C(NC3=NC=C4SC=C(C5=CC=CC(NS(C)(=O)=O)=C5)C4=N3)C=C2)CC1

>  <Kd (nM)>


>  <Assay (Kd)>


>  <Ki (nM)>


>  <Assay (Ki)>


>  <IC50 (nM)>


>  <Assay (IC50)>


>  <EC50 (nM)>


>  <Assay (EC50)>


>  <Article DOI>
10.1016/j.cell.2020.10.038

>  <Molecular Weight>
508.673

>  <Exact Mass>
508.171516136

>  <XLogP3>
4.08

>  <Heavy Atom Count>
35

>  <Ring Count>
5

>  <Hydrogen Bond Acceptor Count>
8

>  <Hydrogen Bond Donor Count>
2

>  <Rotatable Bond Count>
7

>  <Topological Polar Surface Area>
90.46

>  <Molecular Formula>
C25H28N6O2S2

>  <InChI>
InChI=1S/C25H28N6O2S2/c1-3-30-11-13-31(14-12-30)21-9-7-19(8-10-21)27-25-26-16-23-24(28-25)22(17-34-23)18-5-4-6-20(15-18)29-35(2,32)33/h4-10,15-17,29H,3,11-14H2,1-2H3,(H,26,27,28)

>  <InChI Key>
MQMVBXQAIMTOTQ-UHFFFAOYSA-N

>  <BindingDB>


>  <PubChem>
90466261

>  <ChEMBL>


$$$$
Compound 677
Actelion Java MolfileCreator 2.0

  0  0  0  0  0  0              0 V3000
M  V30 BEGIN CTAB
M  V30 COUNTS 35 39 0 0 0
M  V30 BEGIN ATOM
M  V30 1 S 0.0 0.0 0.0 0
M  V30 2 O 0.9096 1.1931 0.0 0
M  V30 3 O -0.9332 -1.1695 0.0 0
M  V30 4 N 1.1695 -0.9096 0.0 0
M  V30 5 C -1.1931 0.9332 0.0 0
M  V30 6 C 2.5516 -0.3307 0.0 0
M  V30 7 C 3.7212 -1.2404 0.0 0
M  V30 8 C 2.7525 1.1695 0.0 0
M  V30 9 C 5.1033 -0.6615 0.0 0
M  V30 10 C 4.1346 1.7483 0.0 0
M  V30 11 C 6.2728 -1.5711 0.0 0
M  V30 12 C 5.3041 0.8387 0.0 0
M  V30 13 C 6.2138 -3.0596 0.0 0
M  V30 14 C 7.7023 -1.1458 0.0 0
M  V30 15 N 5.0561 -4.0165 0.0 0
M  V30 16 C 7.6078 -3.5558 0.0 0
M  V30 17 S 8.5292 -2.3744 0.0 0
M  V30 18 C 5.3041 -5.4814 0.0 0
M  V30 19 C 7.8558 -5.0206 0.0 0
M  V30 20 N 6.6981 -5.9775 0.0 0
M  V30 21 N 4.1464 -6.4382 0.0 0
M  V30 22 C 2.7288 -5.9184 0.0 0
M  V30 23 C 1.5711 -6.8753 0.0 0
M  V30 24 C 2.4571 -4.43 0.0 0
M  V30 25 C 0.1535 -6.3555 0.0 0
M  V30 26 C 1.0395 -3.9102 0.0 0
M  V30 27 C -0.1181 -4.8671 0.0 0
M  V30 28 N -1.5357 -4.3473 0.0 0
M  V30 29 C -1.8074 -2.8588 0.0 0
M  V30 30 C -2.6934 -5.3041 0.0 0
M  V30 31 C -3.225 -2.339 0.0 0
M  V30 32 C -4.111 -4.7844 0.0 0
M  V30 33 N -4.3827 -3.2959 0.0 0
M  V30 34 C -5.8003 -2.7761 0.0 0
M  V30 35 C -6.072 -1.2876 0.0 0
M  V30 END ATOM
M  V30 BEGIN BOND
M  V30 1 2 1 2
M  V30 2 2 1 3
M  V30 3 1 1 4
M  V30 4 1 1 5
M  V30 5 1 4 6
M  V30 6 2 6 7
M  V30 7 1 6 8
M  V30 8 1 7 9
M  V30 9 2 8 10
M  V30 10 1 9 11
M  V30 11 2 9 12
M  V30 12 1 11 13
M  V30 13 2 11 14
M  V30 14 2 13 15
M  V30 15 1 13 16
M  V30 16 1 14 17
M  V30 17 1 15 18
M  V30 18 2 16 19
M  V30 19 2 18 20
M  V30 20 1 18 21
M  V30 21 1 21 22
M  V30 22 2 22 23
M  V30 23 1 22 24
M  V30 24 1 23 25
M  V30 25 2 24 26
M  V30 26 2 25 27
M  V30 27 1 27 28
M  V30 28 1 28 29
M  V30 29 1 28 30
M  V30 30 1 29 31
M  V30 31 1 30 32
M  V30 32 1 31 33
M  V30 33 1 33 34
M  V30 34 1 34 35
M  V30 35 1 10 12
M  V30 36 1 16 17
M  V30 37 1 19 20
M  V30 38 1 26 27
M  V30 39 1 32 33
M  V30 END BOND
M  V30 END CTAB
M  END
>  <Compound ID>
210

>  <Name>


>  <Uniprot>
Q8TD19

>  <Target>
NEK9

>  <Smiles>
CCN1CCN(C2=CC=C(NC3=NC=C4SC=C(C5=CC=CC(NS(C)(=O)=O)=C5)C4=N3)C=C2)CC1

>  <Kd (nM)>


>  <Assay (Kd)>


>  <Ki (nM)>


>  <Assay (Ki)>


>  <IC50 (nM)>


>  <Assay (IC50)>


>  <EC50 (nM)>


>  <Assay (EC50)>


>  <Article DOI>
10.1016/j.cell.2020.10.038

>  <Molecular Weight>
508.673

>  <Exact Mass>
508.171516136

>  <XLogP3>
4.08

>  <Heavy Atom Count>
35

>  <Ring Count>
5

>  <Hydrogen Bond Acceptor Count>
8

>  <Hydrogen Bond Donor Count>
2

>  <Rotatable Bond Count>
7

>  <Topological Polar Surface Area>
90.46

>  <Molecular Formula>
C25H28N6O2S2

>  <InChI>
InChI=1S/C25H28N6O2S2/c1-3-30-11-13-31(14-12-30)21-9-7-19(8-10-21)27-25-26-16-23-24(28-25)22(17-34-23)18-5-4-6-20(15-18)29-35(2,32)33/h4-10,15-17,29H,3,11-14H2,1-2H3,(H,26,27,28)

>  <InChI Key>
MQMVBXQAIMTOTQ-UHFFFAOYSA-N

>  <BindingDB>


>  <PubChem>
90466261

>  <ChEMBL>


$$$$
Compound 678
Actelion Java MolfileCreator 2.0

  0  0  0  0  0  0              0 V3000
M  V30 BEGIN CTAB
M  V30 COUNTS 35 39 0 0 0
M  V30 BEGIN ATOM
M  V30 1 S 0.0 0.0 0.0 0
M  V30 2 O 0.9096 1.1931 0.0 0
M  V30 3 O -0.9332 -1.1695 0.0 0
M  V30 4 N 1.1695 -0.9096 0.0 0
M  V30 5 C -1.1931 0.9332 0.0 0
M  V30 6 C 2.5516 -0.3307 0.0 0
M  V30 7 C 3.7212 -1.2404 0.0 0
M  V30 8 C 2.7525 1.1695 0.0 0
M  V30 9 C 5.1033 -0.6615 0.0 0
M  V30 10 C 4.1346 1.7483 0.0 0
M  V30 11 C 6.2728 -1.5711 0.0 0
M  V30 12 C 5.3041 0.8387 0.0 0
M  V30 13 C 6.2138 -3.0596 0.0 0
M  V30 14 C 7.7023 -1.1458 0.0 0
M  V30 15 N 5.0561 -4.0165 0.0 0
M  V30 16 C 7.6078 -3.5558 0.0 0
M  V30 17 S 8.5292 -2.3744 0.0 0
M  V30 18 C 5.3041 -5.4814 0.0 0
M  V30 19 C 7.8558 -5.0206 0.0 0
M  V30 20 N 6.6981 -5.9775 0.0 0
M  V30 21 N 4.1464 -6.4382 0.0 0
M  V30 22 C 2.7288 -5.9184 0.0 0
M  V30 23 C 1.5711 -6.8753 0.0 0
M  V30 24 C 2.4571 -4.43 0.0 0
M  V30 25 C 0.1535 -6.3555 0.0 0
M  V30 26 C 1.0395 -3.9102 0.0 0
M  V30 27 C -0.1181 -4.8671 0.0 0
M  V30 28 N -1.5357 -4.3473 0.0 0
M  V30 29 C -1.8074 -2.8588 0.0 0
M  V30 30 C -2.6934 -5.3041 0.0 0
M  V30 31 C -3.225 -2.339 0.0 0
M  V30 32 C -4.111 -4.7844 0.0 0
M  V30 33 N -4.3827 -3.2959 0.0 0
M  V30 34 C -5.8003 -2.7761 0.0 0
M  V30 35 C -6.072 -1.2876 0.0 0
M  V30 END ATOM
M  V30 BEGIN BOND
M  V30 1 2 1 2
M  V30 2 2 1 3
M  V30 3 1 1 4
M  V30 4 1 1 5
M  V30 5 1 4 6
M  V30 6 2 6 7
M  V30 7 1 6 8
M  V30 8 1 7 9
M  V30 9 2 8 10
M  V30 10 1 9 11
M  V30 11 2 9 12
M  V30 12 1 11 13
M  V30 13 2 11 14
M  V30 14 2 13 15
M  V30 15 1 13 16
M  V30 16 1 14 17
M  V30 17 1 15 18
M  V30 18 2 16 19
M  V30 19 2 18 20
M  V30 20 1 18 21
M  V30 21 1 21 22
M  V30 22 2 22 23
M  V30 23 1 22 24
M  V30 24 1 23 25
M  V30 25 2 24 26
M  V30 26 2 25 27
M  V30 27 1 27 28
M  V30 28 1 28 29
M  V30 29 1 28 30
M  V30 30 1 29 31
M  V30 31 1 30 32
M  V30 32 1 31 33
M  V30 33 1 33 34
M  V30 34 1 34 35
M  V30 35 1 10 12
M  V30 36 1 16 17
M  V30 37 1 19 20
M  V30 38 1 26 27
M  V30 39 1 32 33
M  V30 END BOND
M  V30 END CTAB
M  END
>  <Compound ID>
210

>  <Name>


>  <Uniprot>
O00444

>  <Target>
PLK4

>  <Smiles>
CCN1CCN(C2=CC=C(NC3=NC=C4SC=C(C5=CC=CC(NS(C)(=O)=O)=C5)C4=N3)C=C2)CC1

>  <Kd (nM)>


>  <Assay (Kd)>


>  <Ki (nM)>


>  <Assay (Ki)>


>  <IC50 (nM)>


>  <Assay (IC50)>


>  <EC50 (nM)>


>  <Assay (EC50)>


>  <Article DOI>
10.1016/j.cell.2020.10.038

>  <Molecular Weight>
508.673

>  <Exact Mass>
508.171516136

>  <XLogP3>
4.08

>  <Heavy Atom Count>
35

>  <Ring Count>
5

>  <Hydrogen Bond Acceptor Count>
8

>  <Hydrogen Bond Donor Count>
2

>  <Rotatable Bond Count>
7

>  <Topological Polar Surface Area>
90.46

>  <Molecular Formula>
C25H28N6O2S2

>  <InChI>
InChI=1S/C25H28N6O2S2/c1-3-30-11-13-31(14-12-30)21-9-7-19(8-10-21)27-25-26-16-23-24(28-25)22(17-34-23)18-5-4-6-20(15-18)29-35(2,32)33/h4-10,15-17,29H,3,11-14H2,1-2H3,(H,26,27,28)

>  <InChI Key>
MQMVBXQAIMTOTQ-UHFFFAOYSA-N

>  <BindingDB>


>  <PubChem>
90466261

>  <ChEMBL>


$$$$
Compound 679
Actelion Java MolfileCreator 2.0

  0  0  0  0  0  0              0 V3000
M  V30 BEGIN CTAB
M  V30 COUNTS 35 39 0 0 0
M  V30 BEGIN ATOM
M  V30 1 S 0.0 0.0 0.0 0
M  V30 2 O 0.9096 1.1931 0.0 0
M  V30 3 O -0.9332 -1.1695 0.0 0
M  V30 4 N 1.1695 -0.9096 0.0 0
M  V30 5 C -1.1931 0.9332 0.0 0
M  V30 6 C 2.5516 -0.3307 0.0 0
M  V30 7 C 3.7212 -1.2404 0.0 0
M  V30 8 C 2.7525 1.1695 0.0 0
M  V30 9 C 5.1033 -0.6615 0.0 0
M  V30 10 C 4.1346 1.7483 0.0 0
M  V30 11 C 6.2728 -1.5711 0.0 0
M  V30 12 C 5.3041 0.8387 0.0 0
M  V30 13 C 6.2138 -3.0596 0.0 0
M  V30 14 C 7.7023 -1.1458 0.0 0
M  V30 15 N 5.0561 -4.0165 0.0 0
M  V30 16 C 7.6078 -3.5558 0.0 0
M  V30 17 S 8.5292 -2.3744 0.0 0
M  V30 18 C 5.3041 -5.4814 0.0 0
M  V30 19 C 7.8558 -5.0206 0.0 0
M  V30 20 N 6.6981 -5.9775 0.0 0
M  V30 21 N 4.1464 -6.4382 0.0 0
M  V30 22 C 2.7288 -5.9184 0.0 0
M  V30 23 C 1.5711 -6.8753 0.0 0
M  V30 24 C 2.4571 -4.43 0.0 0
M  V30 25 C 0.1535 -6.3555 0.0 0
M  V30 26 C 1.0395 -3.9102 0.0 0
M  V30 27 C -0.1181 -4.8671 0.0 0
M  V30 28 N -1.5357 -4.3473 0.0 0
M  V30 29 C -1.8074 -2.8588 0.0 0
M  V30 30 C -2.6934 -5.3041 0.0 0
M  V30 31 C -3.225 -2.339 0.0 0
M  V30 32 C -4.111 -4.7844 0.0 0
M  V30 33 N -4.3827 -3.2959 0.0 0
M  V30 34 C -5.8003 -2.7761 0.0 0
M  V30 35 C -6.072 -1.2876 0.0 0
M  V30 END ATOM
M  V30 BEGIN BOND
M  V30 1 2 1 2
M  V30 2 2 1 3
M  V30 3 1 1 4
M  V30 4 1 1 5
M  V30 5 1 4 6
M  V30 6 2 6 7
M  V30 7 1 6 8
M  V30 8 1 7 9
M  V30 9 2 8 10
M  V30 10 1 9 11
M  V30 11 2 9 12
M  V30 12 1 11 13
M  V30 13 2 11 14
M  V30 14 2 13 15
M  V30 15 1 13 16
M  V30 16 1 14 17
M  V30 17 1 15 18
M  V30 18 2 16 19
M  V30 19 2 18 20
M  V30 20 1 18 21
M  V30 21 1 21 22
M  V30 22 2 22 23
M  V30 23 1 22 24
M  V30 24 1 23 25
M  V30 25 2 24 26
M  V30 26 2 25 27
M  V30 27 1 27 28
M  V30 28 1 28 29
M  V30 29 1 28 30
M  V30 30 1 29 31
M  V30 31 1 30 32
M  V30 32 1 31 33
M  V30 33 1 33 34
M  V30 34 1 34 35
M  V30 35 1 10 12
M  V30 36 1 16 17
M  V30 37 1 19 20
M  V30 38 1 26 27
M  V30 39 1 32 33
M  V30 END BOND
M  V30 END CTAB
M  END
>  <Compound ID>
210

>  <Name>


>  <Uniprot>
Q14289

>  <Target>
PTK2B

>  <Smiles>
CCN1CCN(C2=CC=C(NC3=NC=C4SC=C(C5=CC=CC(NS(C)(=O)=O)=C5)C4=N3)C=C2)CC1

>  <Kd (nM)>


>  <Assay (Kd)>


>  <Ki (nM)>


>  <Assay (Ki)>


>  <IC50 (nM)>


>  <Assay (IC50)>


>  <EC50 (nM)>


>  <Assay (EC50)>


>  <Article DOI>
10.1016/j.cell.2020.10.038

>  <Molecular Weight>
508.673

>  <Exact Mass>
508.171516136

>  <XLogP3>
4.08

>  <Heavy Atom Count>
35

>  <Ring Count>
5

>  <Hydrogen Bond Acceptor Count>
8

>  <Hydrogen Bond Donor Count>
2

>  <Rotatable Bond Count>
7

>  <Topological Polar Surface Area>
90.46

>  <Molecular Formula>
C25H28N6O2S2

>  <InChI>
InChI=1S/C25H28N6O2S2/c1-3-30-11-13-31(14-12-30)21-9-7-19(8-10-21)27-25-26-16-23-24(28-25)22(17-34-23)18-5-4-6-20(15-18)29-35(2,32)33/h4-10,15-17,29H,3,11-14H2,1-2H3,(H,26,27,28)

>  <InChI Key>
MQMVBXQAIMTOTQ-UHFFFAOYSA-N

>  <BindingDB>


>  <PubChem>
90466261

>  <ChEMBL>


$$$$
Compound 680
Actelion Java MolfileCreator 2.0

  0  0  0  0  0  0              0 V3000
M  V30 BEGIN CTAB
M  V30 COUNTS 35 39 0 0 0
M  V30 BEGIN ATOM
M  V30 1 S 0.0 0.0 0.0 0
M  V30 2 O 0.9096 1.1931 0.0 0
M  V30 3 O -0.9332 -1.1695 0.0 0
M  V30 4 N 1.1695 -0.9096 0.0 0
M  V30 5 C -1.1931 0.9332 0.0 0
M  V30 6 C 2.5516 -0.3307 0.0 0
M  V30 7 C 3.7212 -1.2404 0.0 0
M  V30 8 C 2.7525 1.1695 0.0 0
M  V30 9 C 5.1033 -0.6615 0.0 0
M  V30 10 C 4.1346 1.7483 0.0 0
M  V30 11 C 6.2728 -1.5711 0.0 0
M  V30 12 C 5.3041 0.8387 0.0 0
M  V30 13 C 6.2138 -3.0596 0.0 0
M  V30 14 C 7.7023 -1.1458 0.0 0
M  V30 15 N 5.0561 -4.0165 0.0 0
M  V30 16 C 7.6078 -3.5558 0.0 0
M  V30 17 S 8.5292 -2.3744 0.0 0
M  V30 18 C 5.3041 -5.4814 0.0 0
M  V30 19 C 7.8558 -5.0206 0.0 0
M  V30 20 N 6.6981 -5.9775 0.0 0
M  V30 21 N 4.1464 -6.4382 0.0 0
M  V30 22 C 2.7288 -5.9184 0.0 0
M  V30 23 C 1.5711 -6.8753 0.0 0
M  V30 24 C 2.4571 -4.43 0.0 0
M  V30 25 C 0.1535 -6.3555 0.0 0
M  V30 26 C 1.0395 -3.9102 0.0 0
M  V30 27 C -0.1181 -4.8671 0.0 0
M  V30 28 N -1.5357 -4.3473 0.0 0
M  V30 29 C -1.8074 -2.8588 0.0 0
M  V30 30 C -2.6934 -5.3041 0.0 0
M  V30 31 C -3.225 -2.339 0.0 0
M  V30 32 C -4.111 -4.7844 0.0 0
M  V30 33 N -4.3827 -3.2959 0.0 0
M  V30 34 C -5.8003 -2.7761 0.0 0
M  V30 35 C -6.072 -1.2876 0.0 0
M  V30 END ATOM
M  V30 BEGIN BOND
M  V30 1 2 1 2
M  V30 2 2 1 3
M  V30 3 1 1 4
M  V30 4 1 1 5
M  V30 5 1 4 6
M  V30 6 2 6 7
M  V30 7 1 6 8
M  V30 8 1 7 9
M  V30 9 2 8 10
M  V30 10 1 9 11
M  V30 11 2 9 12
M  V30 12 1 11 13
M  V30 13 2 11 14
M  V30 14 2 13 15
M  V30 15 1 13 16
M  V30 16 1 14 17
M  V30 17 1 15 18
M  V30 18 2 16 19
M  V30 19 2 18 20
M  V30 20 1 18 21
M  V30 21 1 21 22
M  V30 22 2 22 23
M  V30 23 1 22 24
M  V30 24 1 23 25
M  V30 25 2 24 26
M  V30 26 2 25 27
M  V30 27 1 27 28
M  V30 28 1 28 29
M  V30 29 1 28 30
M  V30 30 1 29 31
M  V30 31 1 30 32
M  V30 32 1 31 33
M  V30 33 1 33 34
M  V30 34 1 34 35
M  V30 35 1 10 12
M  V30 36 1 16 17
M  V30 37 1 19 20
M  V30 38 1 26 27
M  V30 39 1 32 33
M  V30 END BOND
M  V30 END CTAB
M  END
>  <Compound ID>
210

>  <Name>


>  <Uniprot>
P23443

>  <Target>
RPS6KB1

>  <Smiles>
CCN1CCN(C2=CC=C(NC3=NC=C4SC=C(C5=CC=CC(NS(C)(=O)=O)=C5)C4=N3)C=C2)CC1

>  <Kd (nM)>


>  <Assay (Kd)>


>  <Ki (nM)>


>  <Assay (Ki)>


>  <IC50 (nM)>


>  <Assay (IC50)>


>  <EC50 (nM)>


>  <Assay (EC50)>


>  <Article DOI>
10.1016/j.cell.2020.10.038

>  <Molecular Weight>
508.673

>  <Exact Mass>
508.171516136

>  <XLogP3>
4.08

>  <Heavy Atom Count>
35

>  <Ring Count>
5

>  <Hydrogen Bond Acceptor Count>
8

>  <Hydrogen Bond Donor Count>
2

>  <Rotatable Bond Count>
7

>  <Topological Polar Surface Area>
90.46

>  <Molecular Formula>
C25H28N6O2S2

>  <InChI>
InChI=1S/C25H28N6O2S2/c1-3-30-11-13-31(14-12-30)21-9-7-19(8-10-21)27-25-26-16-23-24(28-25)22(17-34-23)18-5-4-6-20(15-18)29-35(2,32)33/h4-10,15-17,29H,3,11-14H2,1-2H3,(H,26,27,28)

>  <InChI Key>
MQMVBXQAIMTOTQ-UHFFFAOYSA-N

>  <BindingDB>


>  <PubChem>
90466261

>  <ChEMBL>


$$$$
Compound 681
Actelion Java MolfileCreator 2.0

  0  0  0  0  0  0              0 V3000
M  V30 BEGIN CTAB
M  V30 COUNTS 35 39 0 0 0
M  V30 BEGIN ATOM
M  V30 1 S 0.0 0.0 0.0 0
M  V30 2 O 0.9096 1.1931 0.0 0
M  V30 3 O -0.9332 -1.1695 0.0 0
M  V30 4 N 1.1695 -0.9096 0.0 0
M  V30 5 C -1.1931 0.9332 0.0 0
M  V30 6 C 2.5516 -0.3307 0.0 0
M  V30 7 C 3.7212 -1.2404 0.0 0
M  V30 8 C 2.7525 1.1695 0.0 0
M  V30 9 C 5.1033 -0.6615 0.0 0
M  V30 10 C 4.1346 1.7483 0.0 0
M  V30 11 C 6.2728 -1.5711 0.0 0
M  V30 12 C 5.3041 0.8387 0.0 0
M  V30 13 C 6.2138 -3.0596 0.0 0
M  V30 14 C 7.7023 -1.1458 0.0 0
M  V30 15 N 5.0561 -4.0165 0.0 0
M  V30 16 C 7.6078 -3.5558 0.0 0
M  V30 17 S 8.5292 -2.3744 0.0 0
M  V30 18 C 5.3041 -5.4814 0.0 0
M  V30 19 C 7.8558 -5.0206 0.0 0
M  V30 20 N 6.6981 -5.9775 0.0 0
M  V30 21 N 4.1464 -6.4382 0.0 0
M  V30 22 C 2.7288 -5.9184 0.0 0
M  V30 23 C 1.5711 -6.8753 0.0 0
M  V30 24 C 2.4571 -4.43 0.0 0
M  V30 25 C 0.1535 -6.3555 0.0 0
M  V30 26 C 1.0395 -3.9102 0.0 0
M  V30 27 C -0.1181 -4.8671 0.0 0
M  V30 28 N -1.5357 -4.3473 0.0 0
M  V30 29 C -1.8074 -2.8588 0.0 0
M  V30 30 C -2.6934 -5.3041 0.0 0
M  V30 31 C -3.225 -2.339 0.0 0
M  V30 32 C -4.111 -4.7844 0.0 0
M  V30 33 N -4.3827 -3.2959 0.0 0
M  V30 34 C -5.8003 -2.7761 0.0 0
M  V30 35 C -6.072 -1.2876 0.0 0
M  V30 END ATOM
M  V30 BEGIN BOND
M  V30 1 2 1 2
M  V30 2 2 1 3
M  V30 3 1 1 4
M  V30 4 1 1 5
M  V30 5 1 4 6
M  V30 6 2 6 7
M  V30 7 1 6 8
M  V30 8 1 7 9
M  V30 9 2 8 10
M  V30 10 1 9 11
M  V30 11 2 9 12
M  V30 12 1 11 13
M  V30 13 2 11 14
M  V30 14 2 13 15
M  V30 15 1 13 16
M  V30 16 1 14 17
M  V30 17 1 15 18
M  V30 18 2 16 19
M  V30 19 2 18 20
M  V30 20 1 18 21
M  V30 21 1 21 22
M  V30 22 2 22 23
M  V30 23 1 22 24
M  V30 24 1 23 25
M  V30 25 2 24 26
M  V30 26 2 25 27
M  V30 27 1 27 28
M  V30 28 1 28 29
M  V30 29 1 28 30
M  V30 30 1 29 31
M  V30 31 1 30 32
M  V30 32 1 31 33
M  V30 33 1 33 34
M  V30 34 1 34 35
M  V30 35 1 10 12
M  V30 36 1 16 17
M  V30 37 1 19 20
M  V30 38 1 26 27
M  V30 39 1 32 33
M  V30 END BOND
M  V30 END CTAB
M  END
>  <Compound ID>
210

>  <Name>


>  <Uniprot>
Q9H0K1

>  <Target>
SIK2

>  <Smiles>
CCN1CCN(C2=CC=C(NC3=NC=C4SC=C(C5=CC=CC(NS(C)(=O)=O)=C5)C4=N3)C=C2)CC1

>  <Kd (nM)>


>  <Assay (Kd)>


>  <Ki (nM)>


>  <Assay (Ki)>


>  <IC50 (nM)>


>  <Assay (IC50)>


>  <EC50 (nM)>


>  <Assay (EC50)>


>  <Article DOI>
10.1016/j.cell.2020.10.038

>  <Molecular Weight>
508.673

>  <Exact Mass>
508.171516136

>  <XLogP3>
4.08

>  <Heavy Atom Count>
35

>  <Ring Count>
5

>  <Hydrogen Bond Acceptor Count>
8

>  <Hydrogen Bond Donor Count>
2

>  <Rotatable Bond Count>
7

>  <Topological Polar Surface Area>
90.46

>  <Molecular Formula>
C25H28N6O2S2

>  <InChI>
InChI=1S/C25H28N6O2S2/c1-3-30-11-13-31(14-12-30)21-9-7-19(8-10-21)27-25-26-16-23-24(28-25)22(17-34-23)18-5-4-6-20(15-18)29-35(2,32)33/h4-10,15-17,29H,3,11-14H2,1-2H3,(H,26,27,28)

>  <InChI Key>
MQMVBXQAIMTOTQ-UHFFFAOYSA-N

>  <BindingDB>


>  <PubChem>
90466261

>  <ChEMBL>


$$$$
Compound 682
Actelion Java MolfileCreator 2.0

  0  0  0  0  0  0              0 V3000
M  V30 BEGIN CTAB
M  V30 COUNTS 35 39 0 0 0
M  V30 BEGIN ATOM
M  V30 1 S 0.0 0.0 0.0 0
M  V30 2 O 0.9096 1.1931 0.0 0
M  V30 3 O -0.9332 -1.1695 0.0 0
M  V30 4 N 1.1695 -0.9096 0.0 0
M  V30 5 C -1.1931 0.9332 0.0 0
M  V30 6 C 2.5516 -0.3307 0.0 0
M  V30 7 C 3.7212 -1.2404 0.0 0
M  V30 8 C 2.7525 1.1695 0.0 0
M  V30 9 C 5.1033 -0.6615 0.0 0
M  V30 10 C 4.1346 1.7483 0.0 0
M  V30 11 C 6.2728 -1.5711 0.0 0
M  V30 12 C 5.3041 0.8387 0.0 0
M  V30 13 C 6.2138 -3.0596 0.0 0
M  V30 14 C 7.7023 -1.1458 0.0 0
M  V30 15 N 5.0561 -4.0165 0.0 0
M  V30 16 C 7.6078 -3.5558 0.0 0
M  V30 17 S 8.5292 -2.3744 0.0 0
M  V30 18 C 5.3041 -5.4814 0.0 0
M  V30 19 C 7.8558 -5.0206 0.0 0
M  V30 20 N 6.6981 -5.9775 0.0 0
M  V30 21 N 4.1464 -6.4382 0.0 0
M  V30 22 C 2.7288 -5.9184 0.0 0
M  V30 23 C 1.5711 -6.8753 0.0 0
M  V30 24 C 2.4571 -4.43 0.0 0
M  V30 25 C 0.1535 -6.3555 0.0 0
M  V30 26 C 1.0395 -3.9102 0.0 0
M  V30 27 C -0.1181 -4.8671 0.0 0
M  V30 28 N -1.5357 -4.3473 0.0 0
M  V30 29 C -1.8074 -2.8588 0.0 0
M  V30 30 C -2.6934 -5.3041 0.0 0
M  V30 31 C -3.225 -2.339 0.0 0
M  V30 32 C -4.111 -4.7844 0.0 0
M  V30 33 N -4.3827 -3.2959 0.0 0
M  V30 34 C -5.8003 -2.7761 0.0 0
M  V30 35 C -6.072 -1.2876 0.0 0
M  V30 END ATOM
M  V30 BEGIN BOND
M  V30 1 2 1 2
M  V30 2 2 1 3
M  V30 3 1 1 4
M  V30 4 1 1 5
M  V30 5 1 4 6
M  V30 6 2 6 7
M  V30 7 1 6 8
M  V30 8 1 7 9
M  V30 9 2 8 10
M  V30 10 1 9 11
M  V30 11 2 9 12
M  V30 12 1 11 13
M  V30 13 2 11 14
M  V30 14 2 13 15
M  V30 15 1 13 16
M  V30 16 1 14 17
M  V30 17 1 15 18
M  V30 18 2 16 19
M  V30 19 2 18 20
M  V30 20 1 18 21
M  V30 21 1 21 22
M  V30 22 2 22 23
M  V30 23 1 22 24
M  V30 24 1 23 25
M  V30 25 2 24 26
M  V30 26 2 25 27
M  V30 27 1 27 28
M  V30 28 1 28 29
M  V30 29 1 28 30
M  V30 30 1 29 31
M  V30 31 1 30 32
M  V30 32 1 31 33
M  V30 33 1 33 34
M  V30 34 1 34 35
M  V30 35 1 10 12
M  V30 36 1 16 17
M  V30 37 1 19 20
M  V30 38 1 26 27
M  V30 39 1 32 33
M  V30 END BOND
M  V30 END CTAB
M  END
>  <Compound ID>
210

>  <Name>


>  <Uniprot>
Q9NRH2

>  <Target>
SNRK

>  <Smiles>
CCN1CCN(C2=CC=C(NC3=NC=C4SC=C(C5=CC=CC(NS(C)(=O)=O)=C5)C4=N3)C=C2)CC1

>  <Kd (nM)>


>  <Assay (Kd)>


>  <Ki (nM)>


>  <Assay (Ki)>


>  <IC50 (nM)>


>  <Assay (IC50)>


>  <EC50 (nM)>


>  <Assay (EC50)>


>  <Article DOI>
10.1016/j.cell.2020.10.038

>  <Molecular Weight>
508.673

>  <Exact Mass>
508.171516136

>  <XLogP3>
4.08

>  <Heavy Atom Count>
35

>  <Ring Count>
5

>  <Hydrogen Bond Acceptor Count>
8

>  <Hydrogen Bond Donor Count>
2

>  <Rotatable Bond Count>
7

>  <Topological Polar Surface Area>
90.46

>  <Molecular Formula>
C25H28N6O2S2

>  <InChI>
InChI=1S/C25H28N6O2S2/c1-3-30-11-13-31(14-12-30)21-9-7-19(8-10-21)27-25-26-16-23-24(28-25)22(17-34-23)18-5-4-6-20(15-18)29-35(2,32)33/h4-10,15-17,29H,3,11-14H2,1-2H3,(H,26,27,28)

>  <InChI Key>
MQMVBXQAIMTOTQ-UHFFFAOYSA-N

>  <BindingDB>


>  <PubChem>
90466261

>  <ChEMBL>


$$$$
Compound 683
Actelion Java MolfileCreator 2.0

  0  0  0  0  0  0              0 V3000
M  V30 BEGIN CTAB
M  V30 COUNTS 35 39 0 0 0
M  V30 BEGIN ATOM
M  V30 1 S 0.0 0.0 0.0 0
M  V30 2 O 0.9096 1.1931 0.0 0
M  V30 3 O -0.9332 -1.1695 0.0 0
M  V30 4 N 1.1695 -0.9096 0.0 0
M  V30 5 C -1.1931 0.9332 0.0 0
M  V30 6 C 2.5516 -0.3307 0.0 0
M  V30 7 C 3.7212 -1.2404 0.0 0
M  V30 8 C 2.7525 1.1695 0.0 0
M  V30 9 C 5.1033 -0.6615 0.0 0
M  V30 10 C 4.1346 1.7483 0.0 0
M  V30 11 C 6.2728 -1.5711 0.0 0
M  V30 12 C 5.3041 0.8387 0.0 0
M  V30 13 C 6.2138 -3.0596 0.0 0
M  V30 14 C 7.7023 -1.1458 0.0 0
M  V30 15 N 5.0561 -4.0165 0.0 0
M  V30 16 C 7.6078 -3.5558 0.0 0
M  V30 17 S 8.5292 -2.3744 0.0 0
M  V30 18 C 5.3041 -5.4814 0.0 0
M  V30 19 C 7.8558 -5.0206 0.0 0
M  V30 20 N 6.6981 -5.9775 0.0 0
M  V30 21 N 4.1464 -6.4382 0.0 0
M  V30 22 C 2.7288 -5.9184 0.0 0
M  V30 23 C 1.5711 -6.8753 0.0 0
M  V30 24 C 2.4571 -4.43 0.0 0
M  V30 25 C 0.1535 -6.3555 0.0 0
M  V30 26 C 1.0395 -3.9102 0.0 0
M  V30 27 C -0.1181 -4.8671 0.0 0
M  V30 28 N -1.5357 -4.3473 0.0 0
M  V30 29 C -1.8074 -2.8588 0.0 0
M  V30 30 C -2.6934 -5.3041 0.0 0
M  V30 31 C -3.225 -2.339 0.0 0
M  V30 32 C -4.111 -4.7844 0.0 0
M  V30 33 N -4.3827 -3.2959 0.0 0
M  V30 34 C -5.8003 -2.7761 0.0 0
M  V30 35 C -6.072 -1.2876 0.0 0
M  V30 END ATOM
M  V30 BEGIN BOND
M  V30 1 2 1 2
M  V30 2 2 1 3
M  V30 3 1 1 4
M  V30 4 1 1 5
M  V30 5 1 4 6
M  V30 6 2 6 7
M  V30 7 1 6 8
M  V30 8 1 7 9
M  V30 9 2 8 10
M  V30 10 1 9 11
M  V30 11 2 9 12
M  V30 12 1 11 13
M  V30 13 2 11 14
M  V30 14 2 13 15
M  V30 15 1 13 16
M  V30 16 1 14 17
M  V30 17 1 15 18
M  V30 18 2 16 19
M  V30 19 2 18 20
M  V30 20 1 18 21
M  V30 21 1 21 22
M  V30 22 2 22 23
M  V30 23 1 22 24
M  V30 24 1 23 25
M  V30 25 2 24 26
M  V30 26 2 25 27
M  V30 27 1 27 28
M  V30 28 1 28 29
M  V30 29 1 28 30
M  V30 30 1 29 31
M  V30 31 1 30 32
M  V30 32 1 31 33
M  V30 33 1 33 34
M  V30 34 1 34 35
M  V30 35 1 10 12
M  V30 36 1 16 17
M  V30 37 1 19 20
M  V30 38 1 26 27
M  V30 39 1 32 33
M  V30 END BOND
M  V30 END CTAB
M  END
>  <Compound ID>
210

>  <Name>


>  <Uniprot>
Q9UEE5

>  <Target>
STK17A

>  <Smiles>
CCN1CCN(C2=CC=C(NC3=NC=C4SC=C(C5=CC=CC(NS(C)(=O)=O)=C5)C4=N3)C=C2)CC1

>  <Kd (nM)>


>  <Assay (Kd)>


>  <Ki (nM)>


>  <Assay (Ki)>


>  <IC50 (nM)>


>  <Assay (IC50)>


>  <EC50 (nM)>


>  <Assay (EC50)>


>  <Article DOI>
10.1016/j.cell.2020.10.038

>  <Molecular Weight>
508.673

>  <Exact Mass>
508.171516136

>  <XLogP3>
4.08

>  <Heavy Atom Count>
35

>  <Ring Count>
5

>  <Hydrogen Bond Acceptor Count>
8

>  <Hydrogen Bond Donor Count>
2

>  <Rotatable Bond Count>
7

>  <Topological Polar Surface Area>
90.46

>  <Molecular Formula>
C25H28N6O2S2

>  <InChI>
InChI=1S/C25H28N6O2S2/c1-3-30-11-13-31(14-12-30)21-9-7-19(8-10-21)27-25-26-16-23-24(28-25)22(17-34-23)18-5-4-6-20(15-18)29-35(2,32)33/h4-10,15-17,29H,3,11-14H2,1-2H3,(H,26,27,28)

>  <InChI Key>
MQMVBXQAIMTOTQ-UHFFFAOYSA-N

>  <BindingDB>


>  <PubChem>
90466261

>  <ChEMBL>


$$$$
Compound 684
Actelion Java MolfileCreator 2.0

  0  0  0  0  0  0              0 V3000
M  V30 BEGIN CTAB
M  V30 COUNTS 35 39 0 0 0
M  V30 BEGIN ATOM
M  V30 1 S 0.0 0.0 0.0 0
M  V30 2 O 0.9096 1.1931 0.0 0
M  V30 3 O -0.9332 -1.1695 0.0 0
M  V30 4 N 1.1695 -0.9096 0.0 0
M  V30 5 C -1.1931 0.9332 0.0 0
M  V30 6 C 2.5516 -0.3307 0.0 0
M  V30 7 C 3.7212 -1.2404 0.0 0
M  V30 8 C 2.7525 1.1695 0.0 0
M  V30 9 C 5.1033 -0.6615 0.0 0
M  V30 10 C 4.1346 1.7483 0.0 0
M  V30 11 C 6.2728 -1.5711 0.0 0
M  V30 12 C 5.3041 0.8387 0.0 0
M  V30 13 C 6.2138 -3.0596 0.0 0
M  V30 14 C 7.7023 -1.1458 0.0 0
M  V30 15 N 5.0561 -4.0165 0.0 0
M  V30 16 C 7.6078 -3.5558 0.0 0
M  V30 17 S 8.5292 -2.3744 0.0 0
M  V30 18 C 5.3041 -5.4814 0.0 0
M  V30 19 C 7.8558 -5.0206 0.0 0
M  V30 20 N 6.6981 -5.9775 0.0 0
M  V30 21 N 4.1464 -6.4382 0.0 0
M  V30 22 C 2.7288 -5.9184 0.0 0
M  V30 23 C 1.5711 -6.8753 0.0 0
M  V30 24 C 2.4571 -4.43 0.0 0
M  V30 25 C 0.1535 -6.3555 0.0 0
M  V30 26 C 1.0395 -3.9102 0.0 0
M  V30 27 C -0.1181 -4.8671 0.0 0
M  V30 28 N -1.5357 -4.3473 0.0 0
M  V30 29 C -1.8074 -2.8588 0.0 0
M  V30 30 C -2.6934 -5.3041 0.0 0
M  V30 31 C -3.225 -2.339 0.0 0
M  V30 32 C -4.111 -4.7844 0.0 0
M  V30 33 N -4.3827 -3.2959 0.0 0
M  V30 34 C -5.8003 -2.7761 0.0 0
M  V30 35 C -6.072 -1.2876 0.0 0
M  V30 END ATOM
M  V30 BEGIN BOND
M  V30 1 2 1 2
M  V30 2 2 1 3
M  V30 3 1 1 4
M  V30 4 1 1 5
M  V30 5 1 4 6
M  V30 6 2 6 7
M  V30 7 1 6 8
M  V30 8 1 7 9
M  V30 9 2 8 10
M  V30 10 1 9 11
M  V30 11 2 9 12
M  V30 12 1 11 13
M  V30 13 2 11 14
M  V30 14 2 13 15
M  V30 15 1 13 16
M  V30 16 1 14 17
M  V30 17 1 15 18
M  V30 18 2 16 19
M  V30 19 2 18 20
M  V30 20 1 18 21
M  V30 21 1 21 22
M  V30 22 2 22 23
M  V30 23 1 22 24
M  V30 24 1 23 25
M  V30 25 2 24 26
M  V30 26 2 25 27
M  V30 27 1 27 28
M  V30 28 1 28 29
M  V30 29 1 28 30
M  V30 30 1 29 31
M  V30 31 1 30 32
M  V30 32 1 31 33
M  V30 33 1 33 34
M  V30 34 1 34 35
M  V30 35 1 10 12
M  V30 36 1 16 17
M  V30 37 1 19 20
M  V30 38 1 26 27
M  V30 39 1 32 33
M  V30 END BOND
M  V30 END CTAB
M  END
>  <Compound ID>
210

>  <Name>


>  <Uniprot>
O94768

>  <Target>
STK17B

>  <Smiles>
CCN1CCN(C2=CC=C(NC3=NC=C4SC=C(C5=CC=CC(NS(C)(=O)=O)=C5)C4=N3)C=C2)CC1

>  <Kd (nM)>


>  <Assay (Kd)>


>  <Ki (nM)>


>  <Assay (Ki)>


>  <IC50 (nM)>


>  <Assay (IC50)>


>  <EC50 (nM)>


>  <Assay (EC50)>


>  <Article DOI>
10.1016/j.cell.2020.10.038

>  <Molecular Weight>
508.673

>  <Exact Mass>
508.171516136

>  <XLogP3>
4.08

>  <Heavy Atom Count>
35

>  <Ring Count>
5

>  <Hydrogen Bond Acceptor Count>
8

>  <Hydrogen Bond Donor Count>
2

>  <Rotatable Bond Count>
7

>  <Topological Polar Surface Area>
90.46

>  <Molecular Formula>
C25H28N6O2S2

>  <InChI>
InChI=1S/C25H28N6O2S2/c1-3-30-11-13-31(14-12-30)21-9-7-19(8-10-21)27-25-26-16-23-24(28-25)22(17-34-23)18-5-4-6-20(15-18)29-35(2,32)33/h4-10,15-17,29H,3,11-14H2,1-2H3,(H,26,27,28)

>  <InChI Key>
MQMVBXQAIMTOTQ-UHFFFAOYSA-N

>  <BindingDB>


>  <PubChem>
90466261

>  <ChEMBL>


$$$$
Compound 685
Actelion Java MolfileCreator 2.0

  0  0  0  0  0  0              0 V3000
M  V30 BEGIN CTAB
M  V30 COUNTS 35 39 0 0 0
M  V30 BEGIN ATOM
M  V30 1 S 0.0 0.0 0.0 0
M  V30 2 O 0.9096 1.1931 0.0 0
M  V30 3 O -0.9332 -1.1695 0.0 0
M  V30 4 N 1.1695 -0.9096 0.0 0
M  V30 5 C -1.1931 0.9332 0.0 0
M  V30 6 C 2.5516 -0.3307 0.0 0
M  V30 7 C 3.7212 -1.2404 0.0 0
M  V30 8 C 2.7525 1.1695 0.0 0
M  V30 9 C 5.1033 -0.6615 0.0 0
M  V30 10 C 4.1346 1.7483 0.0 0
M  V30 11 C 6.2728 -1.5711 0.0 0
M  V30 12 C 5.3041 0.8387 0.0 0
M  V30 13 C 6.2138 -3.0596 0.0 0
M  V30 14 C 7.7023 -1.1458 0.0 0
M  V30 15 N 5.0561 -4.0165 0.0 0
M  V30 16 C 7.6078 -3.5558 0.0 0
M  V30 17 S 8.5292 -2.3744 0.0 0
M  V30 18 C 5.3041 -5.4814 0.0 0
M  V30 19 C 7.8558 -5.0206 0.0 0
M  V30 20 N 6.6981 -5.9775 0.0 0
M  V30 21 N 4.1464 -6.4382 0.0 0
M  V30 22 C 2.7288 -5.9184 0.0 0
M  V30 23 C 1.5711 -6.8753 0.0 0
M  V30 24 C 2.4571 -4.43 0.0 0
M  V30 25 C 0.1535 -6.3555 0.0 0
M  V30 26 C 1.0395 -3.9102 0.0 0
M  V30 27 C -0.1181 -4.8671 0.0 0
M  V30 28 N -1.5357 -4.3473 0.0 0
M  V30 29 C -1.8074 -2.8588 0.0 0
M  V30 30 C -2.6934 -5.3041 0.0 0
M  V30 31 C -3.225 -2.339 0.0 0
M  V30 32 C -4.111 -4.7844 0.0 0
M  V30 33 N -4.3827 -3.2959 0.0 0
M  V30 34 C -5.8003 -2.7761 0.0 0
M  V30 35 C -6.072 -1.2876 0.0 0
M  V30 END ATOM
M  V30 BEGIN BOND
M  V30 1 2 1 2
M  V30 2 2 1 3
M  V30 3 1 1 4
M  V30 4 1 1 5
M  V30 5 1 4 6
M  V30 6 2 6 7
M  V30 7 1 6 8
M  V30 8 1 7 9
M  V30 9 2 8 10
M  V30 10 1 9 11
M  V30 11 2 9 12
M  V30 12 1 11 13
M  V30 13 2 11 14
M  V30 14 2 13 15
M  V30 15 1 13 16
M  V30 16 1 14 17
M  V30 17 1 15 18
M  V30 18 2 16 19
M  V30 19 2 18 20
M  V30 20 1 18 21
M  V30 21 1 21 22
M  V30 22 2 22 23
M  V30 23 1 22 24
M  V30 24 1 23 25
M  V30 25 2 24 26
M  V30 26 2 25 27
M  V30 27 1 27 28
M  V30 28 1 28 29
M  V30 29 1 28 30
M  V30 30 1 29 31
M  V30 31 1 30 32
M  V30 32 1 31 33
M  V30 33 1 33 34
M  V30 34 1 34 35
M  V30 35 1 10 12
M  V30 36 1 16 17
M  V30 37 1 19 20
M  V30 38 1 26 27
M  V30 39 1 32 33
M  V30 END BOND
M  V30 END CTAB
M  END
>  <Compound ID>
210

>  <Name>


>  <Uniprot>
Q8TDR2

>  <Target>
STK35

>  <Smiles>
CCN1CCN(C2=CC=C(NC3=NC=C4SC=C(C5=CC=CC(NS(C)(=O)=O)=C5)C4=N3)C=C2)CC1

>  <Kd (nM)>


>  <Assay (Kd)>


>  <Ki (nM)>


>  <Assay (Ki)>


>  <IC50 (nM)>


>  <Assay (IC50)>


>  <EC50 (nM)>


>  <Assay (EC50)>


>  <Article DOI>
10.1016/j.cell.2020.10.038

>  <Molecular Weight>
508.673

>  <Exact Mass>
508.171516136

>  <XLogP3>
4.08

>  <Heavy Atom Count>
35

>  <Ring Count>
5

>  <Hydrogen Bond Acceptor Count>
8

>  <Hydrogen Bond Donor Count>
2

>  <Rotatable Bond Count>
7

>  <Topological Polar Surface Area>
90.46

>  <Molecular Formula>
C25H28N6O2S2

>  <InChI>
InChI=1S/C25H28N6O2S2/c1-3-30-11-13-31(14-12-30)21-9-7-19(8-10-21)27-25-26-16-23-24(28-25)22(17-34-23)18-5-4-6-20(15-18)29-35(2,32)33/h4-10,15-17,29H,3,11-14H2,1-2H3,(H,26,27,28)

>  <InChI Key>
MQMVBXQAIMTOTQ-UHFFFAOYSA-N

>  <BindingDB>


>  <PubChem>
90466261

>  <ChEMBL>


$$$$
Compound 686
Actelion Java MolfileCreator 2.0

  0  0  0  0  0  0              0 V3000
M  V30 BEGIN CTAB
M  V30 COUNTS 35 39 0 0 0
M  V30 BEGIN ATOM
M  V30 1 S 0.0 0.0 0.0 0
M  V30 2 O 0.9096 1.1931 0.0 0
M  V30 3 O -0.9332 -1.1695 0.0 0
M  V30 4 N 1.1695 -0.9096 0.0 0
M  V30 5 C -1.1931 0.9332 0.0 0
M  V30 6 C 2.5516 -0.3307 0.0 0
M  V30 7 C 3.7212 -1.2404 0.0 0
M  V30 8 C 2.7525 1.1695 0.0 0
M  V30 9 C 5.1033 -0.6615 0.0 0
M  V30 10 C 4.1346 1.7483 0.0 0
M  V30 11 C 6.2728 -1.5711 0.0 0
M  V30 12 C 5.3041 0.8387 0.0 0
M  V30 13 C 6.2138 -3.0596 0.0 0
M  V30 14 C 7.7023 -1.1458 0.0 0
M  V30 15 N 5.0561 -4.0165 0.0 0
M  V30 16 C 7.6078 -3.5558 0.0 0
M  V30 17 S 8.5292 -2.3744 0.0 0
M  V30 18 C 5.3041 -5.4814 0.0 0
M  V30 19 C 7.8558 -5.0206 0.0 0
M  V30 20 N 6.6981 -5.9775 0.0 0
M  V30 21 N 4.1464 -6.4382 0.0 0
M  V30 22 C 2.7288 -5.9184 0.0 0
M  V30 23 C 1.5711 -6.8753 0.0 0
M  V30 24 C 2.4571 -4.43 0.0 0
M  V30 25 C 0.1535 -6.3555 0.0 0
M  V30 26 C 1.0395 -3.9102 0.0 0
M  V30 27 C -0.1181 -4.8671 0.0 0
M  V30 28 N -1.5357 -4.3473 0.0 0
M  V30 29 C -1.8074 -2.8588 0.0 0
M  V30 30 C -2.6934 -5.3041 0.0 0
M  V30 31 C -3.225 -2.339 0.0 0
M  V30 32 C -4.111 -4.7844 0.0 0
M  V30 33 N -4.3827 -3.2959 0.0 0
M  V30 34 C -5.8003 -2.7761 0.0 0
M  V30 35 C -6.072 -1.2876 0.0 0
M  V30 END ATOM
M  V30 BEGIN BOND
M  V30 1 2 1 2
M  V30 2 2 1 3
M  V30 3 1 1 4
M  V30 4 1 1 5
M  V30 5 1 4 6
M  V30 6 2 6 7
M  V30 7 1 6 8
M  V30 8 1 7 9
M  V30 9 2 8 10
M  V30 10 1 9 11
M  V30 11 2 9 12
M  V30 12 1 11 13
M  V30 13 2 11 14
M  V30 14 2 13 15
M  V30 15 1 13 16
M  V30 16 1 14 17
M  V30 17 1 15 18
M  V30 18 2 16 19
M  V30 19 2 18 20
M  V30 20 1 18 21
M  V30 21 1 21 22
M  V30 22 2 22 23
M  V30 23 1 22 24
M  V30 24 1 23 25
M  V30 25 2 24 26
M  V30 26 2 25 27
M  V30 27 1 27 28
M  V30 28 1 28 29
M  V30 29 1 28 30
M  V30 30 1 29 31
M  V30 31 1 30 32
M  V30 32 1 31 33
M  V30 33 1 33 34
M  V30 34 1 34 35
M  V30 35 1 10 12
M  V30 36 1 16 17
M  V30 37 1 19 20
M  V30 38 1 26 27
M  V30 39 1 32 33
M  V30 END BOND
M  V30 END CTAB
M  END
>  <Compound ID>
210

>  <Name>


>  <Uniprot>
O75385

>  <Target>
ULK1

>  <Smiles>
CCN1CCN(C2=CC=C(NC3=NC=C4SC=C(C5=CC=CC(NS(C)(=O)=O)=C5)C4=N3)C=C2)CC1

>  <Kd (nM)>


>  <Assay (Kd)>


>  <Ki (nM)>


>  <Assay (Ki)>


>  <IC50 (nM)>


>  <Assay (IC50)>


>  <EC50 (nM)>


>  <Assay (EC50)>


>  <Article DOI>
10.1016/j.cell.2020.10.038

>  <Molecular Weight>
508.673

>  <Exact Mass>
508.171516136

>  <XLogP3>
4.08

>  <Heavy Atom Count>
35

>  <Ring Count>
5

>  <Hydrogen Bond Acceptor Count>
8

>  <Hydrogen Bond Donor Count>
2

>  <Rotatable Bond Count>
7

>  <Topological Polar Surface Area>
90.46

>  <Molecular Formula>
C25H28N6O2S2

>  <InChI>
InChI=1S/C25H28N6O2S2/c1-3-30-11-13-31(14-12-30)21-9-7-19(8-10-21)27-25-26-16-23-24(28-25)22(17-34-23)18-5-4-6-20(15-18)29-35(2,32)33/h4-10,15-17,29H,3,11-14H2,1-2H3,(H,26,27,28)

>  <InChI Key>
MQMVBXQAIMTOTQ-UHFFFAOYSA-N

>  <BindingDB>


>  <PubChem>
90466261

>  <ChEMBL>


$$$$
Compound 687
Actelion Java MolfileCreator 2.0

  0  0  0  0  0  0              0 V3000
M  V30 BEGIN CTAB
M  V30 COUNTS 35 39 0 0 0
M  V30 BEGIN ATOM
M  V30 1 S 0.0 0.0 0.0 0
M  V30 2 O 0.9096 1.1931 0.0 0
M  V30 3 O -0.9332 -1.1695 0.0 0
M  V30 4 N 1.1695 -0.9096 0.0 0
M  V30 5 C -1.1931 0.9332 0.0 0
M  V30 6 C 2.5516 -0.3307 0.0 0
M  V30 7 C 3.7212 -1.2404 0.0 0
M  V30 8 C 2.7525 1.1695 0.0 0
M  V30 9 C 5.1033 -0.6615 0.0 0
M  V30 10 C 4.1346 1.7483 0.0 0
M  V30 11 C 6.2728 -1.5711 0.0 0
M  V30 12 C 5.3041 0.8387 0.0 0
M  V30 13 C 6.2138 -3.0596 0.0 0
M  V30 14 C 7.7023 -1.1458 0.0 0
M  V30 15 N 5.0561 -4.0165 0.0 0
M  V30 16 C 7.6078 -3.5558 0.0 0
M  V30 17 S 8.5292 -2.3744 0.0 0
M  V30 18 C 5.3041 -5.4814 0.0 0
M  V30 19 C 7.8558 -5.0206 0.0 0
M  V30 20 N 6.6981 -5.9775 0.0 0
M  V30 21 N 4.1464 -6.4382 0.0 0
M  V30 22 C 2.7288 -5.9184 0.0 0
M  V30 23 C 1.5711 -6.8753 0.0 0
M  V30 24 C 2.4571 -4.43 0.0 0
M  V30 25 C 0.1535 -6.3555 0.0 0
M  V30 26 C 1.0395 -3.9102 0.0 0
M  V30 27 C -0.1181 -4.8671 0.0 0
M  V30 28 N -1.5357 -4.3473 0.0 0
M  V30 29 C -1.8074 -2.8588 0.0 0
M  V30 30 C -2.6934 -5.3041 0.0 0
M  V30 31 C -3.225 -2.339 0.0 0
M  V30 32 C -4.111 -4.7844 0.0 0
M  V30 33 N -4.3827 -3.2959 0.0 0
M  V30 34 C -5.8003 -2.7761 0.0 0
M  V30 35 C -6.072 -1.2876 0.0 0
M  V30 END ATOM
M  V30 BEGIN BOND
M  V30 1 2 1 2
M  V30 2 2 1 3
M  V30 3 1 1 4
M  V30 4 1 1 5
M  V30 5 1 4 6
M  V30 6 2 6 7
M  V30 7 1 6 8
M  V30 8 1 7 9
M  V30 9 2 8 10
M  V30 10 1 9 11
M  V30 11 2 9 12
M  V30 12 1 11 13
M  V30 13 2 11 14
M  V30 14 2 13 15
M  V30 15 1 13 16
M  V30 16 1 14 17
M  V30 17 1 15 18
M  V30 18 2 16 19
M  V30 19 2 18 20
M  V30 20 1 18 21
M  V30 21 1 21 22
M  V30 22 2 22 23
M  V30 23 1 22 24
M  V30 24 1 23 25
M  V30 25 2 24 26
M  V30 26 2 25 27
M  V30 27 1 27 28
M  V30 28 1 28 29
M  V30 29 1 28 30
M  V30 30 1 29 31
M  V30 31 1 30 32
M  V30 32 1 31 33
M  V30 33 1 33 34
M  V30 34 1 34 35
M  V30 35 1 10 12
M  V30 36 1 16 17
M  V30 37 1 19 20
M  V30 38 1 26 27
M  V30 39 1 32 33
M  V30 END BOND
M  V30 END CTAB
M  END
>  <Compound ID>
210

>  <Name>


>  <Uniprot>
Q6PHR2

>  <Target>
ULK3

>  <Smiles>
CCN1CCN(C2=CC=C(NC3=NC=C4SC=C(C5=CC=CC(NS(C)(=O)=O)=C5)C4=N3)C=C2)CC1

>  <Kd (nM)>


>  <Assay (Kd)>


>  <Ki (nM)>


>  <Assay (Ki)>


>  <IC50 (nM)>


>  <Assay (IC50)>


>  <EC50 (nM)>


>  <Assay (EC50)>


>  <Article DOI>
10.1016/j.cell.2020.10.038

>  <Molecular Weight>
508.673

>  <Exact Mass>
508.171516136

>  <XLogP3>
4.08

>  <Heavy Atom Count>
35

>  <Ring Count>
5

>  <Hydrogen Bond Acceptor Count>
8

>  <Hydrogen Bond Donor Count>
2

>  <Rotatable Bond Count>
7

>  <Topological Polar Surface Area>
90.46

>  <Molecular Formula>
C25H28N6O2S2

>  <InChI>
InChI=1S/C25H28N6O2S2/c1-3-30-11-13-31(14-12-30)21-9-7-19(8-10-21)27-25-26-16-23-24(28-25)22(17-34-23)18-5-4-6-20(15-18)29-35(2,32)33/h4-10,15-17,29H,3,11-14H2,1-2H3,(H,26,27,28)

>  <InChI Key>
MQMVBXQAIMTOTQ-UHFFFAOYSA-N

>  <BindingDB>


>  <PubChem>
90466261

>  <ChEMBL>


$$$$
Compound 688
Actelion Java MolfileCreator 2.0

  0  0  0  0  0  0              0 V3000
M  V30 BEGIN CTAB
M  V30 COUNTS 35 39 0 0 0
M  V30 BEGIN ATOM
M  V30 1 S 0.0 0.0 0.0 0
M  V30 2 O 0.9096 1.1931 0.0 0
M  V30 3 O -0.9332 -1.1695 0.0 0
M  V30 4 N 1.1695 -0.9096 0.0 0
M  V30 5 C -1.1931 0.9332 0.0 0
M  V30 6 C 2.5516 -0.3307 0.0 0
M  V30 7 C 3.7212 -1.2404 0.0 0
M  V30 8 C 2.7525 1.1695 0.0 0
M  V30 9 C 5.1033 -0.6615 0.0 0
M  V30 10 C 4.1346 1.7483 0.0 0
M  V30 11 C 6.2728 -1.5711 0.0 0
M  V30 12 C 5.3041 0.8387 0.0 0
M  V30 13 C 6.2138 -3.0596 0.0 0
M  V30 14 C 7.7023 -1.1458 0.0 0
M  V30 15 N 5.0561 -4.0165 0.0 0
M  V30 16 C 7.6078 -3.5558 0.0 0
M  V30 17 S 8.5292 -2.3744 0.0 0
M  V30 18 C 5.3041 -5.4814 0.0 0
M  V30 19 C 7.8558 -5.0206 0.0 0
M  V30 20 N 6.6981 -5.9775 0.0 0
M  V30 21 N 4.1464 -6.4382 0.0 0
M  V30 22 C 2.7288 -5.9184 0.0 0
M  V30 23 C 1.5711 -6.8753 0.0 0
M  V30 24 C 2.4571 -4.43 0.0 0
M  V30 25 C 0.1535 -6.3555 0.0 0
M  V30 26 C 1.0395 -3.9102 0.0 0
M  V30 27 C -0.1181 -4.8671 0.0 0
M  V30 28 N -1.5357 -4.3473 0.0 0
M  V30 29 C -1.8074 -2.8588 0.0 0
M  V30 30 C -2.6934 -5.3041 0.0 0
M  V30 31 C -3.225 -2.339 0.0 0
M  V30 32 C -4.111 -4.7844 0.0 0
M  V30 33 N -4.3827 -3.2959 0.0 0
M  V30 34 C -5.8003 -2.7761 0.0 0
M  V30 35 C -6.072 -1.2876 0.0 0
M  V30 END ATOM
M  V30 BEGIN BOND
M  V30 1 2 1 2
M  V30 2 2 1 3
M  V30 3 1 1 4
M  V30 4 1 1 5
M  V30 5 1 4 6
M  V30 6 2 6 7
M  V30 7 1 6 8
M  V30 8 1 7 9
M  V30 9 2 8 10
M  V30 10 1 9 11
M  V30 11 2 9 12
M  V30 12 1 11 13
M  V30 13 2 11 14
M  V30 14 2 13 15
M  V30 15 1 13 16
M  V30 16 1 14 17
M  V30 17 1 15 18
M  V30 18 2 16 19
M  V30 19 2 18 20
M  V30 20 1 18 21
M  V30 21 1 21 22
M  V30 22 2 22 23
M  V30 23 1 22 24
M  V30 24 1 23 25
M  V30 25 2 24 26
M  V30 26 2 25 27
M  V30 27 1 27 28
M  V30 28 1 28 29
M  V30 29 1 28 30
M  V30 30 1 29 31
M  V30 31 1 30 32
M  V30 32 1 31 33
M  V30 33 1 33 34
M  V30 34 1 34 35
M  V30 35 1 10 12
M  V30 36 1 16 17
M  V30 37 1 19 20
M  V30 38 1 26 27
M  V30 39 1 32 33
M  V30 END BOND
M  V30 END CTAB
M  END
>  <Compound ID>
210

>  <Name>


>  <Uniprot>
P30291

>  <Target>
Wee1

>  <Smiles>
CCN1CCN(C2=CC=C(NC3=NC=C4SC=C(C5=CC=CC(NS(C)(=O)=O)=C5)C4=N3)C=C2)CC1

>  <Kd (nM)>


>  <Assay (Kd)>


>  <Ki (nM)>


>  <Assay (Ki)>


>  <IC50 (nM)>


>  <Assay (IC50)>


>  <EC50 (nM)>


>  <Assay (EC50)>


>  <Article DOI>
10.1016/j.cell.2020.10.038

>  <Molecular Weight>
508.673

>  <Exact Mass>
508.171516136

>  <XLogP3>
4.08

>  <Heavy Atom Count>
35

>  <Ring Count>
5

>  <Hydrogen Bond Acceptor Count>
8

>  <Hydrogen Bond Donor Count>
2

>  <Rotatable Bond Count>
7

>  <Topological Polar Surface Area>
90.46

>  <Molecular Formula>
C25H28N6O2S2

>  <InChI>
InChI=1S/C25H28N6O2S2/c1-3-30-11-13-31(14-12-30)21-9-7-19(8-10-21)27-25-26-16-23-24(28-25)22(17-34-23)18-5-4-6-20(15-18)29-35(2,32)33/h4-10,15-17,29H,3,11-14H2,1-2H3,(H,26,27,28)

>  <InChI Key>
MQMVBXQAIMTOTQ-UHFFFAOYSA-N

>  <BindingDB>


>  <PubChem>
90466261

>  <ChEMBL>


$$$$
Compound 689
Actelion Java MolfileCreator 2.0

  0  0  0  0  0  0              0 V3000
M  V30 BEGIN CTAB
M  V30 COUNTS 35 40 0 0 0
M  V30 BEGIN ATOM
M  V30 1 N 0.0 0.0 0.0 0
M  V30 2 C -0.2468 -1.4694 0.0 0
M  V30 3 C 1.3871 0.5407 0.0 0
M  V30 4 N 0.9051 -2.3981 0.0 0
M  V30 5 N -1.6575 -1.9866 0.0 0
M  V30 6 N 1.9161 1.9514 0.0 0
M  V30 7 C 2.5391 -0.3879 0.0 0
M  V30 8 C 2.2923 -1.8573 0.0 0
M  V30 9 C -2.833 -1.0344 0.0 0
M  V30 10 C 3.3973 1.8808 0.0 0
M  V30 11 C 1.0932 3.221 0.0 0
M  V30 12 N 3.7852 0.4349 0.0 0
M  V30 13 C -4.2437 -1.5517 0.0 0
M  V30 14 C -2.6097 0.4584 0.0 0
M  V30 15 N 4.326 3.0564 0.0 0
M  V30 16 C -0.4114 3.315 0.0 0
M  V30 17 C 1.6222 4.6316 0.0 0
M  V30 18 C -5.4193 -0.5995 0.0 0
M  V30 19 C -3.7852 1.4106 0.0 0
M  V30 20 C 5.7954 2.833 0.0 0
M  V30 21 C -0.8111 4.7727 0.0 0
M  V30 22 C 0.4467 5.5838 0.0 0
M  V30 23 C -5.1959 0.8934 0.0 0
M  V30 24 C 6.3127 1.4459 0.0 0
M  V30 25 C 6.7241 4.0086 0.0 0
M  V30 26 N -6.3715 1.8456 0.0 0
M  V30 27 C 7.7821 1.2225 0.0 0
M  V30 28 C 8.1936 3.7852 0.0 0
M  V30 29 C -6.1481 3.3385 0.0 0
M  V30 30 C -7.7821 1.3283 0.0 0
M  V30 31 C 8.7108 2.3981 0.0 0
M  V30 32 C -7.3237 4.2907 0.0 0
M  V30 33 C -8.9577 2.2805 0.0 0
M  V30 34 N -8.7343 3.7735 0.0 0
M  V30 35 C -9.9099 4.7257 0.0 0
M  V30 END ATOM
M  V30 BEGIN BOND
M  V30 1 2 1 2
M  V30 2 1 1 3
M  V30 3 1 2 4
M  V30 4 1 2 5
M  V30 5 1 3 6
M  V30 6 2 3 7
M  V30 7 2 4 8
M  V30 8 1 5 9
M  V30 9 1 6 10
M  V30 10 1 6 11
M  V30 11 1 7 12
M  V30 12 2 9 13
M  V30 13 1 9 14
M  V30 14 1 10 15
M  V30 15 1 11 16
M  V30 16 1 11 17
M  V30 17 1 13 18
M  V30 18 2 14 19
M  V30 19 1 15 20
M  V30 20 1 16 21
M  V30 21 1 17 22
M  V30 22 2 18 23
M  V30 23 2 20 24
M  V30 24 1 20 25
M  V30 25 1 23 26
M  V30 26 1 24 27
M  V30 27 2 25 28
M  V30 28 1 26 29
M  V30 29 1 26 30
M  V30 30 2 27 31
M  V30 31 1 29 32
M  V30 32 1 30 33
M  V30 33 1 32 34
M  V30 34 1 34 35
M  V30 35 1 7 8
M  V30 36 2 10 12
M  V30 37 1 19 23
M  V30 38 1 21 22
M  V30 39 1 28 31
M  V30 40 1 33 34
M  V30 END BOND
M  V30 END CTAB
M  END
>  <Compound ID>
211

>  <Name>


>  <Uniprot>
P00533

>  <Target>
EGFR e19d

>  <Smiles>
CN1CCN(C2=CC=C(NC3=NC=C4N=C(NC5=CC=CC=C5)N(C5CCCC5)C4=N3)C=C2)CC1

>  <Kd (nM)>


>  <Assay (Kd)>


>  <Ki (nM)>


>  <Assay (Ki)>


>  <IC50 (nM)>
0.82

>  <Assay (IC50)>
Inhibit proliferation of HCC827 (EGFRdel19) cells

>  <EC50 (nM)>


>  <Assay (EC50)>


>  <Article DOI>
10.1016/j.ejmech.2020.112781

>  <Molecular Weight>
468.609

>  <Exact Mass>
468.274993024

>  <XLogP3>
4.91

>  <Heavy Atom Count>
35

>  <Ring Count>
6

>  <Hydrogen Bond Acceptor Count>
8

>  <Hydrogen Bond Donor Count>
2

>  <Rotatable Bond Count>
6

>  <Topological Polar Surface Area>
74.14

>  <Molecular Formula>
C27H32N8

>  <InChI>
InChI=1S/C27H32N8/c1-33-15-17-34(18-16-33)22-13-11-21(12-14-22)29-26-28-19-24-25(32-26)35(23-9-5-6-10-23)27(31-24)30-20-7-3-2-4-8-20/h2-4,7-8,11-14,19,23H,5-6,9-10,15-18H2,1H3,(H,30,31)(H,28,29,32)

>  <InChI Key>
QPOURHROVVCOHC-UHFFFAOYSA-N

>  <BindingDB>
50399676

>  <PubChem>
54760383

>  <ChEMBL>
CHEMBL2178352

$$$$
Compound 690
Actelion Java MolfileCreator 2.0

  0  0  0  0  0  0              0 V3000
M  V30 BEGIN CTAB
M  V30 COUNTS 35 40 0 0 0
M  V30 BEGIN ATOM
M  V30 1 N 0.0 0.0 0.0 0
M  V30 2 C -0.2468 -1.4694 0.0 0
M  V30 3 C 1.3871 0.5407 0.0 0
M  V30 4 N 0.9051 -2.3981 0.0 0
M  V30 5 N -1.6575 -1.9866 0.0 0
M  V30 6 N 1.9161 1.9514 0.0 0
M  V30 7 C 2.5391 -0.3879 0.0 0
M  V30 8 C 2.2923 -1.8573 0.0 0
M  V30 9 C -2.833 -1.0344 0.0 0
M  V30 10 C 3.3973 1.8808 0.0 0
M  V30 11 C 1.0932 3.221 0.0 0
M  V30 12 N 3.7852 0.4349 0.0 0
M  V30 13 C -4.2437 -1.5517 0.0 0
M  V30 14 C -2.6097 0.4584 0.0 0
M  V30 15 N 4.326 3.0564 0.0 0
M  V30 16 C -0.4114 3.315 0.0 0
M  V30 17 C 1.6222 4.6316 0.0 0
M  V30 18 C -5.4193 -0.5995 0.0 0
M  V30 19 C -3.7852 1.4106 0.0 0
M  V30 20 C 5.7954 2.833 0.0 0
M  V30 21 C -0.8111 4.7727 0.0 0
M  V30 22 C 0.4467 5.5838 0.0 0
M  V30 23 C -5.1959 0.8934 0.0 0
M  V30 24 C 6.3127 1.4459 0.0 0
M  V30 25 C 6.7241 4.0086 0.0 0
M  V30 26 N -6.3715 1.8456 0.0 0
M  V30 27 C 7.7821 1.2225 0.0 0
M  V30 28 C 8.1936 3.7852 0.0 0
M  V30 29 C -6.1481 3.3385 0.0 0
M  V30 30 C -7.7821 1.3283 0.0 0
M  V30 31 C 8.7108 2.3981 0.0 0
M  V30 32 C -7.3237 4.2907 0.0 0
M  V30 33 C -8.9577 2.2805 0.0 0
M  V30 34 N -8.7343 3.7735 0.0 0
M  V30 35 C -9.9099 4.7257 0.0 0
M  V30 END ATOM
M  V30 BEGIN BOND
M  V30 1 2 1 2
M  V30 2 1 1 3
M  V30 3 1 2 4
M  V30 4 1 2 5
M  V30 5 1 3 6
M  V30 6 2 3 7
M  V30 7 2 4 8
M  V30 8 1 5 9
M  V30 9 1 6 10
M  V30 10 1 6 11
M  V30 11 1 7 12
M  V30 12 2 9 13
M  V30 13 1 9 14
M  V30 14 1 10 15
M  V30 15 1 11 16
M  V30 16 1 11 17
M  V30 17 1 13 18
M  V30 18 2 14 19
M  V30 19 1 15 20
M  V30 20 1 16 21
M  V30 21 1 17 22
M  V30 22 2 18 23
M  V30 23 2 20 24
M  V30 24 1 20 25
M  V30 25 1 23 26
M  V30 26 1 24 27
M  V30 27 2 25 28
M  V30 28 1 26 29
M  V30 29 1 26 30
M  V30 30 2 27 31
M  V30 31 1 29 32
M  V30 32 1 30 33
M  V30 33 1 32 34
M  V30 34 1 34 35
M  V30 35 1 7 8
M  V30 36 2 10 12
M  V30 37 1 19 23
M  V30 38 1 21 22
M  V30 39 1 28 31
M  V30 40 1 33 34
M  V30 END BOND
M  V30 END CTAB
M  END
>  <Compound ID>
211

>  <Name>


>  <Uniprot>
P00533

>  <Target>
EGFR L858R/T790M

>  <Smiles>
CN1CCN(C2=CC=C(NC3=NC=C4N=C(NC5=CC=CC=C5)N(C5CCCC5)C4=N3)C=C2)CC1

>  <Kd (nM)>
1.6

>  <Assay (Kd)>
Kd was assessed using the KINOMEscan assay

>  <Ki (nM)>


>  <Assay (Ki)>


>  <IC50 (nM)>


>  <Assay (IC50)>


>  <EC50 (nM)>


>  <Assay (EC50)>


>  <Article DOI>
10.1021/jm301365e

>  <Molecular Weight>
468.609

>  <Exact Mass>
468.274993024

>  <XLogP3>
4.91

>  <Heavy Atom Count>
35

>  <Ring Count>
6

>  <Hydrogen Bond Acceptor Count>
8

>  <Hydrogen Bond Donor Count>
2

>  <Rotatable Bond Count>
6

>  <Topological Polar Surface Area>
74.14

>  <Molecular Formula>
C27H32N8

>  <InChI>
InChI=1S/C27H32N8/c1-33-15-17-34(18-16-33)22-13-11-21(12-14-22)29-26-28-19-24-25(32-26)35(23-9-5-6-10-23)27(31-24)30-20-7-3-2-4-8-20/h2-4,7-8,11-14,19,23H,5-6,9-10,15-18H2,1H3,(H,30,31)(H,28,29,32)

>  <InChI Key>
QPOURHROVVCOHC-UHFFFAOYSA-N

>  <BindingDB>
50399676

>  <PubChem>
54760383

>  <ChEMBL>
CHEMBL2178352

$$$$
Compound 691
Actelion Java MolfileCreator 2.0

  0  0  0  0  0  0              0 V3000
M  V30 BEGIN CTAB
M  V30 COUNTS 35 40 0 0 0
M  V30 BEGIN ATOM
M  V30 1 N 0.0 0.0 0.0 0
M  V30 2 C -0.2468 -1.4694 0.0 0
M  V30 3 C 1.3871 0.5407 0.0 0
M  V30 4 N 0.9051 -2.3981 0.0 0
M  V30 5 N -1.6575 -1.9866 0.0 0
M  V30 6 N 1.9161 1.9514 0.0 0
M  V30 7 C 2.5391 -0.3879 0.0 0
M  V30 8 C 2.2923 -1.8573 0.0 0
M  V30 9 C -2.833 -1.0344 0.0 0
M  V30 10 C 3.3973 1.8808 0.0 0
M  V30 11 C 1.0932 3.221 0.0 0
M  V30 12 N 3.7852 0.4349 0.0 0
M  V30 13 C -4.2437 -1.5517 0.0 0
M  V30 14 C -2.6097 0.4584 0.0 0
M  V30 15 N 4.326 3.0564 0.0 0
M  V30 16 C -0.4114 3.315 0.0 0
M  V30 17 C 1.6222 4.6316 0.0 0
M  V30 18 C -5.4193 -0.5995 0.0 0
M  V30 19 C -3.7852 1.4106 0.0 0
M  V30 20 C 5.7954 2.833 0.0 0
M  V30 21 C -0.8111 4.7727 0.0 0
M  V30 22 C 0.4467 5.5838 0.0 0
M  V30 23 C -5.1959 0.8934 0.0 0
M  V30 24 C 6.3127 1.4459 0.0 0
M  V30 25 C 6.7241 4.0086 0.0 0
M  V30 26 N -6.3715 1.8456 0.0 0
M  V30 27 C 7.7821 1.2225 0.0 0
M  V30 28 C 8.1936 3.7852 0.0 0
M  V30 29 C -6.1481 3.3385 0.0 0
M  V30 30 C -7.7821 1.3283 0.0 0
M  V30 31 C 8.7108 2.3981 0.0 0
M  V30 32 C -7.3237 4.2907 0.0 0
M  V30 33 C -8.9577 2.2805 0.0 0
M  V30 34 N -8.7343 3.7735 0.0 0
M  V30 35 C -9.9099 4.7257 0.0 0
M  V30 END ATOM
M  V30 BEGIN BOND
M  V30 1 2 1 2
M  V30 2 1 1 3
M  V30 3 1 2 4
M  V30 4 1 2 5
M  V30 5 1 3 6
M  V30 6 2 3 7
M  V30 7 2 4 8
M  V30 8 1 5 9
M  V30 9 1 6 10
M  V30 10 1 6 11
M  V30 11 1 7 12
M  V30 12 2 9 13
M  V30 13 1 9 14
M  V30 14 1 10 15
M  V30 15 1 11 16
M  V30 16 1 11 17
M  V30 17 1 13 18
M  V30 18 2 14 19
M  V30 19 1 15 20
M  V30 20 1 16 21
M  V30 21 1 17 22
M  V30 22 2 18 23
M  V30 23 2 20 24
M  V30 24 1 20 25
M  V30 25 1 23 26
M  V30 26 1 24 27
M  V30 27 2 25 28
M  V30 28 1 26 29
M  V30 29 1 26 30
M  V30 30 2 27 31
M  V30 31 1 29 32
M  V30 32 1 30 33
M  V30 33 1 32 34
M  V30 34 1 34 35
M  V30 35 1 7 8
M  V30 36 2 10 12
M  V30 37 1 19 23
M  V30 38 1 21 22
M  V30 39 1 28 31
M  V30 40 1 33 34
M  V30 END BOND
M  V30 END CTAB
M  END
>  <Compound ID>
211

>  <Name>


>  <Uniprot>
P00533

>  <Target>
EGFR

>  <Smiles>
CN1CCN(C2=CC=C(NC3=NC=C4N=C(NC5=CC=CC=C5)N(C5CCCC5)C4=N3)C=C2)CC1

>  <Kd (nM)>
0.6

>  <Assay (Kd)>
Kd was assessed using the KINOMEscan assay

>  <Ki (nM)>


>  <Assay (Ki)>


>  <IC50 (nM)>


>  <Assay (IC50)>


>  <EC50 (nM)>


>  <Assay (EC50)>


>  <Article DOI>
10.1021/jm301365e

>  <Molecular Weight>
468.609

>  <Exact Mass>
468.274993024

>  <XLogP3>
4.91

>  <Heavy Atom Count>
35

>  <Ring Count>
6

>  <Hydrogen Bond Acceptor Count>
8

>  <Hydrogen Bond Donor Count>
2

>  <Rotatable Bond Count>
6

>  <Topological Polar Surface Area>
74.14

>  <Molecular Formula>
C27H32N8

>  <InChI>
InChI=1S/C27H32N8/c1-33-15-17-34(18-16-33)22-13-11-21(12-14-22)29-26-28-19-24-25(32-26)35(23-9-5-6-10-23)27(31-24)30-20-7-3-2-4-8-20/h2-4,7-8,11-14,19,23H,5-6,9-10,15-18H2,1H3,(H,30,31)(H,28,29,32)

>  <InChI Key>
QPOURHROVVCOHC-UHFFFAOYSA-N

>  <BindingDB>
50399676

>  <PubChem>
54760383

>  <ChEMBL>
CHEMBL2178352

$$$$
Compound 692
Actelion Java MolfileCreator 2.0

  0  0  0  0  0  0              0 V3000
M  V30 BEGIN CTAB
M  V30 COUNTS 27 30 0 0 0
M  V30 BEGIN ATOM
M  V30 1 N 0.0 0.0 0.0 0
M  V30 2 C -0.9651 1.1652 0.0 0
M  V30 3 C -1.9302 2.3304 0.0 0
M  V30 4 C -3.4132 2.0832 0.0 0
M  V30 5 C -3.9429 0.6944 0.0 0
M  V30 6 C -4.3783 3.2484 0.0 0
M  V30 7 C -5.4259 0.4472 0.0 0
M  V30 8 C -5.8613 3.0013 0.0 0
M  V30 9 C -6.391 1.6124 0.0 0
M  V30 10 N -7.874 1.3653 0.0 0
M  V30 11 C -8.4036 -0.0235 0.0 0
M  V30 12 N -9.8866 -0.2707 0.0 0
M  V30 13 N -7.462 -1.1652 0.0 0
M  V30 14 C -10.4163 -1.6595 0.0 0
M  V30 15 C -7.9917 -2.554 0.0 0
M  V30 16 N -11.8993 -1.9067 0.0 0
M  V30 17 C -9.4747 -2.8012 0.0 0
M  V30 18 N -7.0501 -3.6957 0.0 0
M  V30 19 C -12.8644 -0.7415 0.0 0
M  V30 20 C -7.5797 -5.0845 0.0 0
M  V30 21 N -14.3709 -0.8238 0.0 0
M  V30 22 C -12.5113 0.7179 0.0 0
M  V30 23 N -14.9359 0.5767 0.0 0
M  V30 24 C -13.7942 1.53 0.0 0
M  V30 25 C -13.9002 3.0366 0.0 0
M  V30 26 C -14.7476 4.2959 0.0 0
M  V30 27 C -13.2528 4.3901 0.0 0
M  V30 END ATOM
M  V30 BEGIN BOND
M  V30 1 3 1 2
M  V30 2 1 2 3
M  V30 3 1 3 4
M  V30 4 2 4 5
M  V30 5 1 4 6
M  V30 6 1 5 7
M  V30 7 2 6 8
M  V30 8 2 7 9
M  V30 9 1 9 10
M  V30 10 1 10 11
M  V30 11 2 11 12
M  V30 12 1 11 13
M  V30 13 1 12 14
M  V30 14 2 13 15
M  V30 15 1 14 16
M  V30 16 2 14 17
M  V30 17 1 15 18
M  V30 18 1 16 19
M  V30 19 1 18 20
M  V30 20 2 19 21
M  V30 21 1 19 22
M  V30 22 1 21 23
M  V30 23 2 22 24
M  V30 24 1 24 25
M  V30 25 1 25 26
M  V30 26 1 25 27
M  V30 27 1 8 9
M  V30 28 1 15 17
M  V30 29 1 23 24
M  V30 30 1 26 27
M  V30 END BOND
M  V30 END CTAB
M  END
>  <Compound ID>
212

>  <Name>


>  <Uniprot>
Q2M2I8

>  <Target>
AAK1

>  <Smiles>
CNC1=CC(NC2=N[NH]C(C3CC3)=C2)=NC(NC2=CC=C(CC#N)C=C2)=N1

>  <Kd (nM)>


>  <Assay (Kd)>


>  <Ki (nM)>


>  <Assay (Ki)>


>  <IC50 (nM)>


>  <Assay (IC50)>


>  <EC50 (nM)>


>  <Assay (EC50)>


>  <Article DOI>
10.1016/j.cell.2020.10.038

>  <Molecular Weight>
360.425

>  <Exact Mass>
360.18109264

>  <XLogP3>
3.13

>  <Heavy Atom Count>
27

>  <Ring Count>
4

>  <Hydrogen Bond Acceptor Count>
7

>  <Hydrogen Bond Donor Count>
4

>  <Rotatable Bond Count>
7

>  <Topological Polar Surface Area>
114.34

>  <Molecular Formula>
C19H20N8

>  <InChI>
InChI=1S/C19H20N8/c1-21-16-11-17(23-18-10-15(26-27-18)13-4-5-13)25-19(24-16)22-14-6-2-12(3-7-14)8-9-20/h2-3,6-7,10-11,13H,4-5,8H2,1H3,(H4,21,22,23,24,25,26,27)

>  <InChI Key>
MFMSRHREFZCFSN-UHFFFAOYSA-N

>  <BindingDB>


>  <PubChem>
23624249

>  <ChEMBL>


$$$$
Compound 693
Actelion Java MolfileCreator 2.0

  0  0  0  0  0  0              0 V3000
M  V30 BEGIN CTAB
M  V30 COUNTS 27 30 0 0 0
M  V30 BEGIN ATOM
M  V30 1 N 0.0 0.0 0.0 0
M  V30 2 C -0.9651 1.1652 0.0 0
M  V30 3 C -1.9302 2.3304 0.0 0
M  V30 4 C -3.4132 2.0832 0.0 0
M  V30 5 C -3.9429 0.6944 0.0 0
M  V30 6 C -4.3783 3.2484 0.0 0
M  V30 7 C -5.4259 0.4472 0.0 0
M  V30 8 C -5.8613 3.0013 0.0 0
M  V30 9 C -6.391 1.6124 0.0 0
M  V30 10 N -7.874 1.3653 0.0 0
M  V30 11 C -8.4036 -0.0235 0.0 0
M  V30 12 N -9.8866 -0.2707 0.0 0
M  V30 13 N -7.462 -1.1652 0.0 0
M  V30 14 C -10.4163 -1.6595 0.0 0
M  V30 15 C -7.9917 -2.554 0.0 0
M  V30 16 N -11.8993 -1.9067 0.0 0
M  V30 17 C -9.4747 -2.8012 0.0 0
M  V30 18 N -7.0501 -3.6957 0.0 0
M  V30 19 C -12.8644 -0.7415 0.0 0
M  V30 20 C -7.5797 -5.0845 0.0 0
M  V30 21 N -14.3709 -0.8238 0.0 0
M  V30 22 C -12.5113 0.7179 0.0 0
M  V30 23 N -14.9359 0.5767 0.0 0
M  V30 24 C -13.7942 1.53 0.0 0
M  V30 25 C -13.9002 3.0366 0.0 0
M  V30 26 C -14.7476 4.2959 0.0 0
M  V30 27 C -13.2528 4.3901 0.0 0
M  V30 END ATOM
M  V30 BEGIN BOND
M  V30 1 3 1 2
M  V30 2 1 2 3
M  V30 3 1 3 4
M  V30 4 2 4 5
M  V30 5 1 4 6
M  V30 6 1 5 7
M  V30 7 2 6 8
M  V30 8 2 7 9
M  V30 9 1 9 10
M  V30 10 1 10 11
M  V30 11 2 11 12
M  V30 12 1 11 13
M  V30 13 1 12 14
M  V30 14 2 13 15
M  V30 15 1 14 16
M  V30 16 2 14 17
M  V30 17 1 15 18
M  V30 18 1 16 19
M  V30 19 1 18 20
M  V30 20 2 19 21
M  V30 21 1 19 22
M  V30 22 1 21 23
M  V30 23 2 22 24
M  V30 24 1 24 25
M  V30 25 1 25 26
M  V30 26 1 25 27
M  V30 27 1 8 9
M  V30 28 1 15 17
M  V30 29 1 23 24
M  V30 30 1 26 27
M  V30 END BOND
M  V30 END CTAB
M  END
>  <Compound ID>
212

>  <Name>


>  <Uniprot>
O14965

>  <Target>
AURKA

>  <Smiles>
CNC1=CC(NC2=N[NH]C(C3CC3)=C2)=NC(NC2=CC=C(CC#N)C=C2)=N1

>  <Kd (nM)>


>  <Assay (Kd)>


>  <Ki (nM)>


>  <Assay (Ki)>


>  <IC50 (nM)>


>  <Assay (IC50)>


>  <EC50 (nM)>


>  <Assay (EC50)>


>  <Article DOI>
10.1016/j.cell.2020.10.038

>  <Molecular Weight>
360.425

>  <Exact Mass>
360.18109264

>  <XLogP3>
3.13

>  <Heavy Atom Count>
27

>  <Ring Count>
4

>  <Hydrogen Bond Acceptor Count>
7

>  <Hydrogen Bond Donor Count>
4

>  <Rotatable Bond Count>
7

>  <Topological Polar Surface Area>
114.34

>  <Molecular Formula>
C19H20N8

>  <InChI>
InChI=1S/C19H20N8/c1-21-16-11-17(23-18-10-15(26-27-18)13-4-5-13)25-19(24-16)22-14-6-2-12(3-7-14)8-9-20/h2-3,6-7,10-11,13H,4-5,8H2,1H3,(H4,21,22,23,24,25,26,27)

>  <InChI Key>
MFMSRHREFZCFSN-UHFFFAOYSA-N

>  <BindingDB>


>  <PubChem>
23624249

>  <ChEMBL>


$$$$
Compound 694
Actelion Java MolfileCreator 2.0

  0  0  0  0  0  0              0 V3000
M  V30 BEGIN CTAB
M  V30 COUNTS 27 30 0 0 0
M  V30 BEGIN ATOM
M  V30 1 N 0.0 0.0 0.0 0
M  V30 2 C -0.9651 1.1652 0.0 0
M  V30 3 C -1.9302 2.3304 0.0 0
M  V30 4 C -3.4132 2.0832 0.0 0
M  V30 5 C -3.9429 0.6944 0.0 0
M  V30 6 C -4.3783 3.2484 0.0 0
M  V30 7 C -5.4259 0.4472 0.0 0
M  V30 8 C -5.8613 3.0013 0.0 0
M  V30 9 C -6.391 1.6124 0.0 0
M  V30 10 N -7.874 1.3653 0.0 0
M  V30 11 C -8.4036 -0.0235 0.0 0
M  V30 12 N -9.8866 -0.2707 0.0 0
M  V30 13 N -7.462 -1.1652 0.0 0
M  V30 14 C -10.4163 -1.6595 0.0 0
M  V30 15 C -7.9917 -2.554 0.0 0
M  V30 16 N -11.8993 -1.9067 0.0 0
M  V30 17 C -9.4747 -2.8012 0.0 0
M  V30 18 N -7.0501 -3.6957 0.0 0
M  V30 19 C -12.8644 -0.7415 0.0 0
M  V30 20 C -7.5797 -5.0845 0.0 0
M  V30 21 N -14.3709 -0.8238 0.0 0
M  V30 22 C -12.5113 0.7179 0.0 0
M  V30 23 N -14.9359 0.5767 0.0 0
M  V30 24 C -13.7942 1.53 0.0 0
M  V30 25 C -13.9002 3.0366 0.0 0
M  V30 26 C -14.7476 4.2959 0.0 0
M  V30 27 C -13.2528 4.3901 0.0 0
M  V30 END ATOM
M  V30 BEGIN BOND
M  V30 1 3 1 2
M  V30 2 1 2 3
M  V30 3 1 3 4
M  V30 4 2 4 5
M  V30 5 1 4 6
M  V30 6 1 5 7
M  V30 7 2 6 8
M  V30 8 2 7 9
M  V30 9 1 9 10
M  V30 10 1 10 11
M  V30 11 2 11 12
M  V30 12 1 11 13
M  V30 13 1 12 14
M  V30 14 2 13 15
M  V30 15 1 14 16
M  V30 16 2 14 17
M  V30 17 1 15 18
M  V30 18 1 16 19
M  V30 19 1 18 20
M  V30 20 2 19 21
M  V30 21 1 19 22
M  V30 22 1 21 23
M  V30 23 2 22 24
M  V30 24 1 24 25
M  V30 25 1 25 26
M  V30 26 1 25 27
M  V30 27 1 8 9
M  V30 28 1 15 17
M  V30 29 1 23 24
M  V30 30 1 26 27
M  V30 END BOND
M  V30 END CTAB
M  END
>  <Compound ID>
212

>  <Name>


>  <Uniprot>
Q9NSY1

>  <Target>
BMP2K

>  <Smiles>
CNC1=CC(NC2=N[NH]C(C3CC3)=C2)=NC(NC2=CC=C(CC#N)C=C2)=N1

>  <Kd (nM)>


>  <Assay (Kd)>


>  <Ki (nM)>


>  <Assay (Ki)>


>  <IC50 (nM)>


>  <Assay (IC50)>


>  <EC50 (nM)>


>  <Assay (EC50)>


>  <Article DOI>
10.1016/j.cell.2020.10.038

>  <Molecular Weight>
360.425

>  <Exact Mass>
360.18109264

>  <XLogP3>
3.13

>  <Heavy Atom Count>
27

>  <Ring Count>
4

>  <Hydrogen Bond Acceptor Count>
7

>  <Hydrogen Bond Donor Count>
4

>  <Rotatable Bond Count>
7

>  <Topological Polar Surface Area>
114.34

>  <Molecular Formula>
C19H20N8

>  <InChI>
InChI=1S/C19H20N8/c1-21-16-11-17(23-18-10-15(26-27-18)13-4-5-13)25-19(24-16)22-14-6-2-12(3-7-14)8-9-20/h2-3,6-7,10-11,13H,4-5,8H2,1H3,(H4,21,22,23,24,25,26,27)

>  <InChI Key>
MFMSRHREFZCFSN-UHFFFAOYSA-N

>  <BindingDB>


>  <PubChem>
23624249

>  <ChEMBL>


$$$$
Compound 695
Actelion Java MolfileCreator 2.0

  0  0  0  0  0  0              0 V3000
M  V30 BEGIN CTAB
M  V30 COUNTS 27 30 0 0 0
M  V30 BEGIN ATOM
M  V30 1 N 0.0 0.0 0.0 0
M  V30 2 C -0.9651 1.1652 0.0 0
M  V30 3 C -1.9302 2.3304 0.0 0
M  V30 4 C -3.4132 2.0832 0.0 0
M  V30 5 C -3.9429 0.6944 0.0 0
M  V30 6 C -4.3783 3.2484 0.0 0
M  V30 7 C -5.4259 0.4472 0.0 0
M  V30 8 C -5.8613 3.0013 0.0 0
M  V30 9 C -6.391 1.6124 0.0 0
M  V30 10 N -7.874 1.3653 0.0 0
M  V30 11 C -8.4036 -0.0235 0.0 0
M  V30 12 N -9.8866 -0.2707 0.0 0
M  V30 13 N -7.462 -1.1652 0.0 0
M  V30 14 C -10.4163 -1.6595 0.0 0
M  V30 15 C -7.9917 -2.554 0.0 0
M  V30 16 N -11.8993 -1.9067 0.0 0
M  V30 17 C -9.4747 -2.8012 0.0 0
M  V30 18 N -7.0501 -3.6957 0.0 0
M  V30 19 C -12.8644 -0.7415 0.0 0
M  V30 20 C -7.5797 -5.0845 0.0 0
M  V30 21 N -14.3709 -0.8238 0.0 0
M  V30 22 C -12.5113 0.7179 0.0 0
M  V30 23 N -14.9359 0.5767 0.0 0
M  V30 24 C -13.7942 1.53 0.0 0
M  V30 25 C -13.9002 3.0366 0.0 0
M  V30 26 C -14.7476 4.2959 0.0 0
M  V30 27 C -13.2528 4.3901 0.0 0
M  V30 END ATOM
M  V30 BEGIN BOND
M  V30 1 3 1 2
M  V30 2 1 2 3
M  V30 3 1 3 4
M  V30 4 2 4 5
M  V30 5 1 4 6
M  V30 6 1 5 7
M  V30 7 2 6 8
M  V30 8 2 7 9
M  V30 9 1 9 10
M  V30 10 1 10 11
M  V30 11 2 11 12
M  V30 12 1 11 13
M  V30 13 1 12 14
M  V30 14 2 13 15
M  V30 15 1 14 16
M  V30 16 2 14 17
M  V30 17 1 15 18
M  V30 18 1 16 19
M  V30 19 1 18 20
M  V30 20 2 19 21
M  V30 21 1 19 22
M  V30 22 1 21 23
M  V30 23 2 22 24
M  V30 24 1 24 25
M  V30 25 1 25 26
M  V30 26 1 25 27
M  V30 27 1 8 9
M  V30 28 1 15 17
M  V30 29 1 23 24
M  V30 30 1 26 27
M  V30 END BOND
M  V30 END CTAB
M  END
>  <Compound ID>
212

>  <Name>


>  <Uniprot>
P49840

>  <Target>
GSK3A

>  <Smiles>
CNC1=CC(NC2=N[NH]C(C3CC3)=C2)=NC(NC2=CC=C(CC#N)C=C2)=N1

>  <Kd (nM)>


>  <Assay (Kd)>


>  <Ki (nM)>


>  <Assay (Ki)>


>  <IC50 (nM)>


>  <Assay (IC50)>


>  <EC50 (nM)>


>  <Assay (EC50)>


>  <Article DOI>
10.1016/j.cell.2020.10.038

>  <Molecular Weight>
360.425

>  <Exact Mass>
360.18109264

>  <XLogP3>
3.13

>  <Heavy Atom Count>
27

>  <Ring Count>
4

>  <Hydrogen Bond Acceptor Count>
7

>  <Hydrogen Bond Donor Count>
4

>  <Rotatable Bond Count>
7

>  <Topological Polar Surface Area>
114.34

>  <Molecular Formula>
C19H20N8

>  <InChI>
InChI=1S/C19H20N8/c1-21-16-11-17(23-18-10-15(26-27-18)13-4-5-13)25-19(24-16)22-14-6-2-12(3-7-14)8-9-20/h2-3,6-7,10-11,13H,4-5,8H2,1H3,(H4,21,22,23,24,25,26,27)

>  <InChI Key>
MFMSRHREFZCFSN-UHFFFAOYSA-N

>  <BindingDB>


>  <PubChem>
23624249

>  <ChEMBL>


$$$$
Compound 696
Actelion Java MolfileCreator 2.0

  0  0  0  0  0  0              0 V3000
M  V30 BEGIN CTAB
M  V30 COUNTS 27 30 0 0 0
M  V30 BEGIN ATOM
M  V30 1 N 0.0 0.0 0.0 0
M  V30 2 C -0.9651 1.1652 0.0 0
M  V30 3 C -1.9302 2.3304 0.0 0
M  V30 4 C -3.4132 2.0832 0.0 0
M  V30 5 C -3.9429 0.6944 0.0 0
M  V30 6 C -4.3783 3.2484 0.0 0
M  V30 7 C -5.4259 0.4472 0.0 0
M  V30 8 C -5.8613 3.0013 0.0 0
M  V30 9 C -6.391 1.6124 0.0 0
M  V30 10 N -7.874 1.3653 0.0 0
M  V30 11 C -8.4036 -0.0235 0.0 0
M  V30 12 N -9.8866 -0.2707 0.0 0
M  V30 13 N -7.462 -1.1652 0.0 0
M  V30 14 C -10.4163 -1.6595 0.0 0
M  V30 15 C -7.9917 -2.554 0.0 0
M  V30 16 N -11.8993 -1.9067 0.0 0
M  V30 17 C -9.4747 -2.8012 0.0 0
M  V30 18 N -7.0501 -3.6957 0.0 0
M  V30 19 C -12.8644 -0.7415 0.0 0
M  V30 20 C -7.5797 -5.0845 0.0 0
M  V30 21 N -14.3709 -0.8238 0.0 0
M  V30 22 C -12.5113 0.7179 0.0 0
M  V30 23 N -14.9359 0.5767 0.0 0
M  V30 24 C -13.7942 1.53 0.0 0
M  V30 25 C -13.9002 3.0366 0.0 0
M  V30 26 C -14.7476 4.2959 0.0 0
M  V30 27 C -13.2528 4.3901 0.0 0
M  V30 END ATOM
M  V30 BEGIN BOND
M  V30 1 3 1 2
M  V30 2 1 2 3
M  V30 3 1 3 4
M  V30 4 2 4 5
M  V30 5 1 4 6
M  V30 6 1 5 7
M  V30 7 2 6 8
M  V30 8 2 7 9
M  V30 9 1 9 10
M  V30 10 1 10 11
M  V30 11 2 11 12
M  V30 12 1 11 13
M  V30 13 1 12 14
M  V30 14 2 13 15
M  V30 15 1 14 16
M  V30 16 2 14 17
M  V30 17 1 15 18
M  V30 18 1 16 19
M  V30 19 1 18 20
M  V30 20 2 19 21
M  V30 21 1 19 22
M  V30 22 1 21 23
M  V30 23 2 22 24
M  V30 24 1 24 25
M  V30 25 1 25 26
M  V30 26 1 25 27
M  V30 27 1 8 9
M  V30 28 1 15 17
M  V30 29 1 23 24
M  V30 30 1 26 27
M  V30 END BOND
M  V30 END CTAB
M  END
>  <Compound ID>
212

>  <Name>


>  <Uniprot>
P49841

>  <Target>
GSK-3beta

>  <Smiles>
CNC1=CC(NC2=N[NH]C(C3CC3)=C2)=NC(NC2=CC=C(CC#N)C=C2)=N1

>  <Kd (nM)>


>  <Assay (Kd)>


>  <Ki (nM)>


>  <Assay (Ki)>


>  <IC50 (nM)>


>  <Assay (IC50)>


>  <EC50 (nM)>


>  <Assay (EC50)>


>  <Article DOI>
10.1016/j.cell.2020.10.038

>  <Molecular Weight>
360.425

>  <Exact Mass>
360.18109264

>  <XLogP3>
3.13

>  <Heavy Atom Count>
27

>  <Ring Count>
4

>  <Hydrogen Bond Acceptor Count>
7

>  <Hydrogen Bond Donor Count>
4

>  <Rotatable Bond Count>
7

>  <Topological Polar Surface Area>
114.34

>  <Molecular Formula>
C19H20N8

>  <InChI>
InChI=1S/C19H20N8/c1-21-16-11-17(23-18-10-15(26-27-18)13-4-5-13)25-19(24-16)22-14-6-2-12(3-7-14)8-9-20/h2-3,6-7,10-11,13H,4-5,8H2,1H3,(H4,21,22,23,24,25,26,27)

>  <InChI Key>
MFMSRHREFZCFSN-UHFFFAOYSA-N

>  <BindingDB>


>  <PubChem>
23624249

>  <ChEMBL>


$$$$
Compound 697
Actelion Java MolfileCreator 2.0

  0  0  0  0  0  0              0 V3000
M  V30 BEGIN CTAB
M  V30 COUNTS 25 26 0 0 0
M  V30 BEGIN ATOM
M  V30 1 Br 0.0 0.0 0.0 0
M  V30 2 C -0.294 1.4818 0.0 0
M  V30 3 C -1.7288 1.9757 0.0 0
M  V30 4 C 0.8232 2.4814 0.0 0
M  V30 5 F -2.8695 0.9996 0.0 0
M  V30 6 C -2.0228 3.4576 0.0 0
M  V30 7 C 0.5292 3.9633 0.0 0
M  V30 8 C -0.9055 4.4572 0.0 0
M  V30 9 N 1.6464 4.9629 0.0 0
M  V30 10 C 1.3524 6.4447 0.0 0
M  V30 11 N -0.0823 6.9387 0.0 0
M  V30 12 C 2.4697 7.4444 0.0 0
M  V30 13 O -0.3763 8.4205 0.0 0
M  V30 14 N 2.3285 8.9497 0.0 0
M  V30 15 C 3.9162 7.1151 0.0 0
M  V30 16 O 3.6928 9.5495 0.0 0
M  V30 17 N 4.6806 8.4087 0.0 0
M  V30 18 N 4.4925 5.7509 0.0 0
M  V30 19 C 5.9743 5.5862 0.0 0
M  V30 20 C 6.5506 4.222 0.0 0
M  V30 21 N 8.0324 4.0573 0.0 0
M  V30 22 S 8.6087 2.6931 0.0 0
M  V30 23 O 7.2209 2.1168 0.0 0
M  V30 24 O 9.9729 3.2929 0.0 0
M  V30 25 N 9.1849 1.3289 0.0 0
M  V30 END ATOM
M  V30 BEGIN BOND
M  V30 1 1 1 2
M  V30 2 2 2 3
M  V30 3 1 2 4
M  V30 4 1 3 5
M  V30 5 1 3 6
M  V30 6 2 4 7
M  V30 7 2 6 8
M  V30 8 1 7 9
M  V30 9 1 9 10
M  V30 10 2 10 11
M  V30 11 1 10 12
M  V30 12 1 11 13
M  V30 13 2 12 14
M  V30 14 1 12 15
M  V30 15 1 14 16
M  V30 16 2 15 17
M  V30 17 1 15 18
M  V30 18 1 18 19
M  V30 19 1 19 20
M  V30 20 1 20 21
M  V30 21 1 21 22
M  V30 22 2 22 23
M  V30 23 2 22 24
M  V30 24 1 22 25
M  V30 25 1 7 8
M  V30 26 1 16 17
M  V30 END BOND
M  V30 END CTAB
M  END
>  <Compound ID>
213

>  <Name>
Epacadostat

>  <Uniprot>
P14902

>  <Target>
IDO1

>  <Smiles>
NS(=O)(=O)NCCNC1=NON=C1/C(=N\O)NC1=CC=C(F)C(Br)=C1

>  <Kd (nM)>


>  <Assay (Kd)>


>  <Ki (nM)>


>  <Assay (Ki)>


>  <IC50 (nM)>
72

>  <Assay (IC50)>
Inhibition of IDO1

>  <EC50 (nM)>


>  <Assay (EC50)>


>  <Article DOI>
10.1021/acs.jmedchem.5b00461

>  <Molecular Weight>
438.239

>  <Exact Mass>
436.991713216

>  <XLogP3>
0.72

>  <Heavy Atom Count>
25

>  <Ring Count>
2

>  <Hydrogen Bond Acceptor Count>
8

>  <Hydrogen Bond Donor Count>
5

>  <Rotatable Bond Count>
7

>  <Topological Polar Surface Area>
167.76

>  <Molecular Formula>
C11H13BrFN7O4S

>  <InChI>
InChI=1S/C11H13BrFN7O4S/c12-7-5-6(1-2-8(7)13)17-11(18-21)9-10(20-24-19-9)15-3-4-16-25(14,22)23/h1-2,5,16,21H,3-4H2,(H,15,20)(H,17,18)(H2,14,22,23)

>  <InChI Key>
FBKMWOJEPMPVTQ-UHFFFAOYSA-N

>  <BindingDB>
50126143

>  <PubChem>
135564890

>  <ChEMBL>
CHEMBL3545369

$$$$
Compound 698
Actelion Java MolfileCreator 2.0

  0  0  0  0  0  0              0 V3000
M  V30 BEGIN CTAB
M  V30 COUNTS 31 33 0 0 0
M  V30 BEGIN ATOM
M  V30 1 O 0.0 0.0 0.0 0
M  V30 2 C 0.1729 -3.1131 0.0 0
M  V30 3 O -0.7659 -2.9896 0.0 0
M  V30 4 C 0.247 -2.3966 0.0 0 CFG=1
M  V30 5 C -0.8153 -3.7308 0.0 0 CFG=2
M  V30 6 C -0.1976 -3.7308 0.0 0 CFG=2
M  V30 7 C 1.5565 -1.853 0.0 0
M  V30 8 C -0.9388 -1.5565 0.0 0
M  V30 9 C -3.6073 -3.7308 0.0 0
M  V30 10 C -1.6307 -3.7308 0.0 0 CFG=2
M  V30 11 C -3.8296 -1.9024 0.0 0
M  V30 12 O -0.8894 -4.9662 0.0 0
M  V30 13 C 0.5929 -4.8921 0.0 0
M  V30 14 C 2.7672 -2.5448 0.0 0
M  V30 15 C -2.1001 -2.3966 0.0 0
M  V30 16 C -5.0156 -3.3849 0.0 0
M  V30 17 C -0.1482 -6.1522 0.0 0
M  V30 18 C 2.0013 -4.9662 0.0 0
M  V30 19 C 2.9649 -3.9285 0.0 0
M  V30 20 C -6.0039 -4.3979 0.0 0
M  V30 21 O 1.26 -6.0533 0.0 0
M  V30 22 C -0.84 -7.3875 0.0 0
M  V30 23 C 4.2991 -4.3238 0.0 0
M  V30 24 C -7.4123 -4.052 0.0 0
M  V30 25 O 5.3121 -3.3355 0.0 0
M  V30 26 O 4.5956 -5.6827 0.0 0
M  V30 27 C -8.4006 -5.065 0.0 0
M  V30 28 C -7.857 -2.6684 0.0 0
M  V30 29 C 5.9298 -6.078 0.0 0
M  V30 30 O -8.0052 -6.3992 0.0 0
M  V30 31 O -9.8089 -4.7191 0.0 0
M  V30 END ATOM
M  V30 BEGIN BOND
M  V30 1 2 1 2
M  V30 2 1 2 3
M  V30 3 1 2 4
M  V30 4 1 3 5
M  V30 5 1 4 6
M  V30 6 1 4 7 CFG=1
M  V30 7 1 4 8
M  V30 8 1 5 9 CFG=1
M  V30 9 1 10 5 CFG=1
M  V30 10 1 5 11
M  V30 11 1 6 12 CFG=1
M  V30 12 1 6 13
M  V30 13 1 7 14
M  V30 14 1 8 15
M  V30 15 2 9 16
M  V30 16 1 12 17
M  V30 17 1 13 18
M  V30 18 2 14 19
M  V30 19 1 16 20
M  V30 20 2 17 21
M  V30 21 1 17 22
M  V30 22 1 19 23
M  V30 23 2 20 24
M  V30 24 2 23 25
M  V30 25 1 23 26
M  V30 26 1 24 27
M  V30 27 1 24 28
M  V30 28 1 26 29
M  V30 29 2 27 30
M  V30 30 1 27 31
M  V30 31 1 6 10
M  V30 32 1 10 15
M  V30 33 1 18 19
M  V30 END BOND
M  V30 BEGIN COLLECTION
M  V30 MDLV30/STEABS ATOMS=(4 4 5 6 10)
M  V30 END COLLECTION
M  V30 END CTAB
M  END
>  <Compound ID>
214

>  <Name>
Pseudolaric acid B

>  <Uniprot>
P35613

>  <Target>
CD147

>  <Smiles>
COC(=O)C1=CC[C@]23CC[C@@H]([C@@]2(OC(C)=O)CC1)[C@@](C)(/C=C/C=C(\C)C(=O)O)OC3=O

>  <Kd (nM)>


>  <Assay (Kd)>


>  <Ki (nM)>


>  <Assay (Ki)>


>  <IC50 (nM)>
1450

>  <Assay (IC50)>
Inhibit proliferation of Sk-Mel-28 cells

>  <EC50 (nM)>


>  <Assay (EC50)>


>  <Article DOI>
10.1016/j.bioorg.2020.104453

>  <Molecular Weight>
432.469

>  <Exact Mass>
432.178417856

>  <XLogP3>
2.34

>  <Heavy Atom Count>
31

>  <Ring Count>
3

>  <Hydrogen Bond Acceptor Count>
7

>  <Hydrogen Bond Donor Count>
1

>  <Rotatable Bond Count>
5

>  <Topological Polar Surface Area>
116.2

>  <Molecular Formula>
C23H28O8

>  <InChI>
InChI=1S/C23H28O8/c1-14(18(25)26)6-5-10-21(3)17-9-12-22(20(28)31-21)11-7-16(19(27)29-4)8-13-23(17,22)30-15(2)24/h5-7,10,17H,8-9,11-13H2,1-4H3,(H,25,26)/b10-5+,14-6+/t17-,21-,22-,23+/m1/s1

>  <InChI Key>
VDGOFNMYZYBUDT-RMESQWPQSA-N

>  <BindingDB>


>  <PubChem>
71307573

>  <ChEMBL>


$$$$
Compound 699
Actelion Java MolfileCreator 2.0

  0  0  0  0  0  0              0 V3000
M  V30 BEGIN CTAB
M  V30 COUNTS 26 29 0 0 0
M  V30 BEGIN ATOM
M  V30 1 Cl 0.0 0.0 0.0 0
M  V30 2 C 0.8582 1.2345 0.0 0
M  V30 3 N 0.2233 2.6101 0.0 0
M  V30 4 N 2.3396 1.1051 0.0 0
M  V30 5 C 1.0816 3.8446 0.0 0
M  V30 6 C 3.1979 2.3396 0.0 0
M  V30 7 C 2.563 3.7152 0.0 0
M  V30 8 C 3.4213 4.9498 0.0 0 CFG=1
M  V30 9 N 2.7864 6.3254 0.0 0
M  V30 10 C 4.9027 4.8204 0.0 0
M  V30 11 C 3.6447 7.5599 0.0 0 CFG=1
M  V30 12 C 1.2815 6.4782 0.0 0
M  V30 13 N 5.7845 3.6329 0.0 0
M  V30 14 C 5.761 6.0549 0.0 0
M  V30 15 C 5.1261 7.4305 0.0 0
M  V30 16 C 3.0098 8.9355 0.0 0
M  V30 17 C 0.6466 7.8538 0.0 0
M  V30 18 C 7.1954 4.1267 0.0 0
M  V30 19 C 7.1836 5.6199 0.0 0
M  V30 20 F 0.0117 9.2294 0.0 0
M  V30 21 C 1.9987 8.4887 0.0 0
M  V30 22 C -0.7289 7.2424 0.0 0
M  V30 23 C 8.4887 3.3978 0.0 0
M  V30 24 C 8.4652 6.3959 0.0 0
M  V30 25 C 9.7702 4.1738 0.0 0
M  V30 26 C 9.7585 5.6669 0.0 0
M  V30 END ATOM
M  V30 BEGIN BOND
M  V30 1 1 1 2
M  V30 2 2 2 3
M  V30 3 1 2 4
M  V30 4 1 3 5
M  V30 5 2 4 6
M  V30 6 2 5 7
M  V30 7 1 8 7 CFG=1
M  V30 8 1 8 9
M  V30 9 1 8 10
M  V30 10 1 9 11
M  V30 11 1 9 12
M  V30 12 1 10 13
M  V30 13 2 10 14
M  V30 14 1 11 15
M  V30 15 1 11 16 CFG=3
M  V30 16 1 12 17
M  V30 17 1 13 18
M  V30 18 1 14 19
M  V30 19 1 17 20
M  V30 20 1 17 21
M  V30 21 1 17 22
M  V30 22 1 18 23
M  V30 23 1 19 24
M  V30 24 2 23 25
M  V30 25 2 24 26
M  V30 26 1 6 7
M  V30 27 1 14 15
M  V30 28 2 18 19
M  V30 29 1 25 26
M  V30 END BOND
M  V30 BEGIN COLLECTION
M  V30 MDLV30/STEABS ATOMS=(2 8 11)
M  V30 END COLLECTION
M  V30 END CTAB
M  END
>  <Compound ID>
215

>  <Name>


>  <Uniprot>
P03372

>  <Target>
ER

>  <Smiles>
C[C@@H]1CC2=C([NH]C3=CC=CC=C23)[C@@H](C2=CN=C(Cl)N=C2)N1CC(C)(C)F

>  <Kd (nM)>


>  <Assay (Kd)>


>  <Ki (nM)>


>  <Assay (Ki)>


>  <IC50 (nM)>


>  <Assay (IC50)>


>  <EC50 (nM)>


>  <Assay (EC50)>


>  <Article DOI>


>  <Molecular Weight>
372.875

>  <Exact Mass>
372.151702604

>  <XLogP3>
4.29

>  <Heavy Atom Count>
26

>  <Ring Count>
4

>  <Hydrogen Bond Acceptor Count>
3

>  <Hydrogen Bond Donor Count>
1

>  <Rotatable Bond Count>
3

>  <Topological Polar Surface Area>
44.81

>  <Molecular Formula>
C20H22ClFN4

>  <InChI>
InChI=1S/C20H22ClFN4/c1-12-8-15-14-6-4-5-7-16(14)25-17(15)18(26(12)11-20(2,3)22)13-9-23-19(21)24-10-13/h4-7,9-10,12,18,25H,8,11H2,1-3H3/t12-,18-/m1/s1

>  <InChI Key>
COWURNTXICZXOE-KZULUSFZSA-N

>  <BindingDB>


>  <PubChem>
155166674

>  <ChEMBL>


$$$$
Compound 700
Actelion Java MolfileCreator 2.0

  0  0  0  0  0  0              0 V3000
M  V30 BEGIN CTAB
M  V30 COUNTS 41 45 0 0 0
M  V30 BEGIN ATOM
M  V30 1 F 0.0 0.0 0.0 0
M  V30 2 C -0.6001 -1.3651 0.0 0
M  V30 3 C 0.2824 -2.5537 0.0 0
M  V30 4 C -2.1065 -1.5298 0.0 0
M  V30 5 N 1.7652 -2.3654 0.0 0
M  V30 6 C -0.3177 -3.9188 0.0 0
M  V30 7 C -2.7066 -2.8949 0.0 0
M  V30 8 C 2.3418 -0.9767 0.0 0
M  V30 9 C -1.824 -4.0835 0.0 0
M  V30 10 O -4.213 -3.0597 0.0 0
M  V30 11 O 1.4357 0.2353 0.0 0
M  V30 12 N 3.8246 -0.7884 0.0 0
M  V30 13 C -5.1191 -1.8476 0.0 0
M  V30 14 C 4.4013 0.6001 0.0 0
M  V30 15 C -4.5425 -0.4589 0.0 0
M  V30 16 C -6.6255 -2.0123 0.0 0
M  V30 17 N 5.8488 0.9414 0.0 0
M  V30 18 C 3.6246 1.9064 0.0 0
M  V30 19 C -5.4486 0.7531 0.0 0
M  V30 20 C -7.5316 -0.8002 0.0 0
M  V30 21 N 5.9782 2.4477 0.0 0
M  V30 22 C 6.9667 -0.0353 0.0 0
M  V30 23 C 4.6013 3.0479 0.0 0
M  V30 24 N -6.955 0.5884 0.0 0
M  V30 25 C -4.872 2.1418 0.0 0
M  V30 26 C 8.3789 0.4589 0.0 0
M  V30 27 C 6.6608 -1.4945 0.0 0
M  V30 28 C 4.26 4.5189 0.0 0
M  V30 29 O -5.7781 3.3539 0.0 0
M  V30 30 N -3.3892 2.3301 0.0 0
M  V30 31 C 9.4969 -0.5178 0.0 0
M  V30 32 C 7.7787 -2.4713 0.0 0
M  V30 33 C 5.7075 4.8602 0.0 0
M  V30 34 C 2.789 4.2012 0.0 0
M  V30 35 C 3.9188 5.99 0.0 0
M  V30 36 C -2.8126 3.7187 0.0 0
M  V30 37 C 9.1909 -1.977 0.0 0
M  V30 38 C 10.9091 -0.0235 0.0 0
M  V30 39 N 10.3089 -2.9538 0.0 0
M  V30 40 C 12.0271 -1.0002 0.0 0
M  V30 41 C 11.7211 -2.4595 0.0 0
M  V30 END ATOM
M  V30 BEGIN BOND
M  V30 1 1 1 2
M  V30 2 2 2 3
M  V30 3 1 2 4
M  V30 4 1 3 5
M  V30 5 1 3 6
M  V30 6 2 4 7
M  V30 7 1 5 8
M  V30 8 2 6 9
M  V30 9 1 7 10
M  V30 10 2 8 11
M  V30 11 1 8 12
M  V30 12 1 10 13
M  V30 13 1 12 14
M  V30 14 2 13 15
M  V30 15 1 13 16
M  V30 16 1 14 17
M  V30 17 2 14 18
M  V30 18 1 15 19
M  V30 19 2 16 20
M  V30 20 1 17 21
M  V30 21 1 17 22
M  V30 22 1 18 23
M  V30 23 2 19 24
M  V30 24 1 19 25
M  V30 25 2 22 26
M  V30 26 1 22 27
M  V30 27 1 23 28
M  V30 28 2 25 29
M  V30 29 1 25 30
M  V30 30 1 26 31
M  V30 31 2 27 32
M  V30 32 1 28 33
M  V30 33 1 28 34
M  V30 34 1 28 35
M  V30 35 1 30 36
M  V30 36 1 31 37
M  V30 37 2 31 38
M  V30 38 2 37 39
M  V30 39 1 38 40
M  V30 40 1 39 41
M  V30 41 1 7 9
M  V30 42 1 20 24
M  V30 43 2 21 23
M  V30 44 1 32 37
M  V30 45 2 40 41
M  V30 END BOND
M  V30 END CTAB
M  END
>  <Compound ID>
216

>  <Name>
Rebastinib

>  <Uniprot>
Q2M2I8

>  <Target>
AAK1

>  <Smiles>
CNC(=O)C1=CC(OC2=CC=C(NC(=O)NC3=CC(C(C)(C)C)=NN3C3=CC=C4N=CC=CC4=C3)C(F)=C2)=CC=N1

>  <Kd (nM)>


>  <Assay (Kd)>


>  <Ki (nM)>


>  <Assay (Ki)>


>  <IC50 (nM)>


>  <Assay (IC50)>


>  <EC50 (nM)>


>  <Assay (EC50)>


>  <Article DOI>
10.1016/j.cell.2020.10.038

>  <Molecular Weight>
553.598

>  <Exact Mass>
553.223765976

>  <XLogP3>
4.93

>  <Heavy Atom Count>
41

>  <Ring Count>
5

>  <Hydrogen Bond Acceptor Count>
7

>  <Hydrogen Bond Donor Count>
3

>  <Rotatable Bond Count>
6

>  <Topological Polar Surface Area>
123.06

>  <Molecular Formula>
C30H28FN7O3

>  <InChI>
InChI=1S/C30H28FN7O3/c1-30(2,3)26-17-27(38(37-26)19-7-9-23-18(14-19)6-5-12-33-23)36-29(40)35-24-10-8-20(15-22(24)31)41-21-11-13-34-25(16-21)28(39)32-4/h5-17H,1-4H3,(H,32,39)(H2,35,36,40)

>  <InChI Key>
WVXNSAVVKYZVOE-UHFFFAOYSA-N

>  <BindingDB>
185674

>  <PubChem>
25066467

>  <ChEMBL>
CHEMBL1738757

$$$$
Compound 701
Actelion Java MolfileCreator 2.0

  0  0  0  0  0  0              0 V3000
M  V30 BEGIN CTAB
M  V30 COUNTS 41 45 0 0 0
M  V30 BEGIN ATOM
M  V30 1 F 0.0 0.0 0.0 0
M  V30 2 C -0.6001 -1.3651 0.0 0
M  V30 3 C 0.2824 -2.5537 0.0 0
M  V30 4 C -2.1065 -1.5298 0.0 0
M  V30 5 N 1.7652 -2.3654 0.0 0
M  V30 6 C -0.3177 -3.9188 0.0 0
M  V30 7 C -2.7066 -2.8949 0.0 0
M  V30 8 C 2.3418 -0.9767 0.0 0
M  V30 9 C -1.824 -4.0835 0.0 0
M  V30 10 O -4.213 -3.0597 0.0 0
M  V30 11 O 1.4357 0.2353 0.0 0
M  V30 12 N 3.8246 -0.7884 0.0 0
M  V30 13 C -5.1191 -1.8476 0.0 0
M  V30 14 C 4.4013 0.6001 0.0 0
M  V30 15 C -4.5425 -0.4589 0.0 0
M  V30 16 C -6.6255 -2.0123 0.0 0
M  V30 17 N 5.8488 0.9414 0.0 0
M  V30 18 C 3.6246 1.9064 0.0 0
M  V30 19 C -5.4486 0.7531 0.0 0
M  V30 20 C -7.5316 -0.8002 0.0 0
M  V30 21 N 5.9782 2.4477 0.0 0
M  V30 22 C 6.9667 -0.0353 0.0 0
M  V30 23 C 4.6013 3.0479 0.0 0
M  V30 24 N -6.955 0.5884 0.0 0
M  V30 25 C -4.872 2.1418 0.0 0
M  V30 26 C 8.3789 0.4589 0.0 0
M  V30 27 C 6.6608 -1.4945 0.0 0
M  V30 28 C 4.26 4.5189 0.0 0
M  V30 29 O -5.7781 3.3539 0.0 0
M  V30 30 N -3.3892 2.3301 0.0 0
M  V30 31 C 9.4969 -0.5178 0.0 0
M  V30 32 C 7.7787 -2.4713 0.0 0
M  V30 33 C 5.7075 4.8602 0.0 0
M  V30 34 C 2.789 4.2012 0.0 0
M  V30 35 C 3.9188 5.99 0.0 0
M  V30 36 C -2.8126 3.7187 0.0 0
M  V30 37 C 9.1909 -1.977 0.0 0
M  V30 38 C 10.9091 -0.0235 0.0 0
M  V30 39 N 10.3089 -2.9538 0.0 0
M  V30 40 C 12.0271 -1.0002 0.0 0
M  V30 41 C 11.7211 -2.4595 0.0 0
M  V30 END ATOM
M  V30 BEGIN BOND
M  V30 1 1 1 2
M  V30 2 2 2 3
M  V30 3 1 2 4
M  V30 4 1 3 5
M  V30 5 1 3 6
M  V30 6 2 4 7
M  V30 7 1 5 8
M  V30 8 2 6 9
M  V30 9 1 7 10
M  V30 10 2 8 11
M  V30 11 1 8 12
M  V30 12 1 10 13
M  V30 13 1 12 14
M  V30 14 2 13 15
M  V30 15 1 13 16
M  V30 16 1 14 17
M  V30 17 2 14 18
M  V30 18 1 15 19
M  V30 19 2 16 20
M  V30 20 1 17 21
M  V30 21 1 17 22
M  V30 22 1 18 23
M  V30 23 2 19 24
M  V30 24 1 19 25
M  V30 25 2 22 26
M  V30 26 1 22 27
M  V30 27 1 23 28
M  V30 28 2 25 29
M  V30 29 1 25 30
M  V30 30 1 26 31
M  V30 31 2 27 32
M  V30 32 1 28 33
M  V30 33 1 28 34
M  V30 34 1 28 35
M  V30 35 1 30 36
M  V30 36 1 31 37
M  V30 37 2 31 38
M  V30 38 2 37 39
M  V30 39 1 38 40
M  V30 40 1 39 41
M  V30 41 1 7 9
M  V30 42 1 20 24
M  V30 43 2 21 23
M  V30 44 1 32 37
M  V30 45 2 40 41
M  V30 END BOND
M  V30 END CTAB
M  END
>  <Compound ID>
216

>  <Name>
Rebastinib

>  <Uniprot>
P42684

>  <Target>
ABL2

>  <Smiles>
CNC(=O)C1=CC(OC2=CC=C(NC(=O)NC3=CC(C(C)(C)C)=NN3C3=CC=C4N=CC=CC4=C3)C(F)=C2)=CC=N1

>  <Kd (nM)>
135

>  <Assay (Kd)>
Kd apparent of ABL2

>  <Ki (nM)>


>  <Assay (Ki)>


>  <IC50 (nM)>


>  <Assay (IC50)>


>  <EC50 (nM)>


>  <Assay (EC50)>


>  <Article DOI>
10.1126/science.aan4368

>  <Molecular Weight>
553.598

>  <Exact Mass>
553.223765976

>  <XLogP3>
4.93

>  <Heavy Atom Count>
41

>  <Ring Count>
5

>  <Hydrogen Bond Acceptor Count>
7

>  <Hydrogen Bond Donor Count>
3

>  <Rotatable Bond Count>
6

>  <Topological Polar Surface Area>
123.06

>  <Molecular Formula>
C30H28FN7O3

>  <InChI>
InChI=1S/C30H28FN7O3/c1-30(2,3)26-17-27(38(37-26)19-7-9-23-18(14-19)6-5-12-33-23)36-29(40)35-24-10-8-20(15-22(24)31)41-21-11-13-34-25(16-21)28(39)32-4/h5-17H,1-4H3,(H,32,39)(H2,35,36,40)

>  <InChI Key>
WVXNSAVVKYZVOE-UHFFFAOYSA-N

>  <BindingDB>
185674

>  <PubChem>
25066467

>  <ChEMBL>
CHEMBL1738757

$$$$
Compound 702
Actelion Java MolfileCreator 2.0

  0  0  0  0  0  0              0 V3000
M  V30 BEGIN CTAB
M  V30 COUNTS 41 45 0 0 0
M  V30 BEGIN ATOM
M  V30 1 F 0.0 0.0 0.0 0
M  V30 2 C -0.6001 -1.3651 0.0 0
M  V30 3 C 0.2824 -2.5537 0.0 0
M  V30 4 C -2.1065 -1.5298 0.0 0
M  V30 5 N 1.7652 -2.3654 0.0 0
M  V30 6 C -0.3177 -3.9188 0.0 0
M  V30 7 C -2.7066 -2.8949 0.0 0
M  V30 8 C 2.3418 -0.9767 0.0 0
M  V30 9 C -1.824 -4.0835 0.0 0
M  V30 10 O -4.213 -3.0597 0.0 0
M  V30 11 O 1.4357 0.2353 0.0 0
M  V30 12 N 3.8246 -0.7884 0.0 0
M  V30 13 C -5.1191 -1.8476 0.0 0
M  V30 14 C 4.4013 0.6001 0.0 0
M  V30 15 C -4.5425 -0.4589 0.0 0
M  V30 16 C -6.6255 -2.0123 0.0 0
M  V30 17 N 5.8488 0.9414 0.0 0
M  V30 18 C 3.6246 1.9064 0.0 0
M  V30 19 C -5.4486 0.7531 0.0 0
M  V30 20 C -7.5316 -0.8002 0.0 0
M  V30 21 N 5.9782 2.4477 0.0 0
M  V30 22 C 6.9667 -0.0353 0.0 0
M  V30 23 C 4.6013 3.0479 0.0 0
M  V30 24 N -6.955 0.5884 0.0 0
M  V30 25 C -4.872 2.1418 0.0 0
M  V30 26 C 8.3789 0.4589 0.0 0
M  V30 27 C 6.6608 -1.4945 0.0 0
M  V30 28 C 4.26 4.5189 0.0 0
M  V30 29 O -5.7781 3.3539 0.0 0
M  V30 30 N -3.3892 2.3301 0.0 0
M  V30 31 C 9.4969 -0.5178 0.0 0
M  V30 32 C 7.7787 -2.4713 0.0 0
M  V30 33 C 5.7075 4.8602 0.0 0
M  V30 34 C 2.789 4.2012 0.0 0
M  V30 35 C 3.9188 5.99 0.0 0
M  V30 36 C -2.8126 3.7187 0.0 0
M  V30 37 C 9.1909 -1.977 0.0 0
M  V30 38 C 10.9091 -0.0235 0.0 0
M  V30 39 N 10.3089 -2.9538 0.0 0
M  V30 40 C 12.0271 -1.0002 0.0 0
M  V30 41 C 11.7211 -2.4595 0.0 0
M  V30 END ATOM
M  V30 BEGIN BOND
M  V30 1 1 1 2
M  V30 2 2 2 3
M  V30 3 1 2 4
M  V30 4 1 3 5
M  V30 5 1 3 6
M  V30 6 2 4 7
M  V30 7 1 5 8
M  V30 8 2 6 9
M  V30 9 1 7 10
M  V30 10 2 8 11
M  V30 11 1 8 12
M  V30 12 1 10 13
M  V30 13 1 12 14
M  V30 14 2 13 15
M  V30 15 1 13 16
M  V30 16 1 14 17
M  V30 17 2 14 18
M  V30 18 1 15 19
M  V30 19 2 16 20
M  V30 20 1 17 21
M  V30 21 1 17 22
M  V30 22 1 18 23
M  V30 23 2 19 24
M  V30 24 1 19 25
M  V30 25 2 22 26
M  V30 26 1 22 27
M  V30 27 1 23 28
M  V30 28 2 25 29
M  V30 29 1 25 30
M  V30 30 1 26 31
M  V30 31 2 27 32
M  V30 32 1 28 33
M  V30 33 1 28 34
M  V30 34 1 28 35
M  V30 35 1 30 36
M  V30 36 1 31 37
M  V30 37 2 31 38
M  V30 38 2 37 39
M  V30 39 1 38 40
M  V30 40 1 39 41
M  V30 41 1 7 9
M  V30 42 1 20 24
M  V30 43 2 21 23
M  V30 44 1 32 37
M  V30 45 2 40 41
M  V30 END BOND
M  V30 END CTAB
M  END
>  <Compound ID>
216

>  <Name>
Rebastinib

>  <Uniprot>
O14965

>  <Target>
AURKA

>  <Smiles>
CNC(=O)C1=CC(OC2=CC=C(NC(=O)NC3=CC(C(C)(C)C)=NN3C3=CC=C4N=CC=CC4=C3)C(F)=C2)=CC=N1

>  <Kd (nM)>


>  <Assay (Kd)>


>  <Ki (nM)>


>  <Assay (Ki)>


>  <IC50 (nM)>


>  <Assay (IC50)>


>  <EC50 (nM)>


>  <Assay (EC50)>


>  <Article DOI>
10.1016/j.cell.2020.10.038

>  <Molecular Weight>
553.598

>  <Exact Mass>
553.223765976

>  <XLogP3>
4.93

>  <Heavy Atom Count>
41

>  <Ring Count>
5

>  <Hydrogen Bond Acceptor Count>
7

>  <Hydrogen Bond Donor Count>
3

>  <Rotatable Bond Count>
6

>  <Topological Polar Surface Area>
123.06

>  <Molecular Formula>
C30H28FN7O3

>  <InChI>
InChI=1S/C30H28FN7O3/c1-30(2,3)26-17-27(38(37-26)19-7-9-23-18(14-19)6-5-12-33-23)36-29(40)35-24-10-8-20(15-22(24)31)41-21-11-13-34-25(16-21)28(39)32-4/h5-17H,1-4H3,(H,32,39)(H2,35,36,40)

>  <InChI Key>
WVXNSAVVKYZVOE-UHFFFAOYSA-N

>  <BindingDB>
185674

>  <PubChem>
25066467

>  <ChEMBL>
CHEMBL1738757

$$$$
Compound 703
Actelion Java MolfileCreator 2.0

  0  0  0  0  0  0              0 V3000
M  V30 BEGIN CTAB
M  V30 COUNTS 41 45 0 0 0
M  V30 BEGIN ATOM
M  V30 1 F 0.0 0.0 0.0 0
M  V30 2 C -0.6001 -1.3651 0.0 0
M  V30 3 C 0.2824 -2.5537 0.0 0
M  V30 4 C -2.1065 -1.5298 0.0 0
M  V30 5 N 1.7652 -2.3654 0.0 0
M  V30 6 C -0.3177 -3.9188 0.0 0
M  V30 7 C -2.7066 -2.8949 0.0 0
M  V30 8 C 2.3418 -0.9767 0.0 0
M  V30 9 C -1.824 -4.0835 0.0 0
M  V30 10 O -4.213 -3.0597 0.0 0
M  V30 11 O 1.4357 0.2353 0.0 0
M  V30 12 N 3.8246 -0.7884 0.0 0
M  V30 13 C -5.1191 -1.8476 0.0 0
M  V30 14 C 4.4013 0.6001 0.0 0
M  V30 15 C -4.5425 -0.4589 0.0 0
M  V30 16 C -6.6255 -2.0123 0.0 0
M  V30 17 N 5.8488 0.9414 0.0 0
M  V30 18 C 3.6246 1.9064 0.0 0
M  V30 19 C -5.4486 0.7531 0.0 0
M  V30 20 C -7.5316 -0.8002 0.0 0
M  V30 21 N 5.9782 2.4477 0.0 0
M  V30 22 C 6.9667 -0.0353 0.0 0
M  V30 23 C 4.6013 3.0479 0.0 0
M  V30 24 N -6.955 0.5884 0.0 0
M  V30 25 C -4.872 2.1418 0.0 0
M  V30 26 C 8.3789 0.4589 0.0 0
M  V30 27 C 6.6608 -1.4945 0.0 0
M  V30 28 C 4.26 4.5189 0.0 0
M  V30 29 O -5.7781 3.3539 0.0 0
M  V30 30 N -3.3892 2.3301 0.0 0
M  V30 31 C 9.4969 -0.5178 0.0 0
M  V30 32 C 7.7787 -2.4713 0.0 0
M  V30 33 C 5.7075 4.8602 0.0 0
M  V30 34 C 2.789 4.2012 0.0 0
M  V30 35 C 3.9188 5.99 0.0 0
M  V30 36 C -2.8126 3.7187 0.0 0
M  V30 37 C 9.1909 -1.977 0.0 0
M  V30 38 C 10.9091 -0.0235 0.0 0
M  V30 39 N 10.3089 -2.9538 0.0 0
M  V30 40 C 12.0271 -1.0002 0.0 0
M  V30 41 C 11.7211 -2.4595 0.0 0
M  V30 END ATOM
M  V30 BEGIN BOND
M  V30 1 1 1 2
M  V30 2 2 2 3
M  V30 3 1 2 4
M  V30 4 1 3 5
M  V30 5 1 3 6
M  V30 6 2 4 7
M  V30 7 1 5 8
M  V30 8 2 6 9
M  V30 9 1 7 10
M  V30 10 2 8 11
M  V30 11 1 8 12
M  V30 12 1 10 13
M  V30 13 1 12 14
M  V30 14 2 13 15
M  V30 15 1 13 16
M  V30 16 1 14 17
M  V30 17 2 14 18
M  V30 18 1 15 19
M  V30 19 2 16 20
M  V30 20 1 17 21
M  V30 21 1 17 22
M  V30 22 1 18 23
M  V30 23 2 19 24
M  V30 24 1 19 25
M  V30 25 2 22 26
M  V30 26 1 22 27
M  V30 27 1 23 28
M  V30 28 2 25 29
M  V30 29 1 25 30
M  V30 30 1 26 31
M  V30 31 2 27 32
M  V30 32 1 28 33
M  V30 33 1 28 34
M  V30 34 1 28 35
M  V30 35 1 30 36
M  V30 36 1 31 37
M  V30 37 2 31 38
M  V30 38 2 37 39
M  V30 39 1 38 40
M  V30 40 1 39 41
M  V30 41 1 7 9
M  V30 42 1 20 24
M  V30 43 2 21 23
M  V30 44 1 32 37
M  V30 45 2 40 41
M  V30 END BOND
M  V30 END CTAB
M  END
>  <Compound ID>
216

>  <Name>
Rebastinib

>  <Uniprot>
Q96GD4

>  <Target>
AURKB

>  <Smiles>
CNC(=O)C1=CC(OC2=CC=C(NC(=O)NC3=CC(C(C)(C)C)=NN3C3=CC=C4N=CC=CC4=C3)C(F)=C2)=CC=N1

>  <Kd (nM)>


>  <Assay (Kd)>


>  <Ki (nM)>


>  <Assay (Ki)>


>  <IC50 (nM)>


>  <Assay (IC50)>


>  <EC50 (nM)>


>  <Assay (EC50)>


>  <Article DOI>
10.1016/j.cell.2020.10.038

>  <Molecular Weight>
553.598

>  <Exact Mass>
553.223765976

>  <XLogP3>
4.93

>  <Heavy Atom Count>
41

>  <Ring Count>
5

>  <Hydrogen Bond Acceptor Count>
7

>  <Hydrogen Bond Donor Count>
3

>  <Rotatable Bond Count>
6

>  <Topological Polar Surface Area>
123.06

>  <Molecular Formula>
C30H28FN7O3

>  <InChI>
InChI=1S/C30H28FN7O3/c1-30(2,3)26-17-27(38(37-26)19-7-9-23-18(14-19)6-5-12-33-23)36-29(40)35-24-10-8-20(15-22(24)31)41-21-11-13-34-25(16-21)28(39)32-4/h5-17H,1-4H3,(H,32,39)(H2,35,36,40)

>  <InChI Key>
WVXNSAVVKYZVOE-UHFFFAOYSA-N

>  <BindingDB>
185674

>  <PubChem>
25066467

>  <ChEMBL>
CHEMBL1738757

$$$$
Compound 704
Actelion Java MolfileCreator 2.0

  0  0  0  0  0  0              0 V3000
M  V30 BEGIN CTAB
M  V30 COUNTS 41 45 0 0 0
M  V30 BEGIN ATOM
M  V30 1 F 0.0 0.0 0.0 0
M  V30 2 C -0.6001 -1.3651 0.0 0
M  V30 3 C 0.2824 -2.5537 0.0 0
M  V30 4 C -2.1065 -1.5298 0.0 0
M  V30 5 N 1.7652 -2.3654 0.0 0
M  V30 6 C -0.3177 -3.9188 0.0 0
M  V30 7 C -2.7066 -2.8949 0.0 0
M  V30 8 C 2.3418 -0.9767 0.0 0
M  V30 9 C -1.824 -4.0835 0.0 0
M  V30 10 O -4.213 -3.0597 0.0 0
M  V30 11 O 1.4357 0.2353 0.0 0
M  V30 12 N 3.8246 -0.7884 0.0 0
M  V30 13 C -5.1191 -1.8476 0.0 0
M  V30 14 C 4.4013 0.6001 0.0 0
M  V30 15 C -4.5425 -0.4589 0.0 0
M  V30 16 C -6.6255 -2.0123 0.0 0
M  V30 17 N 5.8488 0.9414 0.0 0
M  V30 18 C 3.6246 1.9064 0.0 0
M  V30 19 C -5.4486 0.7531 0.0 0
M  V30 20 C -7.5316 -0.8002 0.0 0
M  V30 21 N 5.9782 2.4477 0.0 0
M  V30 22 C 6.9667 -0.0353 0.0 0
M  V30 23 C 4.6013 3.0479 0.0 0
M  V30 24 N -6.955 0.5884 0.0 0
M  V30 25 C -4.872 2.1418 0.0 0
M  V30 26 C 8.3789 0.4589 0.0 0
M  V30 27 C 6.6608 -1.4945 0.0 0
M  V30 28 C 4.26 4.5189 0.0 0
M  V30 29 O -5.7781 3.3539 0.0 0
M  V30 30 N -3.3892 2.3301 0.0 0
M  V30 31 C 9.4969 -0.5178 0.0 0
M  V30 32 C 7.7787 -2.4713 0.0 0
M  V30 33 C 5.7075 4.8602 0.0 0
M  V30 34 C 2.789 4.2012 0.0 0
M  V30 35 C 3.9188 5.99 0.0 0
M  V30 36 C -2.8126 3.7187 0.0 0
M  V30 37 C 9.1909 -1.977 0.0 0
M  V30 38 C 10.9091 -0.0235 0.0 0
M  V30 39 N 10.3089 -2.9538 0.0 0
M  V30 40 C 12.0271 -1.0002 0.0 0
M  V30 41 C 11.7211 -2.4595 0.0 0
M  V30 END ATOM
M  V30 BEGIN BOND
M  V30 1 1 1 2
M  V30 2 2 2 3
M  V30 3 1 2 4
M  V30 4 1 3 5
M  V30 5 1 3 6
M  V30 6 2 4 7
M  V30 7 1 5 8
M  V30 8 2 6 9
M  V30 9 1 7 10
M  V30 10 2 8 11
M  V30 11 1 8 12
M  V30 12 1 10 13
M  V30 13 1 12 14
M  V30 14 2 13 15
M  V30 15 1 13 16
M  V30 16 1 14 17
M  V30 17 2 14 18
M  V30 18 1 15 19
M  V30 19 2 16 20
M  V30 20 1 17 21
M  V30 21 1 17 22
M  V30 22 1 18 23
M  V30 23 2 19 24
M  V30 24 1 19 25
M  V30 25 2 22 26
M  V30 26 1 22 27
M  V30 27 1 23 28
M  V30 28 2 25 29
M  V30 29 1 25 30
M  V30 30 1 26 31
M  V30 31 2 27 32
M  V30 32 1 28 33
M  V30 33 1 28 34
M  V30 34 1 28 35
M  V30 35 1 30 36
M  V30 36 1 31 37
M  V30 37 2 31 38
M  V30 38 2 37 39
M  V30 39 1 38 40
M  V30 40 1 39 41
M  V30 41 1 7 9
M  V30 42 1 20 24
M  V30 43 2 21 23
M  V30 44 1 32 37
M  V30 45 2 40 41
M  V30 END BOND
M  V30 END CTAB
M  END
>  <Compound ID>
216

>  <Name>
Rebastinib

>  <Uniprot>
P51451

>  <Target>
BLK

>  <Smiles>
CNC(=O)C1=CC(OC2=CC=C(NC(=O)NC3=CC(C(C)(C)C)=NN3C3=CC=C4N=CC=CC4=C3)C(F)=C2)=CC=N1

>  <Kd (nM)>


>  <Assay (Kd)>


>  <Ki (nM)>


>  <Assay (Ki)>


>  <IC50 (nM)>


>  <Assay (IC50)>


>  <EC50 (nM)>


>  <Assay (EC50)>


>  <Article DOI>
10.1016/j.cell.2020.10.038

>  <Molecular Weight>
553.598

>  <Exact Mass>
553.223765976

>  <XLogP3>
4.93

>  <Heavy Atom Count>
41

>  <Ring Count>
5

>  <Hydrogen Bond Acceptor Count>
7

>  <Hydrogen Bond Donor Count>
3

>  <Rotatable Bond Count>
6

>  <Topological Polar Surface Area>
123.06

>  <Molecular Formula>
C30H28FN7O3

>  <InChI>
InChI=1S/C30H28FN7O3/c1-30(2,3)26-17-27(38(37-26)19-7-9-23-18(14-19)6-5-12-33-23)36-29(40)35-24-10-8-20(15-22(24)31)41-21-11-13-34-25(16-21)28(39)32-4/h5-17H,1-4H3,(H,32,39)(H2,35,36,40)

>  <InChI Key>
WVXNSAVVKYZVOE-UHFFFAOYSA-N

>  <BindingDB>
185674

>  <PubChem>
25066467

>  <ChEMBL>
CHEMBL1738757

$$$$
Compound 705
Actelion Java MolfileCreator 2.0

  0  0  0  0  0  0              0 V3000
M  V30 BEGIN CTAB
M  V30 COUNTS 41 45 0 0 0
M  V30 BEGIN ATOM
M  V30 1 F 0.0 0.0 0.0 0
M  V30 2 C -0.6001 -1.3651 0.0 0
M  V30 3 C 0.2824 -2.5537 0.0 0
M  V30 4 C -2.1065 -1.5298 0.0 0
M  V30 5 N 1.7652 -2.3654 0.0 0
M  V30 6 C -0.3177 -3.9188 0.0 0
M  V30 7 C -2.7066 -2.8949 0.0 0
M  V30 8 C 2.3418 -0.9767 0.0 0
M  V30 9 C -1.824 -4.0835 0.0 0
M  V30 10 O -4.213 -3.0597 0.0 0
M  V30 11 O 1.4357 0.2353 0.0 0
M  V30 12 N 3.8246 -0.7884 0.0 0
M  V30 13 C -5.1191 -1.8476 0.0 0
M  V30 14 C 4.4013 0.6001 0.0 0
M  V30 15 C -4.5425 -0.4589 0.0 0
M  V30 16 C -6.6255 -2.0123 0.0 0
M  V30 17 N 5.8488 0.9414 0.0 0
M  V30 18 C 3.6246 1.9064 0.0 0
M  V30 19 C -5.4486 0.7531 0.0 0
M  V30 20 C -7.5316 -0.8002 0.0 0
M  V30 21 N 5.9782 2.4477 0.0 0
M  V30 22 C 6.9667 -0.0353 0.0 0
M  V30 23 C 4.6013 3.0479 0.0 0
M  V30 24 N -6.955 0.5884 0.0 0
M  V30 25 C -4.872 2.1418 0.0 0
M  V30 26 C 8.3789 0.4589 0.0 0
M  V30 27 C 6.6608 -1.4945 0.0 0
M  V30 28 C 4.26 4.5189 0.0 0
M  V30 29 O -5.7781 3.3539 0.0 0
M  V30 30 N -3.3892 2.3301 0.0 0
M  V30 31 C 9.4969 -0.5178 0.0 0
M  V30 32 C 7.7787 -2.4713 0.0 0
M  V30 33 C 5.7075 4.8602 0.0 0
M  V30 34 C 2.789 4.2012 0.0 0
M  V30 35 C 3.9188 5.99 0.0 0
M  V30 36 C -2.8126 3.7187 0.0 0
M  V30 37 C 9.1909 -1.977 0.0 0
M  V30 38 C 10.9091 -0.0235 0.0 0
M  V30 39 N 10.3089 -2.9538 0.0 0
M  V30 40 C 12.0271 -1.0002 0.0 0
M  V30 41 C 11.7211 -2.4595 0.0 0
M  V30 END ATOM
M  V30 BEGIN BOND
M  V30 1 1 1 2
M  V30 2 2 2 3
M  V30 3 1 2 4
M  V30 4 1 3 5
M  V30 5 1 3 6
M  V30 6 2 4 7
M  V30 7 1 5 8
M  V30 8 2 6 9
M  V30 9 1 7 10
M  V30 10 2 8 11
M  V30 11 1 8 12
M  V30 12 1 10 13
M  V30 13 1 12 14
M  V30 14 2 13 15
M  V30 15 1 13 16
M  V30 16 1 14 17
M  V30 17 2 14 18
M  V30 18 1 15 19
M  V30 19 2 16 20
M  V30 20 1 17 21
M  V30 21 1 17 22
M  V30 22 1 18 23
M  V30 23 2 19 24
M  V30 24 1 19 25
M  V30 25 2 22 26
M  V30 26 1 22 27
M  V30 27 1 23 28
M  V30 28 2 25 29
M  V30 29 1 25 30
M  V30 30 1 26 31
M  V30 31 2 27 32
M  V30 32 1 28 33
M  V30 33 1 28 34
M  V30 34 1 28 35
M  V30 35 1 30 36
M  V30 36 1 31 37
M  V30 37 2 31 38
M  V30 38 2 37 39
M  V30 39 1 38 40
M  V30 40 1 39 41
M  V30 41 1 7 9
M  V30 42 1 20 24
M  V30 43 2 21 23
M  V30 44 1 32 37
M  V30 45 2 40 41
M  V30 END BOND
M  V30 END CTAB
M  END
>  <Compound ID>
216

>  <Name>
Rebastinib

>  <Uniprot>
O60566

>  <Target>
BUB1B

>  <Smiles>
CNC(=O)C1=CC(OC2=CC=C(NC(=O)NC3=CC(C(C)(C)C)=NN3C3=CC=C4N=CC=CC4=C3)C(F)=C2)=CC=N1

>  <Kd (nM)>


>  <Assay (Kd)>


>  <Ki (nM)>


>  <Assay (Ki)>


>  <IC50 (nM)>


>  <Assay (IC50)>


>  <EC50 (nM)>


>  <Assay (EC50)>


>  <Article DOI>
10.1016/j.cell.2020.10.038

>  <Molecular Weight>
553.598

>  <Exact Mass>
553.223765976

>  <XLogP3>
4.93

>  <Heavy Atom Count>
41

>  <Ring Count>
5

>  <Hydrogen Bond Acceptor Count>
7

>  <Hydrogen Bond Donor Count>
3

>  <Rotatable Bond Count>
6

>  <Topological Polar Surface Area>
123.06

>  <Molecular Formula>
C30H28FN7O3

>  <InChI>
InChI=1S/C30H28FN7O3/c1-30(2,3)26-17-27(38(37-26)19-7-9-23-18(14-19)6-5-12-33-23)36-29(40)35-24-10-8-20(15-22(24)31)41-21-11-13-34-25(16-21)28(39)32-4/h5-17H,1-4H3,(H,32,39)(H2,35,36,40)

>  <InChI Key>
WVXNSAVVKYZVOE-UHFFFAOYSA-N

>  <BindingDB>
185674

>  <PubChem>
25066467

>  <ChEMBL>
CHEMBL1738757

$$$$
Compound 706
Actelion Java MolfileCreator 2.0

  0  0  0  0  0  0              0 V3000
M  V30 BEGIN CTAB
M  V30 COUNTS 41 45 0 0 0
M  V30 BEGIN ATOM
M  V30 1 F 0.0 0.0 0.0 0
M  V30 2 C -0.6001 -1.3651 0.0 0
M  V30 3 C 0.2824 -2.5537 0.0 0
M  V30 4 C -2.1065 -1.5298 0.0 0
M  V30 5 N 1.7652 -2.3654 0.0 0
M  V30 6 C -0.3177 -3.9188 0.0 0
M  V30 7 C -2.7066 -2.8949 0.0 0
M  V30 8 C 2.3418 -0.9767 0.0 0
M  V30 9 C -1.824 -4.0835 0.0 0
M  V30 10 O -4.213 -3.0597 0.0 0
M  V30 11 O 1.4357 0.2353 0.0 0
M  V30 12 N 3.8246 -0.7884 0.0 0
M  V30 13 C -5.1191 -1.8476 0.0 0
M  V30 14 C 4.4013 0.6001 0.0 0
M  V30 15 C -4.5425 -0.4589 0.0 0
M  V30 16 C -6.6255 -2.0123 0.0 0
M  V30 17 N 5.8488 0.9414 0.0 0
M  V30 18 C 3.6246 1.9064 0.0 0
M  V30 19 C -5.4486 0.7531 0.0 0
M  V30 20 C -7.5316 -0.8002 0.0 0
M  V30 21 N 5.9782 2.4477 0.0 0
M  V30 22 C 6.9667 -0.0353 0.0 0
M  V30 23 C 4.6013 3.0479 0.0 0
M  V30 24 N -6.955 0.5884 0.0 0
M  V30 25 C -4.872 2.1418 0.0 0
M  V30 26 C 8.3789 0.4589 0.0 0
M  V30 27 C 6.6608 -1.4945 0.0 0
M  V30 28 C 4.26 4.5189 0.0 0
M  V30 29 O -5.7781 3.3539 0.0 0
M  V30 30 N -3.3892 2.3301 0.0 0
M  V30 31 C 9.4969 -0.5178 0.0 0
M  V30 32 C 7.7787 -2.4713 0.0 0
M  V30 33 C 5.7075 4.8602 0.0 0
M  V30 34 C 2.789 4.2012 0.0 0
M  V30 35 C 3.9188 5.99 0.0 0
M  V30 36 C -2.8126 3.7187 0.0 0
M  V30 37 C 9.1909 -1.977 0.0 0
M  V30 38 C 10.9091 -0.0235 0.0 0
M  V30 39 N 10.3089 -2.9538 0.0 0
M  V30 40 C 12.0271 -1.0002 0.0 0
M  V30 41 C 11.7211 -2.4595 0.0 0
M  V30 END ATOM
M  V30 BEGIN BOND
M  V30 1 1 1 2
M  V30 2 2 2 3
M  V30 3 1 2 4
M  V30 4 1 3 5
M  V30 5 1 3 6
M  V30 6 2 4 7
M  V30 7 1 5 8
M  V30 8 2 6 9
M  V30 9 1 7 10
M  V30 10 2 8 11
M  V30 11 1 8 12
M  V30 12 1 10 13
M  V30 13 1 12 14
M  V30 14 2 13 15
M  V30 15 1 13 16
M  V30 16 1 14 17
M  V30 17 2 14 18
M  V30 18 1 15 19
M  V30 19 2 16 20
M  V30 20 1 17 21
M  V30 21 1 17 22
M  V30 22 1 18 23
M  V30 23 2 19 24
M  V30 24 1 19 25
M  V30 25 2 22 26
M  V30 26 1 22 27
M  V30 27 1 23 28
M  V30 28 2 25 29
M  V30 29 1 25 30
M  V30 30 1 26 31
M  V30 31 2 27 32
M  V30 32 1 28 33
M  V30 33 1 28 34
M  V30 34 1 28 35
M  V30 35 1 30 36
M  V30 36 1 31 37
M  V30 37 2 31 38
M  V30 38 2 37 39
M  V30 39 1 38 40
M  V30 40 1 39 41
M  V30 41 1 7 9
M  V30 42 1 20 24
M  V30 43 2 21 23
M  V30 44 1 32 37
M  V30 45 2 40 41
M  V30 END BOND
M  V30 END CTAB
M  END
>  <Compound ID>
216

>  <Name>
Rebastinib

>  <Uniprot>
Q14004

>  <Target>
CDK13

>  <Smiles>
CNC(=O)C1=CC(OC2=CC=C(NC(=O)NC3=CC(C(C)(C)C)=NN3C3=CC=C4N=CC=CC4=C3)C(F)=C2)=CC=N1

>  <Kd (nM)>


>  <Assay (Kd)>


>  <Ki (nM)>


>  <Assay (Ki)>


>  <IC50 (nM)>


>  <Assay (IC50)>


>  <EC50 (nM)>


>  <Assay (EC50)>


>  <Article DOI>
10.1016/j.cell.2020.10.038

>  <Molecular Weight>
553.598

>  <Exact Mass>
553.223765976

>  <XLogP3>
4.93

>  <Heavy Atom Count>
41

>  <Ring Count>
5

>  <Hydrogen Bond Acceptor Count>
7

>  <Hydrogen Bond Donor Count>
3

>  <Rotatable Bond Count>
6

>  <Topological Polar Surface Area>
123.06

>  <Molecular Formula>
C30H28FN7O3

>  <InChI>
InChI=1S/C30H28FN7O3/c1-30(2,3)26-17-27(38(37-26)19-7-9-23-18(14-19)6-5-12-33-23)36-29(40)35-24-10-8-20(15-22(24)31)41-21-11-13-34-25(16-21)28(39)32-4/h5-17H,1-4H3,(H,32,39)(H2,35,36,40)

>  <InChI Key>
WVXNSAVVKYZVOE-UHFFFAOYSA-N

>  <BindingDB>
185674

>  <PubChem>
25066467

>  <ChEMBL>
CHEMBL1738757

$$$$
Compound 707
Actelion Java MolfileCreator 2.0

  0  0  0  0  0  0              0 V3000
M  V30 BEGIN CTAB
M  V30 COUNTS 41 45 0 0 0
M  V30 BEGIN ATOM
M  V30 1 F 0.0 0.0 0.0 0
M  V30 2 C -0.6001 -1.3651 0.0 0
M  V30 3 C 0.2824 -2.5537 0.0 0
M  V30 4 C -2.1065 -1.5298 0.0 0
M  V30 5 N 1.7652 -2.3654 0.0 0
M  V30 6 C -0.3177 -3.9188 0.0 0
M  V30 7 C -2.7066 -2.8949 0.0 0
M  V30 8 C 2.3418 -0.9767 0.0 0
M  V30 9 C -1.824 -4.0835 0.0 0
M  V30 10 O -4.213 -3.0597 0.0 0
M  V30 11 O 1.4357 0.2353 0.0 0
M  V30 12 N 3.8246 -0.7884 0.0 0
M  V30 13 C -5.1191 -1.8476 0.0 0
M  V30 14 C 4.4013 0.6001 0.0 0
M  V30 15 C -4.5425 -0.4589 0.0 0
M  V30 16 C -6.6255 -2.0123 0.0 0
M  V30 17 N 5.8488 0.9414 0.0 0
M  V30 18 C 3.6246 1.9064 0.0 0
M  V30 19 C -5.4486 0.7531 0.0 0
M  V30 20 C -7.5316 -0.8002 0.0 0
M  V30 21 N 5.9782 2.4477 0.0 0
M  V30 22 C 6.9667 -0.0353 0.0 0
M  V30 23 C 4.6013 3.0479 0.0 0
M  V30 24 N -6.955 0.5884 0.0 0
M  V30 25 C -4.872 2.1418 0.0 0
M  V30 26 C 8.3789 0.4589 0.0 0
M  V30 27 C 6.6608 -1.4945 0.0 0
M  V30 28 C 4.26 4.5189 0.0 0
M  V30 29 O -5.7781 3.3539 0.0 0
M  V30 30 N -3.3892 2.3301 0.0 0
M  V30 31 C 9.4969 -0.5178 0.0 0
M  V30 32 C 7.7787 -2.4713 0.0 0
M  V30 33 C 5.7075 4.8602 0.0 0
M  V30 34 C 2.789 4.2012 0.0 0
M  V30 35 C 3.9188 5.99 0.0 0
M  V30 36 C -2.8126 3.7187 0.0 0
M  V30 37 C 9.1909 -1.977 0.0 0
M  V30 38 C 10.9091 -0.0235 0.0 0
M  V30 39 N 10.3089 -2.9538 0.0 0
M  V30 40 C 12.0271 -1.0002 0.0 0
M  V30 41 C 11.7211 -2.4595 0.0 0
M  V30 END ATOM
M  V30 BEGIN BOND
M  V30 1 1 1 2
M  V30 2 2 2 3
M  V30 3 1 2 4
M  V30 4 1 3 5
M  V30 5 1 3 6
M  V30 6 2 4 7
M  V30 7 1 5 8
M  V30 8 2 6 9
M  V30 9 1 7 10
M  V30 10 2 8 11
M  V30 11 1 8 12
M  V30 12 1 10 13
M  V30 13 1 12 14
M  V30 14 2 13 15
M  V30 15 1 13 16
M  V30 16 1 14 17
M  V30 17 2 14 18
M  V30 18 1 15 19
M  V30 19 2 16 20
M  V30 20 1 17 21
M  V30 21 1 17 22
M  V30 22 1 18 23
M  V30 23 2 19 24
M  V30 24 1 19 25
M  V30 25 2 22 26
M  V30 26 1 22 27
M  V30 27 1 23 28
M  V30 28 2 25 29
M  V30 29 1 25 30
M  V30 30 1 26 31
M  V30 31 2 27 32
M  V30 32 1 28 33
M  V30 33 1 28 34
M  V30 34 1 28 35
M  V30 35 1 30 36
M  V30 36 1 31 37
M  V30 37 2 31 38
M  V30 38 2 37 39
M  V30 39 1 38 40
M  V30 40 1 39 41
M  V30 41 1 7 9
M  V30 42 1 20 24
M  V30 43 2 21 23
M  V30 44 1 32 37
M  V30 45 2 40 41
M  V30 END BOND
M  V30 END CTAB
M  END
>  <Compound ID>
216

>  <Name>
Rebastinib

>  <Uniprot>
Q00537

>  <Target>
CDK17

>  <Smiles>
CNC(=O)C1=CC(OC2=CC=C(NC(=O)NC3=CC(C(C)(C)C)=NN3C3=CC=C4N=CC=CC4=C3)C(F)=C2)=CC=N1

>  <Kd (nM)>
7

>  <Assay (Kd)>
Kd apparent of CDK17

>  <Ki (nM)>


>  <Assay (Ki)>


>  <IC50 (nM)>


>  <Assay (IC50)>


>  <EC50 (nM)>


>  <Assay (EC50)>


>  <Article DOI>
10.1126/science.aan4368

>  <Molecular Weight>
553.598

>  <Exact Mass>
553.223765976

>  <XLogP3>
4.93

>  <Heavy Atom Count>
41

>  <Ring Count>
5

>  <Hydrogen Bond Acceptor Count>
7

>  <Hydrogen Bond Donor Count>
3

>  <Rotatable Bond Count>
6

>  <Topological Polar Surface Area>
123.06

>  <Molecular Formula>
C30H28FN7O3

>  <InChI>
InChI=1S/C30H28FN7O3/c1-30(2,3)26-17-27(38(37-26)19-7-9-23-18(14-19)6-5-12-33-23)36-29(40)35-24-10-8-20(15-22(24)31)41-21-11-13-34-25(16-21)28(39)32-4/h5-17H,1-4H3,(H,32,39)(H2,35,36,40)

>  <InChI Key>
WVXNSAVVKYZVOE-UHFFFAOYSA-N

>  <BindingDB>
185674

>  <PubChem>
25066467

>  <ChEMBL>
CHEMBL1738757

$$$$
Compound 708
Actelion Java MolfileCreator 2.0

  0  0  0  0  0  0              0 V3000
M  V30 BEGIN CTAB
M  V30 COUNTS 41 45 0 0 0
M  V30 BEGIN ATOM
M  V30 1 F 0.0 0.0 0.0 0
M  V30 2 C -0.6001 -1.3651 0.0 0
M  V30 3 C 0.2824 -2.5537 0.0 0
M  V30 4 C -2.1065 -1.5298 0.0 0
M  V30 5 N 1.7652 -2.3654 0.0 0
M  V30 6 C -0.3177 -3.9188 0.0 0
M  V30 7 C -2.7066 -2.8949 0.0 0
M  V30 8 C 2.3418 -0.9767 0.0 0
M  V30 9 C -1.824 -4.0835 0.0 0
M  V30 10 O -4.213 -3.0597 0.0 0
M  V30 11 O 1.4357 0.2353 0.0 0
M  V30 12 N 3.8246 -0.7884 0.0 0
M  V30 13 C -5.1191 -1.8476 0.0 0
M  V30 14 C 4.4013 0.6001 0.0 0
M  V30 15 C -4.5425 -0.4589 0.0 0
M  V30 16 C -6.6255 -2.0123 0.0 0
M  V30 17 N 5.8488 0.9414 0.0 0
M  V30 18 C 3.6246 1.9064 0.0 0
M  V30 19 C -5.4486 0.7531 0.0 0
M  V30 20 C -7.5316 -0.8002 0.0 0
M  V30 21 N 5.9782 2.4477 0.0 0
M  V30 22 C 6.9667 -0.0353 0.0 0
M  V30 23 C 4.6013 3.0479 0.0 0
M  V30 24 N -6.955 0.5884 0.0 0
M  V30 25 C -4.872 2.1418 0.0 0
M  V30 26 C 8.3789 0.4589 0.0 0
M  V30 27 C 6.6608 -1.4945 0.0 0
M  V30 28 C 4.26 4.5189 0.0 0
M  V30 29 O -5.7781 3.3539 0.0 0
M  V30 30 N -3.3892 2.3301 0.0 0
M  V30 31 C 9.4969 -0.5178 0.0 0
M  V30 32 C 7.7787 -2.4713 0.0 0
M  V30 33 C 5.7075 4.8602 0.0 0
M  V30 34 C 2.789 4.2012 0.0 0
M  V30 35 C 3.9188 5.99 0.0 0
M  V30 36 C -2.8126 3.7187 0.0 0
M  V30 37 C 9.1909 -1.977 0.0 0
M  V30 38 C 10.9091 -0.0235 0.0 0
M  V30 39 N 10.3089 -2.9538 0.0 0
M  V30 40 C 12.0271 -1.0002 0.0 0
M  V30 41 C 11.7211 -2.4595 0.0 0
M  V30 END ATOM
M  V30 BEGIN BOND
M  V30 1 1 1 2
M  V30 2 2 2 3
M  V30 3 1 2 4
M  V30 4 1 3 5
M  V30 5 1 3 6
M  V30 6 2 4 7
M  V30 7 1 5 8
M  V30 8 2 6 9
M  V30 9 1 7 10
M  V30 10 2 8 11
M  V30 11 1 8 12
M  V30 12 1 10 13
M  V30 13 1 12 14
M  V30 14 2 13 15
M  V30 15 1 13 16
M  V30 16 1 14 17
M  V30 17 2 14 18
M  V30 18 1 15 19
M  V30 19 2 16 20
M  V30 20 1 17 21
M  V30 21 1 17 22
M  V30 22 1 18 23
M  V30 23 2 19 24
M  V30 24 1 19 25
M  V30 25 2 22 26
M  V30 26 1 22 27
M  V30 27 1 23 28
M  V30 28 2 25 29
M  V30 29 1 25 30
M  V30 30 1 26 31
M  V30 31 2 27 32
M  V30 32 1 28 33
M  V30 33 1 28 34
M  V30 34 1 28 35
M  V30 35 1 30 36
M  V30 36 1 31 37
M  V30 37 2 31 38
M  V30 38 2 37 39
M  V30 39 1 38 40
M  V30 40 1 39 41
M  V30 41 1 7 9
M  V30 42 1 20 24
M  V30 43 2 21 23
M  V30 44 1 32 37
M  V30 45 2 40 41
M  V30 END BOND
M  V30 END CTAB
M  END
>  <Compound ID>
216

>  <Name>
Rebastinib

>  <Uniprot>
P24941

>  <Target>
CDK2

>  <Smiles>
CNC(=O)C1=CC(OC2=CC=C(NC(=O)NC3=CC(C(C)(C)C)=NN3C3=CC=C4N=CC=CC4=C3)C(F)=C2)=CC=N1

>  <Kd (nM)>


>  <Assay (Kd)>


>  <Ki (nM)>


>  <Assay (Ki)>


>  <IC50 (nM)>


>  <Assay (IC50)>


>  <EC50 (nM)>


>  <Assay (EC50)>


>  <Article DOI>
10.1016/j.cell.2020.10.038

>  <Molecular Weight>
553.598

>  <Exact Mass>
553.223765976

>  <XLogP3>
4.93

>  <Heavy Atom Count>
41

>  <Ring Count>
5

>  <Hydrogen Bond Acceptor Count>
7

>  <Hydrogen Bond Donor Count>
3

>  <Rotatable Bond Count>
6

>  <Topological Polar Surface Area>
123.06

>  <Molecular Formula>
C30H28FN7O3

>  <InChI>
InChI=1S/C30H28FN7O3/c1-30(2,3)26-17-27(38(37-26)19-7-9-23-18(14-19)6-5-12-33-23)36-29(40)35-24-10-8-20(15-22(24)31)41-21-11-13-34-25(16-21)28(39)32-4/h5-17H,1-4H3,(H,32,39)(H2,35,36,40)

>  <InChI Key>
WVXNSAVVKYZVOE-UHFFFAOYSA-N

>  <BindingDB>
185674

>  <PubChem>
25066467

>  <ChEMBL>
CHEMBL1738757

$$$$
Compound 709
Actelion Java MolfileCreator 2.0

  0  0  0  0  0  0              0 V3000
M  V30 BEGIN CTAB
M  V30 COUNTS 41 45 0 0 0
M  V30 BEGIN ATOM
M  V30 1 F 0.0 0.0 0.0 0
M  V30 2 C -0.6001 -1.3651 0.0 0
M  V30 3 C 0.2824 -2.5537 0.0 0
M  V30 4 C -2.1065 -1.5298 0.0 0
M  V30 5 N 1.7652 -2.3654 0.0 0
M  V30 6 C -0.3177 -3.9188 0.0 0
M  V30 7 C -2.7066 -2.8949 0.0 0
M  V30 8 C 2.3418 -0.9767 0.0 0
M  V30 9 C -1.824 -4.0835 0.0 0
M  V30 10 O -4.213 -3.0597 0.0 0
M  V30 11 O 1.4357 0.2353 0.0 0
M  V30 12 N 3.8246 -0.7884 0.0 0
M  V30 13 C -5.1191 -1.8476 0.0 0
M  V30 14 C 4.4013 0.6001 0.0 0
M  V30 15 C -4.5425 -0.4589 0.0 0
M  V30 16 C -6.6255 -2.0123 0.0 0
M  V30 17 N 5.8488 0.9414 0.0 0
M  V30 18 C 3.6246 1.9064 0.0 0
M  V30 19 C -5.4486 0.7531 0.0 0
M  V30 20 C -7.5316 -0.8002 0.0 0
M  V30 21 N 5.9782 2.4477 0.0 0
M  V30 22 C 6.9667 -0.0353 0.0 0
M  V30 23 C 4.6013 3.0479 0.0 0
M  V30 24 N -6.955 0.5884 0.0 0
M  V30 25 C -4.872 2.1418 0.0 0
M  V30 26 C 8.3789 0.4589 0.0 0
M  V30 27 C 6.6608 -1.4945 0.0 0
M  V30 28 C 4.26 4.5189 0.0 0
M  V30 29 O -5.7781 3.3539 0.0 0
M  V30 30 N -3.3892 2.3301 0.0 0
M  V30 31 C 9.4969 -0.5178 0.0 0
M  V30 32 C 7.7787 -2.4713 0.0 0
M  V30 33 C 5.7075 4.8602 0.0 0
M  V30 34 C 2.789 4.2012 0.0 0
M  V30 35 C 3.9188 5.99 0.0 0
M  V30 36 C -2.8126 3.7187 0.0 0
M  V30 37 C 9.1909 -1.977 0.0 0
M  V30 38 C 10.9091 -0.0235 0.0 0
M  V30 39 N 10.3089 -2.9538 0.0 0
M  V30 40 C 12.0271 -1.0002 0.0 0
M  V30 41 C 11.7211 -2.4595 0.0 0
M  V30 END ATOM
M  V30 BEGIN BOND
M  V30 1 1 1 2
M  V30 2 2 2 3
M  V30 3 1 2 4
M  V30 4 1 3 5
M  V30 5 1 3 6
M  V30 6 2 4 7
M  V30 7 1 5 8
M  V30 8 2 6 9
M  V30 9 1 7 10
M  V30 10 2 8 11
M  V30 11 1 8 12
M  V30 12 1 10 13
M  V30 13 1 12 14
M  V30 14 2 13 15
M  V30 15 1 13 16
M  V30 16 1 14 17
M  V30 17 2 14 18
M  V30 18 1 15 19
M  V30 19 2 16 20
M  V30 20 1 17 21
M  V30 21 1 17 22
M  V30 22 1 18 23
M  V30 23 2 19 24
M  V30 24 1 19 25
M  V30 25 2 22 26
M  V30 26 1 22 27
M  V30 27 1 23 28
M  V30 28 2 25 29
M  V30 29 1 25 30
M  V30 30 1 26 31
M  V30 31 2 27 32
M  V30 32 1 28 33
M  V30 33 1 28 34
M  V30 34 1 28 35
M  V30 35 1 30 36
M  V30 36 1 31 37
M  V30 37 2 31 38
M  V30 38 2 37 39
M  V30 39 1 38 40
M  V30 40 1 39 41
M  V30 41 1 7 9
M  V30 42 1 20 24
M  V30 43 2 21 23
M  V30 44 1 32 37
M  V30 45 2 40 41
M  V30 END BOND
M  V30 END CTAB
M  END
>  <Compound ID>
216

>  <Name>
Rebastinib

>  <Uniprot>
P11802

>  <Target>
CDK4

>  <Smiles>
CNC(=O)C1=CC(OC2=CC=C(NC(=O)NC3=CC(C(C)(C)C)=NN3C3=CC=C4N=CC=CC4=C3)C(F)=C2)=CC=N1

>  <Kd (nM)>


>  <Assay (Kd)>


>  <Ki (nM)>


>  <Assay (Ki)>


>  <IC50 (nM)>


>  <Assay (IC50)>


>  <EC50 (nM)>


>  <Assay (EC50)>


>  <Article DOI>
10.1016/j.cell.2020.10.038

>  <Molecular Weight>
553.598

>  <Exact Mass>
553.223765976

>  <XLogP3>
4.93

>  <Heavy Atom Count>
41

>  <Ring Count>
5

>  <Hydrogen Bond Acceptor Count>
7

>  <Hydrogen Bond Donor Count>
3

>  <Rotatable Bond Count>
6

>  <Topological Polar Surface Area>
123.06

>  <Molecular Formula>
C30H28FN7O3

>  <InChI>
InChI=1S/C30H28FN7O3/c1-30(2,3)26-17-27(38(37-26)19-7-9-23-18(14-19)6-5-12-33-23)36-29(40)35-24-10-8-20(15-22(24)31)41-21-11-13-34-25(16-21)28(39)32-4/h5-17H,1-4H3,(H,32,39)(H2,35,36,40)

>  <InChI Key>
WVXNSAVVKYZVOE-UHFFFAOYSA-N

>  <BindingDB>
185674

>  <PubChem>
25066467

>  <ChEMBL>
CHEMBL1738757

$$$$
Compound 710
Actelion Java MolfileCreator 2.0

  0  0  0  0  0  0              0 V3000
M  V30 BEGIN CTAB
M  V30 COUNTS 41 45 0 0 0
M  V30 BEGIN ATOM
M  V30 1 F 0.0 0.0 0.0 0
M  V30 2 C -0.6001 -1.3651 0.0 0
M  V30 3 C 0.2824 -2.5537 0.0 0
M  V30 4 C -2.1065 -1.5298 0.0 0
M  V30 5 N 1.7652 -2.3654 0.0 0
M  V30 6 C -0.3177 -3.9188 0.0 0
M  V30 7 C -2.7066 -2.8949 0.0 0
M  V30 8 C 2.3418 -0.9767 0.0 0
M  V30 9 C -1.824 -4.0835 0.0 0
M  V30 10 O -4.213 -3.0597 0.0 0
M  V30 11 O 1.4357 0.2353 0.0 0
M  V30 12 N 3.8246 -0.7884 0.0 0
M  V30 13 C -5.1191 -1.8476 0.0 0
M  V30 14 C 4.4013 0.6001 0.0 0
M  V30 15 C -4.5425 -0.4589 0.0 0
M  V30 16 C -6.6255 -2.0123 0.0 0
M  V30 17 N 5.8488 0.9414 0.0 0
M  V30 18 C 3.6246 1.9064 0.0 0
M  V30 19 C -5.4486 0.7531 0.0 0
M  V30 20 C -7.5316 -0.8002 0.0 0
M  V30 21 N 5.9782 2.4477 0.0 0
M  V30 22 C 6.9667 -0.0353 0.0 0
M  V30 23 C 4.6013 3.0479 0.0 0
M  V30 24 N -6.955 0.5884 0.0 0
M  V30 25 C -4.872 2.1418 0.0 0
M  V30 26 C 8.3789 0.4589 0.0 0
M  V30 27 C 6.6608 -1.4945 0.0 0
M  V30 28 C 4.26 4.5189 0.0 0
M  V30 29 O -5.7781 3.3539 0.0 0
M  V30 30 N -3.3892 2.3301 0.0 0
M  V30 31 C 9.4969 -0.5178 0.0 0
M  V30 32 C 7.7787 -2.4713 0.0 0
M  V30 33 C 5.7075 4.8602 0.0 0
M  V30 34 C 2.789 4.2012 0.0 0
M  V30 35 C 3.9188 5.99 0.0 0
M  V30 36 C -2.8126 3.7187 0.0 0
M  V30 37 C 9.1909 -1.977 0.0 0
M  V30 38 C 10.9091 -0.0235 0.0 0
M  V30 39 N 10.3089 -2.9538 0.0 0
M  V30 40 C 12.0271 -1.0002 0.0 0
M  V30 41 C 11.7211 -2.4595 0.0 0
M  V30 END ATOM
M  V30 BEGIN BOND
M  V30 1 1 1 2
M  V30 2 2 2 3
M  V30 3 1 2 4
M  V30 4 1 3 5
M  V30 5 1 3 6
M  V30 6 2 4 7
M  V30 7 1 5 8
M  V30 8 2 6 9
M  V30 9 1 7 10
M  V30 10 2 8 11
M  V30 11 1 8 12
M  V30 12 1 10 13
M  V30 13 1 12 14
M  V30 14 2 13 15
M  V30 15 1 13 16
M  V30 16 1 14 17
M  V30 17 2 14 18
M  V30 18 1 15 19
M  V30 19 2 16 20
M  V30 20 1 17 21
M  V30 21 1 17 22
M  V30 22 1 18 23
M  V30 23 2 19 24
M  V30 24 1 19 25
M  V30 25 2 22 26
M  V30 26 1 22 27
M  V30 27 1 23 28
M  V30 28 2 25 29
M  V30 29 1 25 30
M  V30 30 1 26 31
M  V30 31 2 27 32
M  V30 32 1 28 33
M  V30 33 1 28 34
M  V30 34 1 28 35
M  V30 35 1 30 36
M  V30 36 1 31 37
M  V30 37 2 31 38
M  V30 38 2 37 39
M  V30 39 1 38 40
M  V30 40 1 39 41
M  V30 41 1 7 9
M  V30 42 1 20 24
M  V30 43 2 21 23
M  V30 44 1 32 37
M  V30 45 2 40 41
M  V30 END BOND
M  V30 END CTAB
M  END
>  <Compound ID>
216

>  <Name>
Rebastinib

>  <Uniprot>
Q00535

>  <Target>
CDK5

>  <Smiles>
CNC(=O)C1=CC(OC2=CC=C(NC(=O)NC3=CC(C(C)(C)C)=NN3C3=CC=C4N=CC=CC4=C3)C(F)=C2)=CC=N1

>  <Kd (nM)>


>  <Assay (Kd)>


>  <Ki (nM)>


>  <Assay (Ki)>


>  <IC50 (nM)>


>  <Assay (IC50)>


>  <EC50 (nM)>


>  <Assay (EC50)>


>  <Article DOI>
10.1016/j.cell.2020.10.038

>  <Molecular Weight>
553.598

>  <Exact Mass>
553.223765976

>  <XLogP3>
4.93

>  <Heavy Atom Count>
41

>  <Ring Count>
5

>  <Hydrogen Bond Acceptor Count>
7

>  <Hydrogen Bond Donor Count>
3

>  <Rotatable Bond Count>
6

>  <Topological Polar Surface Area>
123.06

>  <Molecular Formula>
C30H28FN7O3

>  <InChI>
InChI=1S/C30H28FN7O3/c1-30(2,3)26-17-27(38(37-26)19-7-9-23-18(14-19)6-5-12-33-23)36-29(40)35-24-10-8-20(15-22(24)31)41-21-11-13-34-25(16-21)28(39)32-4/h5-17H,1-4H3,(H,32,39)(H2,35,36,40)

>  <InChI Key>
WVXNSAVVKYZVOE-UHFFFAOYSA-N

>  <BindingDB>
185674

>  <PubChem>
25066467

>  <ChEMBL>
CHEMBL1738757

$$$$
Compound 711
Actelion Java MolfileCreator 2.0

  0  0  0  0  0  0              0 V3000
M  V30 BEGIN CTAB
M  V30 COUNTS 41 45 0 0 0
M  V30 BEGIN ATOM
M  V30 1 F 0.0 0.0 0.0 0
M  V30 2 C -0.6001 -1.3651 0.0 0
M  V30 3 C 0.2824 -2.5537 0.0 0
M  V30 4 C -2.1065 -1.5298 0.0 0
M  V30 5 N 1.7652 -2.3654 0.0 0
M  V30 6 C -0.3177 -3.9188 0.0 0
M  V30 7 C -2.7066 -2.8949 0.0 0
M  V30 8 C 2.3418 -0.9767 0.0 0
M  V30 9 C -1.824 -4.0835 0.0 0
M  V30 10 O -4.213 -3.0597 0.0 0
M  V30 11 O 1.4357 0.2353 0.0 0
M  V30 12 N 3.8246 -0.7884 0.0 0
M  V30 13 C -5.1191 -1.8476 0.0 0
M  V30 14 C 4.4013 0.6001 0.0 0
M  V30 15 C -4.5425 -0.4589 0.0 0
M  V30 16 C -6.6255 -2.0123 0.0 0
M  V30 17 N 5.8488 0.9414 0.0 0
M  V30 18 C 3.6246 1.9064 0.0 0
M  V30 19 C -5.4486 0.7531 0.0 0
M  V30 20 C -7.5316 -0.8002 0.0 0
M  V30 21 N 5.9782 2.4477 0.0 0
M  V30 22 C 6.9667 -0.0353 0.0 0
M  V30 23 C 4.6013 3.0479 0.0 0
M  V30 24 N -6.955 0.5884 0.0 0
M  V30 25 C -4.872 2.1418 0.0 0
M  V30 26 C 8.3789 0.4589 0.0 0
M  V30 27 C 6.6608 -1.4945 0.0 0
M  V30 28 C 4.26 4.5189 0.0 0
M  V30 29 O -5.7781 3.3539 0.0 0
M  V30 30 N -3.3892 2.3301 0.0 0
M  V30 31 C 9.4969 -0.5178 0.0 0
M  V30 32 C 7.7787 -2.4713 0.0 0
M  V30 33 C 5.7075 4.8602 0.0 0
M  V30 34 C 2.789 4.2012 0.0 0
M  V30 35 C 3.9188 5.99 0.0 0
M  V30 36 C -2.8126 3.7187 0.0 0
M  V30 37 C 9.1909 -1.977 0.0 0
M  V30 38 C 10.9091 -0.0235 0.0 0
M  V30 39 N 10.3089 -2.9538 0.0 0
M  V30 40 C 12.0271 -1.0002 0.0 0
M  V30 41 C 11.7211 -2.4595 0.0 0
M  V30 END ATOM
M  V30 BEGIN BOND
M  V30 1 1 1 2
M  V30 2 2 2 3
M  V30 3 1 2 4
M  V30 4 1 3 5
M  V30 5 1 3 6
M  V30 6 2 4 7
M  V30 7 1 5 8
M  V30 8 2 6 9
M  V30 9 1 7 10
M  V30 10 2 8 11
M  V30 11 1 8 12
M  V30 12 1 10 13
M  V30 13 1 12 14
M  V30 14 2 13 15
M  V30 15 1 13 16
M  V30 16 1 14 17
M  V30 17 2 14 18
M  V30 18 1 15 19
M  V30 19 2 16 20
M  V30 20 1 17 21
M  V30 21 1 17 22
M  V30 22 1 18 23
M  V30 23 2 19 24
M  V30 24 1 19 25
M  V30 25 2 22 26
M  V30 26 1 22 27
M  V30 27 1 23 28
M  V30 28 2 25 29
M  V30 29 1 25 30
M  V30 30 1 26 31
M  V30 31 2 27 32
M  V30 32 1 28 33
M  V30 33 1 28 34
M  V30 34 1 28 35
M  V30 35 1 30 36
M  V30 36 1 31 37
M  V30 37 2 31 38
M  V30 38 2 37 39
M  V30 39 1 38 40
M  V30 40 1 39 41
M  V30 41 1 7 9
M  V30 42 1 20 24
M  V30 43 2 21 23
M  V30 44 1 32 37
M  V30 45 2 40 41
M  V30 END BOND
M  V30 END CTAB
M  END
>  <Compound ID>
216

>  <Name>
Rebastinib

>  <Uniprot>
Q00534

>  <Target>
CDK6

>  <Smiles>
CNC(=O)C1=CC(OC2=CC=C(NC(=O)NC3=CC(C(C)(C)C)=NN3C3=CC=C4N=CC=CC4=C3)C(F)=C2)=CC=N1

>  <Kd (nM)>


>  <Assay (Kd)>


>  <Ki (nM)>


>  <Assay (Ki)>


>  <IC50 (nM)>


>  <Assay (IC50)>


>  <EC50 (nM)>


>  <Assay (EC50)>


>  <Article DOI>
10.1016/j.cell.2020.10.038

>  <Molecular Weight>
553.598

>  <Exact Mass>
553.223765976

>  <XLogP3>
4.93

>  <Heavy Atom Count>
41

>  <Ring Count>
5

>  <Hydrogen Bond Acceptor Count>
7

>  <Hydrogen Bond Donor Count>
3

>  <Rotatable Bond Count>
6

>  <Topological Polar Surface Area>
123.06

>  <Molecular Formula>
C30H28FN7O3

>  <InChI>
InChI=1S/C30H28FN7O3/c1-30(2,3)26-17-27(38(37-26)19-7-9-23-18(14-19)6-5-12-33-23)36-29(40)35-24-10-8-20(15-22(24)31)41-21-11-13-34-25(16-21)28(39)32-4/h5-17H,1-4H3,(H,32,39)(H2,35,36,40)

>  <InChI Key>
WVXNSAVVKYZVOE-UHFFFAOYSA-N

>  <BindingDB>
185674

>  <PubChem>
25066467

>  <ChEMBL>
CHEMBL1738757

$$$$
Compound 712
Actelion Java MolfileCreator 2.0

  0  0  0  0  0  0              0 V3000
M  V30 BEGIN CTAB
M  V30 COUNTS 41 45 0 0 0
M  V30 BEGIN ATOM
M  V30 1 F 0.0 0.0 0.0 0
M  V30 2 C -0.6001 -1.3651 0.0 0
M  V30 3 C 0.2824 -2.5537 0.0 0
M  V30 4 C -2.1065 -1.5298 0.0 0
M  V30 5 N 1.7652 -2.3654 0.0 0
M  V30 6 C -0.3177 -3.9188 0.0 0
M  V30 7 C -2.7066 -2.8949 0.0 0
M  V30 8 C 2.3418 -0.9767 0.0 0
M  V30 9 C -1.824 -4.0835 0.0 0
M  V30 10 O -4.213 -3.0597 0.0 0
M  V30 11 O 1.4357 0.2353 0.0 0
M  V30 12 N 3.8246 -0.7884 0.0 0
M  V30 13 C -5.1191 -1.8476 0.0 0
M  V30 14 C 4.4013 0.6001 0.0 0
M  V30 15 C -4.5425 -0.4589 0.0 0
M  V30 16 C -6.6255 -2.0123 0.0 0
M  V30 17 N 5.8488 0.9414 0.0 0
M  V30 18 C 3.6246 1.9064 0.0 0
M  V30 19 C -5.4486 0.7531 0.0 0
M  V30 20 C -7.5316 -0.8002 0.0 0
M  V30 21 N 5.9782 2.4477 0.0 0
M  V30 22 C 6.9667 -0.0353 0.0 0
M  V30 23 C 4.6013 3.0479 0.0 0
M  V30 24 N -6.955 0.5884 0.0 0
M  V30 25 C -4.872 2.1418 0.0 0
M  V30 26 C 8.3789 0.4589 0.0 0
M  V30 27 C 6.6608 -1.4945 0.0 0
M  V30 28 C 4.26 4.5189 0.0 0
M  V30 29 O -5.7781 3.3539 0.0 0
M  V30 30 N -3.3892 2.3301 0.0 0
M  V30 31 C 9.4969 -0.5178 0.0 0
M  V30 32 C 7.7787 -2.4713 0.0 0
M  V30 33 C 5.7075 4.8602 0.0 0
M  V30 34 C 2.789 4.2012 0.0 0
M  V30 35 C 3.9188 5.99 0.0 0
M  V30 36 C -2.8126 3.7187 0.0 0
M  V30 37 C 9.1909 -1.977 0.0 0
M  V30 38 C 10.9091 -0.0235 0.0 0
M  V30 39 N 10.3089 -2.9538 0.0 0
M  V30 40 C 12.0271 -1.0002 0.0 0
M  V30 41 C 11.7211 -2.4595 0.0 0
M  V30 END ATOM
M  V30 BEGIN BOND
M  V30 1 1 1 2
M  V30 2 2 2 3
M  V30 3 1 2 4
M  V30 4 1 3 5
M  V30 5 1 3 6
M  V30 6 2 4 7
M  V30 7 1 5 8
M  V30 8 2 6 9
M  V30 9 1 7 10
M  V30 10 2 8 11
M  V30 11 1 8 12
M  V30 12 1 10 13
M  V30 13 1 12 14
M  V30 14 2 13 15
M  V30 15 1 13 16
M  V30 16 1 14 17
M  V30 17 2 14 18
M  V30 18 1 15 19
M  V30 19 2 16 20
M  V30 20 1 17 21
M  V30 21 1 17 22
M  V30 22 1 18 23
M  V30 23 2 19 24
M  V30 24 1 19 25
M  V30 25 2 22 26
M  V30 26 1 22 27
M  V30 27 1 23 28
M  V30 28 2 25 29
M  V30 29 1 25 30
M  V30 30 1 26 31
M  V30 31 2 27 32
M  V30 32 1 28 33
M  V30 33 1 28 34
M  V30 34 1 28 35
M  V30 35 1 30 36
M  V30 36 1 31 37
M  V30 37 2 31 38
M  V30 38 2 37 39
M  V30 39 1 38 40
M  V30 40 1 39 41
M  V30 41 1 7 9
M  V30 42 1 20 24
M  V30 43 2 21 23
M  V30 44 1 32 37
M  V30 45 2 40 41
M  V30 END BOND
M  V30 END CTAB
M  END
>  <Compound ID>
216

>  <Name>
Rebastinib

>  <Uniprot>
P50613

>  <Target>
CDK7

>  <Smiles>
CNC(=O)C1=CC(OC2=CC=C(NC(=O)NC3=CC(C(C)(C)C)=NN3C3=CC=C4N=CC=CC4=C3)C(F)=C2)=CC=N1

>  <Kd (nM)>


>  <Assay (Kd)>


>  <Ki (nM)>


>  <Assay (Ki)>


>  <IC50 (nM)>


>  <Assay (IC50)>


>  <EC50 (nM)>


>  <Assay (EC50)>


>  <Article DOI>
10.1016/j.cell.2020.10.038

>  <Molecular Weight>
553.598

>  <Exact Mass>
553.223765976

>  <XLogP3>
4.93

>  <Heavy Atom Count>
41

>  <Ring Count>
5

>  <Hydrogen Bond Acceptor Count>
7

>  <Hydrogen Bond Donor Count>
3

>  <Rotatable Bond Count>
6

>  <Topological Polar Surface Area>
123.06

>  <Molecular Formula>
C30H28FN7O3

>  <InChI>
InChI=1S/C30H28FN7O3/c1-30(2,3)26-17-27(38(37-26)19-7-9-23-18(14-19)6-5-12-33-23)36-29(40)35-24-10-8-20(15-22(24)31)41-21-11-13-34-25(16-21)28(39)32-4/h5-17H,1-4H3,(H,32,39)(H2,35,36,40)

>  <InChI Key>
WVXNSAVVKYZVOE-UHFFFAOYSA-N

>  <BindingDB>
185674

>  <PubChem>
25066467

>  <ChEMBL>
CHEMBL1738757

$$$$
Compound 713
Actelion Java MolfileCreator 2.0

  0  0  0  0  0  0              0 V3000
M  V30 BEGIN CTAB
M  V30 COUNTS 41 45 0 0 0
M  V30 BEGIN ATOM
M  V30 1 F 0.0 0.0 0.0 0
M  V30 2 C -0.6001 -1.3651 0.0 0
M  V30 3 C 0.2824 -2.5537 0.0 0
M  V30 4 C -2.1065 -1.5298 0.0 0
M  V30 5 N 1.7652 -2.3654 0.0 0
M  V30 6 C -0.3177 -3.9188 0.0 0
M  V30 7 C -2.7066 -2.8949 0.0 0
M  V30 8 C 2.3418 -0.9767 0.0 0
M  V30 9 C -1.824 -4.0835 0.0 0
M  V30 10 O -4.213 -3.0597 0.0 0
M  V30 11 O 1.4357 0.2353 0.0 0
M  V30 12 N 3.8246 -0.7884 0.0 0
M  V30 13 C -5.1191 -1.8476 0.0 0
M  V30 14 C 4.4013 0.6001 0.0 0
M  V30 15 C -4.5425 -0.4589 0.0 0
M  V30 16 C -6.6255 -2.0123 0.0 0
M  V30 17 N 5.8488 0.9414 0.0 0
M  V30 18 C 3.6246 1.9064 0.0 0
M  V30 19 C -5.4486 0.7531 0.0 0
M  V30 20 C -7.5316 -0.8002 0.0 0
M  V30 21 N 5.9782 2.4477 0.0 0
M  V30 22 C 6.9667 -0.0353 0.0 0
M  V30 23 C 4.6013 3.0479 0.0 0
M  V30 24 N -6.955 0.5884 0.0 0
M  V30 25 C -4.872 2.1418 0.0 0
M  V30 26 C 8.3789 0.4589 0.0 0
M  V30 27 C 6.6608 -1.4945 0.0 0
M  V30 28 C 4.26 4.5189 0.0 0
M  V30 29 O -5.7781 3.3539 0.0 0
M  V30 30 N -3.3892 2.3301 0.0 0
M  V30 31 C 9.4969 -0.5178 0.0 0
M  V30 32 C 7.7787 -2.4713 0.0 0
M  V30 33 C 5.7075 4.8602 0.0 0
M  V30 34 C 2.789 4.2012 0.0 0
M  V30 35 C 3.9188 5.99 0.0 0
M  V30 36 C -2.8126 3.7187 0.0 0
M  V30 37 C 9.1909 -1.977 0.0 0
M  V30 38 C 10.9091 -0.0235 0.0 0
M  V30 39 N 10.3089 -2.9538 0.0 0
M  V30 40 C 12.0271 -1.0002 0.0 0
M  V30 41 C 11.7211 -2.4595 0.0 0
M  V30 END ATOM
M  V30 BEGIN BOND
M  V30 1 1 1 2
M  V30 2 2 2 3
M  V30 3 1 2 4
M  V30 4 1 3 5
M  V30 5 1 3 6
M  V30 6 2 4 7
M  V30 7 1 5 8
M  V30 8 2 6 9
M  V30 9 1 7 10
M  V30 10 2 8 11
M  V30 11 1 8 12
M  V30 12 1 10 13
M  V30 13 1 12 14
M  V30 14 2 13 15
M  V30 15 1 13 16
M  V30 16 1 14 17
M  V30 17 2 14 18
M  V30 18 1 15 19
M  V30 19 2 16 20
M  V30 20 1 17 21
M  V30 21 1 17 22
M  V30 22 1 18 23
M  V30 23 2 19 24
M  V30 24 1 19 25
M  V30 25 2 22 26
M  V30 26 1 22 27
M  V30 27 1 23 28
M  V30 28 2 25 29
M  V30 29 1 25 30
M  V30 30 1 26 31
M  V30 31 2 27 32
M  V30 32 1 28 33
M  V30 33 1 28 34
M  V30 34 1 28 35
M  V30 35 1 30 36
M  V30 36 1 31 37
M  V30 37 2 31 38
M  V30 38 2 37 39
M  V30 39 1 38 40
M  V30 40 1 39 41
M  V30 41 1 7 9
M  V30 42 1 20 24
M  V30 43 2 21 23
M  V30 44 1 32 37
M  V30 45 2 40 41
M  V30 END BOND
M  V30 END CTAB
M  END
>  <Compound ID>
216

>  <Name>
Rebastinib

>  <Uniprot>
P50750

>  <Target>
CDK9

>  <Smiles>
CNC(=O)C1=CC(OC2=CC=C(NC(=O)NC3=CC(C(C)(C)C)=NN3C3=CC=C4N=CC=CC4=C3)C(F)=C2)=CC=N1

>  <Kd (nM)>


>  <Assay (Kd)>


>  <Ki (nM)>


>  <Assay (Ki)>


>  <IC50 (nM)>


>  <Assay (IC50)>


>  <EC50 (nM)>


>  <Assay (EC50)>


>  <Article DOI>
10.1016/j.cell.2020.10.038

>  <Molecular Weight>
553.598

>  <Exact Mass>
553.223765976

>  <XLogP3>
4.93

>  <Heavy Atom Count>
41

>  <Ring Count>
5

>  <Hydrogen Bond Acceptor Count>
7

>  <Hydrogen Bond Donor Count>
3

>  <Rotatable Bond Count>
6

>  <Topological Polar Surface Area>
123.06

>  <Molecular Formula>
C30H28FN7O3

>  <InChI>
InChI=1S/C30H28FN7O3/c1-30(2,3)26-17-27(38(37-26)19-7-9-23-18(14-19)6-5-12-33-23)36-29(40)35-24-10-8-20(15-22(24)31)41-21-11-13-34-25(16-21)28(39)32-4/h5-17H,1-4H3,(H,32,39)(H2,35,36,40)

>  <InChI Key>
WVXNSAVVKYZVOE-UHFFFAOYSA-N

>  <BindingDB>
185674

>  <PubChem>
25066467

>  <ChEMBL>
CHEMBL1738757

$$$$
Compound 714
Actelion Java MolfileCreator 2.0

  0  0  0  0  0  0              0 V3000
M  V30 BEGIN CTAB
M  V30 COUNTS 41 45 0 0 0
M  V30 BEGIN ATOM
M  V30 1 F 0.0 0.0 0.0 0
M  V30 2 C -0.6001 -1.3651 0.0 0
M  V30 3 C 0.2824 -2.5537 0.0 0
M  V30 4 C -2.1065 -1.5298 0.0 0
M  V30 5 N 1.7652 -2.3654 0.0 0
M  V30 6 C -0.3177 -3.9188 0.0 0
M  V30 7 C -2.7066 -2.8949 0.0 0
M  V30 8 C 2.3418 -0.9767 0.0 0
M  V30 9 C -1.824 -4.0835 0.0 0
M  V30 10 O -4.213 -3.0597 0.0 0
M  V30 11 O 1.4357 0.2353 0.0 0
M  V30 12 N 3.8246 -0.7884 0.0 0
M  V30 13 C -5.1191 -1.8476 0.0 0
M  V30 14 C 4.4013 0.6001 0.0 0
M  V30 15 C -4.5425 -0.4589 0.0 0
M  V30 16 C -6.6255 -2.0123 0.0 0
M  V30 17 N 5.8488 0.9414 0.0 0
M  V30 18 C 3.6246 1.9064 0.0 0
M  V30 19 C -5.4486 0.7531 0.0 0
M  V30 20 C -7.5316 -0.8002 0.0 0
M  V30 21 N 5.9782 2.4477 0.0 0
M  V30 22 C 6.9667 -0.0353 0.0 0
M  V30 23 C 4.6013 3.0479 0.0 0
M  V30 24 N -6.955 0.5884 0.0 0
M  V30 25 C -4.872 2.1418 0.0 0
M  V30 26 C 8.3789 0.4589 0.0 0
M  V30 27 C 6.6608 -1.4945 0.0 0
M  V30 28 C 4.26 4.5189 0.0 0
M  V30 29 O -5.7781 3.3539 0.0 0
M  V30 30 N -3.3892 2.3301 0.0 0
M  V30 31 C 9.4969 -0.5178 0.0 0
M  V30 32 C 7.7787 -2.4713 0.0 0
M  V30 33 C 5.7075 4.8602 0.0 0
M  V30 34 C 2.789 4.2012 0.0 0
M  V30 35 C 3.9188 5.99 0.0 0
M  V30 36 C -2.8126 3.7187 0.0 0
M  V30 37 C 9.1909 -1.977 0.0 0
M  V30 38 C 10.9091 -0.0235 0.0 0
M  V30 39 N 10.3089 -2.9538 0.0 0
M  V30 40 C 12.0271 -1.0002 0.0 0
M  V30 41 C 11.7211 -2.4595 0.0 0
M  V30 END ATOM
M  V30 BEGIN BOND
M  V30 1 1 1 2
M  V30 2 2 2 3
M  V30 3 1 2 4
M  V30 4 1 3 5
M  V30 5 1 3 6
M  V30 6 2 4 7
M  V30 7 1 5 8
M  V30 8 2 6 9
M  V30 9 1 7 10
M  V30 10 2 8 11
M  V30 11 1 8 12
M  V30 12 1 10 13
M  V30 13 1 12 14
M  V30 14 2 13 15
M  V30 15 1 13 16
M  V30 16 1 14 17
M  V30 17 2 14 18
M  V30 18 1 15 19
M  V30 19 2 16 20
M  V30 20 1 17 21
M  V30 21 1 17 22
M  V30 22 1 18 23
M  V30 23 2 19 24
M  V30 24 1 19 25
M  V30 25 2 22 26
M  V30 26 1 22 27
M  V30 27 1 23 28
M  V30 28 2 25 29
M  V30 29 1 25 30
M  V30 30 1 26 31
M  V30 31 2 27 32
M  V30 32 1 28 33
M  V30 33 1 28 34
M  V30 34 1 28 35
M  V30 35 1 30 36
M  V30 36 1 31 37
M  V30 37 2 31 38
M  V30 38 2 37 39
M  V30 39 1 38 40
M  V30 40 1 39 41
M  V30 41 1 7 9
M  V30 42 1 20 24
M  V30 43 2 21 23
M  V30 44 1 32 37
M  V30 45 2 40 41
M  V30 END BOND
M  V30 END CTAB
M  END
>  <Compound ID>
216

>  <Name>
Rebastinib

>  <Uniprot>
P16591

>  <Target>
FER

>  <Smiles>
CNC(=O)C1=CC(OC2=CC=C(NC(=O)NC3=CC(C(C)(C)C)=NN3C3=CC=C4N=CC=CC4=C3)C(F)=C2)=CC=N1

>  <Kd (nM)>
1223

>  <Assay (Kd)>
Kd apparent of FER

>  <Ki (nM)>


>  <Assay (Ki)>


>  <IC50 (nM)>


>  <Assay (IC50)>


>  <EC50 (nM)>


>  <Assay (EC50)>


>  <Article DOI>
10.1126/science.aan4368

>  <Molecular Weight>
553.598

>  <Exact Mass>
553.223765976

>  <XLogP3>
4.93

>  <Heavy Atom Count>
41

>  <Ring Count>
5

>  <Hydrogen Bond Acceptor Count>
7

>  <Hydrogen Bond Donor Count>
3

>  <Rotatable Bond Count>
6

>  <Topological Polar Surface Area>
123.06

>  <Molecular Formula>
C30H28FN7O3

>  <InChI>
InChI=1S/C30H28FN7O3/c1-30(2,3)26-17-27(38(37-26)19-7-9-23-18(14-19)6-5-12-33-23)36-29(40)35-24-10-8-20(15-22(24)31)41-21-11-13-34-25(16-21)28(39)32-4/h5-17H,1-4H3,(H,32,39)(H2,35,36,40)

>  <InChI Key>
WVXNSAVVKYZVOE-UHFFFAOYSA-N

>  <BindingDB>
185674

>  <PubChem>
25066467

>  <ChEMBL>
CHEMBL1738757

$$$$
Compound 715
Actelion Java MolfileCreator 2.0

  0  0  0  0  0  0              0 V3000
M  V30 BEGIN CTAB
M  V30 COUNTS 41 45 0 0 0
M  V30 BEGIN ATOM
M  V30 1 F 0.0 0.0 0.0 0
M  V30 2 C -0.6001 -1.3651 0.0 0
M  V30 3 C 0.2824 -2.5537 0.0 0
M  V30 4 C -2.1065 -1.5298 0.0 0
M  V30 5 N 1.7652 -2.3654 0.0 0
M  V30 6 C -0.3177 -3.9188 0.0 0
M  V30 7 C -2.7066 -2.8949 0.0 0
M  V30 8 C 2.3418 -0.9767 0.0 0
M  V30 9 C -1.824 -4.0835 0.0 0
M  V30 10 O -4.213 -3.0597 0.0 0
M  V30 11 O 1.4357 0.2353 0.0 0
M  V30 12 N 3.8246 -0.7884 0.0 0
M  V30 13 C -5.1191 -1.8476 0.0 0
M  V30 14 C 4.4013 0.6001 0.0 0
M  V30 15 C -4.5425 -0.4589 0.0 0
M  V30 16 C -6.6255 -2.0123 0.0 0
M  V30 17 N 5.8488 0.9414 0.0 0
M  V30 18 C 3.6246 1.9064 0.0 0
M  V30 19 C -5.4486 0.7531 0.0 0
M  V30 20 C -7.5316 -0.8002 0.0 0
M  V30 21 N 5.9782 2.4477 0.0 0
M  V30 22 C 6.9667 -0.0353 0.0 0
M  V30 23 C 4.6013 3.0479 0.0 0
M  V30 24 N -6.955 0.5884 0.0 0
M  V30 25 C -4.872 2.1418 0.0 0
M  V30 26 C 8.3789 0.4589 0.0 0
M  V30 27 C 6.6608 -1.4945 0.0 0
M  V30 28 C 4.26 4.5189 0.0 0
M  V30 29 O -5.7781 3.3539 0.0 0
M  V30 30 N -3.3892 2.3301 0.0 0
M  V30 31 C 9.4969 -0.5178 0.0 0
M  V30 32 C 7.7787 -2.4713 0.0 0
M  V30 33 C 5.7075 4.8602 0.0 0
M  V30 34 C 2.789 4.2012 0.0 0
M  V30 35 C 3.9188 5.99 0.0 0
M  V30 36 C -2.8126 3.7187 0.0 0
M  V30 37 C 9.1909 -1.977 0.0 0
M  V30 38 C 10.9091 -0.0235 0.0 0
M  V30 39 N 10.3089 -2.9538 0.0 0
M  V30 40 C 12.0271 -1.0002 0.0 0
M  V30 41 C 11.7211 -2.4595 0.0 0
M  V30 END ATOM
M  V30 BEGIN BOND
M  V30 1 1 1 2
M  V30 2 2 2 3
M  V30 3 1 2 4
M  V30 4 1 3 5
M  V30 5 1 3 6
M  V30 6 2 4 7
M  V30 7 1 5 8
M  V30 8 2 6 9
M  V30 9 1 7 10
M  V30 10 2 8 11
M  V30 11 1 8 12
M  V30 12 1 10 13
M  V30 13 1 12 14
M  V30 14 2 13 15
M  V30 15 1 13 16
M  V30 16 1 14 17
M  V30 17 2 14 18
M  V30 18 1 15 19
M  V30 19 2 16 20
M  V30 20 1 17 21
M  V30 21 1 17 22
M  V30 22 1 18 23
M  V30 23 2 19 24
M  V30 24 1 19 25
M  V30 25 2 22 26
M  V30 26 1 22 27
M  V30 27 1 23 28
M  V30 28 2 25 29
M  V30 29 1 25 30
M  V30 30 1 26 31
M  V30 31 2 27 32
M  V30 32 1 28 33
M  V30 33 1 28 34
M  V30 34 1 28 35
M  V30 35 1 30 36
M  V30 36 1 31 37
M  V30 37 2 31 38
M  V30 38 2 37 39
M  V30 39 1 38 40
M  V30 40 1 39 41
M  V30 41 1 7 9
M  V30 42 1 20 24
M  V30 43 2 21 23
M  V30 44 1 32 37
M  V30 45 2 40 41
M  V30 END BOND
M  V30 END CTAB
M  END
>  <Compound ID>
216

>  <Name>
Rebastinib

>  <Uniprot>
Q08881

>  <Target>
ITK

>  <Smiles>
CNC(=O)C1=CC(OC2=CC=C(NC(=O)NC3=CC(C(C)(C)C)=NN3C3=CC=C4N=CC=CC4=C3)C(F)=C2)=CC=N1

>  <Kd (nM)>


>  <Assay (Kd)>


>  <Ki (nM)>


>  <Assay (Ki)>


>  <IC50 (nM)>


>  <Assay (IC50)>


>  <EC50 (nM)>


>  <Assay (EC50)>


>  <Article DOI>
10.1016/j.cell.2020.10.038

>  <Molecular Weight>
553.598

>  <Exact Mass>
553.223765976

>  <XLogP3>
4.93

>  <Heavy Atom Count>
41

>  <Ring Count>
5

>  <Hydrogen Bond Acceptor Count>
7

>  <Hydrogen Bond Donor Count>
3

>  <Rotatable Bond Count>
6

>  <Topological Polar Surface Area>
123.06

>  <Molecular Formula>
C30H28FN7O3

>  <InChI>
InChI=1S/C30H28FN7O3/c1-30(2,3)26-17-27(38(37-26)19-7-9-23-18(14-19)6-5-12-33-23)36-29(40)35-24-10-8-20(15-22(24)31)41-21-11-13-34-25(16-21)28(39)32-4/h5-17H,1-4H3,(H,32,39)(H2,35,36,40)

>  <InChI Key>
WVXNSAVVKYZVOE-UHFFFAOYSA-N

>  <BindingDB>
185674

>  <PubChem>
25066467

>  <ChEMBL>
CHEMBL1738757

$$$$
Compound 716
Actelion Java MolfileCreator 2.0

  0  0  0  0  0  0              0 V3000
M  V30 BEGIN CTAB
M  V30 COUNTS 41 45 0 0 0
M  V30 BEGIN ATOM
M  V30 1 F 0.0 0.0 0.0 0
M  V30 2 C -0.6001 -1.3651 0.0 0
M  V30 3 C 0.2824 -2.5537 0.0 0
M  V30 4 C -2.1065 -1.5298 0.0 0
M  V30 5 N 1.7652 -2.3654 0.0 0
M  V30 6 C -0.3177 -3.9188 0.0 0
M  V30 7 C -2.7066 -2.8949 0.0 0
M  V30 8 C 2.3418 -0.9767 0.0 0
M  V30 9 C -1.824 -4.0835 0.0 0
M  V30 10 O -4.213 -3.0597 0.0 0
M  V30 11 O 1.4357 0.2353 0.0 0
M  V30 12 N 3.8246 -0.7884 0.0 0
M  V30 13 C -5.1191 -1.8476 0.0 0
M  V30 14 C 4.4013 0.6001 0.0 0
M  V30 15 C -4.5425 -0.4589 0.0 0
M  V30 16 C -6.6255 -2.0123 0.0 0
M  V30 17 N 5.8488 0.9414 0.0 0
M  V30 18 C 3.6246 1.9064 0.0 0
M  V30 19 C -5.4486 0.7531 0.0 0
M  V30 20 C -7.5316 -0.8002 0.0 0
M  V30 21 N 5.9782 2.4477 0.0 0
M  V30 22 C 6.9667 -0.0353 0.0 0
M  V30 23 C 4.6013 3.0479 0.0 0
M  V30 24 N -6.955 0.5884 0.0 0
M  V30 25 C -4.872 2.1418 0.0 0
M  V30 26 C 8.3789 0.4589 0.0 0
M  V30 27 C 6.6608 -1.4945 0.0 0
M  V30 28 C 4.26 4.5189 0.0 0
M  V30 29 O -5.7781 3.3539 0.0 0
M  V30 30 N -3.3892 2.3301 0.0 0
M  V30 31 C 9.4969 -0.5178 0.0 0
M  V30 32 C 7.7787 -2.4713 0.0 0
M  V30 33 C 5.7075 4.8602 0.0 0
M  V30 34 C 2.789 4.2012 0.0 0
M  V30 35 C 3.9188 5.99 0.0 0
M  V30 36 C -2.8126 3.7187 0.0 0
M  V30 37 C 9.1909 -1.977 0.0 0
M  V30 38 C 10.9091 -0.0235 0.0 0
M  V30 39 N 10.3089 -2.9538 0.0 0
M  V30 40 C 12.0271 -1.0002 0.0 0
M  V30 41 C 11.7211 -2.4595 0.0 0
M  V30 END ATOM
M  V30 BEGIN BOND
M  V30 1 1 1 2
M  V30 2 2 2 3
M  V30 3 1 2 4
M  V30 4 1 3 5
M  V30 5 1 3 6
M  V30 6 2 4 7
M  V30 7 1 5 8
M  V30 8 2 6 9
M  V30 9 1 7 10
M  V30 10 2 8 11
M  V30 11 1 8 12
M  V30 12 1 10 13
M  V30 13 1 12 14
M  V30 14 2 13 15
M  V30 15 1 13 16
M  V30 16 1 14 17
M  V30 17 2 14 18
M  V30 18 1 15 19
M  V30 19 2 16 20
M  V30 20 1 17 21
M  V30 21 1 17 22
M  V30 22 1 18 23
M  V30 23 2 19 24
M  V30 24 1 19 25
M  V30 25 2 22 26
M  V30 26 1 22 27
M  V30 27 1 23 28
M  V30 28 2 25 29
M  V30 29 1 25 30
M  V30 30 1 26 31
M  V30 31 2 27 32
M  V30 32 1 28 33
M  V30 33 1 28 34
M  V30 34 1 28 35
M  V30 35 1 30 36
M  V30 36 1 31 37
M  V30 37 2 31 38
M  V30 38 2 37 39
M  V30 39 1 38 40
M  V30 40 1 39 41
M  V30 41 1 7 9
M  V30 42 1 20 24
M  V30 43 2 21 23
M  V30 44 1 32 37
M  V30 45 2 40 41
M  V30 END BOND
M  V30 END CTAB
M  END
>  <Compound ID>
216

>  <Name>
Rebastinib

>  <Uniprot>
P06239

>  <Target>
LCK

>  <Smiles>
CNC(=O)C1=CC(OC2=CC=C(NC(=O)NC3=CC(C(C)(C)C)=NN3C3=CC=C4N=CC=CC4=C3)C(F)=C2)=CC=N1

>  <Kd (nM)>
180

>  <Assay (Kd)>
Kd apparent of LCK

>  <Ki (nM)>


>  <Assay (Ki)>


>  <IC50 (nM)>


>  <Assay (IC50)>


>  <EC50 (nM)>


>  <Assay (EC50)>


>  <Article DOI>
10.1126/science.aan4368

>  <Molecular Weight>
553.598

>  <Exact Mass>
553.223765976

>  <XLogP3>
4.93

>  <Heavy Atom Count>
41

>  <Ring Count>
5

>  <Hydrogen Bond Acceptor Count>
7

>  <Hydrogen Bond Donor Count>
3

>  <Rotatable Bond Count>
6

>  <Topological Polar Surface Area>
123.06

>  <Molecular Formula>
C30H28FN7O3

>  <InChI>
InChI=1S/C30H28FN7O3/c1-30(2,3)26-17-27(38(37-26)19-7-9-23-18(14-19)6-5-12-33-23)36-29(40)35-24-10-8-20(15-22(24)31)41-21-11-13-34-25(16-21)28(39)32-4/h5-17H,1-4H3,(H,32,39)(H2,35,36,40)

>  <InChI Key>
WVXNSAVVKYZVOE-UHFFFAOYSA-N

>  <BindingDB>
185674

>  <PubChem>
25066467

>  <ChEMBL>
CHEMBL1738757

$$$$
Compound 717
Actelion Java MolfileCreator 2.0

  0  0  0  0  0  0              0 V3000
M  V30 BEGIN CTAB
M  V30 COUNTS 41 45 0 0 0
M  V30 BEGIN ATOM
M  V30 1 F 0.0 0.0 0.0 0
M  V30 2 C -0.6001 -1.3651 0.0 0
M  V30 3 C 0.2824 -2.5537 0.0 0
M  V30 4 C -2.1065 -1.5298 0.0 0
M  V30 5 N 1.7652 -2.3654 0.0 0
M  V30 6 C -0.3177 -3.9188 0.0 0
M  V30 7 C -2.7066 -2.8949 0.0 0
M  V30 8 C 2.3418 -0.9767 0.0 0
M  V30 9 C -1.824 -4.0835 0.0 0
M  V30 10 O -4.213 -3.0597 0.0 0
M  V30 11 O 1.4357 0.2353 0.0 0
M  V30 12 N 3.8246 -0.7884 0.0 0
M  V30 13 C -5.1191 -1.8476 0.0 0
M  V30 14 C 4.4013 0.6001 0.0 0
M  V30 15 C -4.5425 -0.4589 0.0 0
M  V30 16 C -6.6255 -2.0123 0.0 0
M  V30 17 N 5.8488 0.9414 0.0 0
M  V30 18 C 3.6246 1.9064 0.0 0
M  V30 19 C -5.4486 0.7531 0.0 0
M  V30 20 C -7.5316 -0.8002 0.0 0
M  V30 21 N 5.9782 2.4477 0.0 0
M  V30 22 C 6.9667 -0.0353 0.0 0
M  V30 23 C 4.6013 3.0479 0.0 0
M  V30 24 N -6.955 0.5884 0.0 0
M  V30 25 C -4.872 2.1418 0.0 0
M  V30 26 C 8.3789 0.4589 0.0 0
M  V30 27 C 6.6608 -1.4945 0.0 0
M  V30 28 C 4.26 4.5189 0.0 0
M  V30 29 O -5.7781 3.3539 0.0 0
M  V30 30 N -3.3892 2.3301 0.0 0
M  V30 31 C 9.4969 -0.5178 0.0 0
M  V30 32 C 7.7787 -2.4713 0.0 0
M  V30 33 C 5.7075 4.8602 0.0 0
M  V30 34 C 2.789 4.2012 0.0 0
M  V30 35 C 3.9188 5.99 0.0 0
M  V30 36 C -2.8126 3.7187 0.0 0
M  V30 37 C 9.1909 -1.977 0.0 0
M  V30 38 C 10.9091 -0.0235 0.0 0
M  V30 39 N 10.3089 -2.9538 0.0 0
M  V30 40 C 12.0271 -1.0002 0.0 0
M  V30 41 C 11.7211 -2.4595 0.0 0
M  V30 END ATOM
M  V30 BEGIN BOND
M  V30 1 1 1 2
M  V30 2 2 2 3
M  V30 3 1 2 4
M  V30 4 1 3 5
M  V30 5 1 3 6
M  V30 6 2 4 7
M  V30 7 1 5 8
M  V30 8 2 6 9
M  V30 9 1 7 10
M  V30 10 2 8 11
M  V30 11 1 8 12
M  V30 12 1 10 13
M  V30 13 1 12 14
M  V30 14 2 13 15
M  V30 15 1 13 16
M  V30 16 1 14 17
M  V30 17 2 14 18
M  V30 18 1 15 19
M  V30 19 2 16 20
M  V30 20 1 17 21
M  V30 21 1 17 22
M  V30 22 1 18 23
M  V30 23 2 19 24
M  V30 24 1 19 25
M  V30 25 2 22 26
M  V30 26 1 22 27
M  V30 27 1 23 28
M  V30 28 2 25 29
M  V30 29 1 25 30
M  V30 30 1 26 31
M  V30 31 2 27 32
M  V30 32 1 28 33
M  V30 33 1 28 34
M  V30 34 1 28 35
M  V30 35 1 30 36
M  V30 36 1 31 37
M  V30 37 2 31 38
M  V30 38 2 37 39
M  V30 39 1 38 40
M  V30 40 1 39 41
M  V30 41 1 7 9
M  V30 42 1 20 24
M  V30 43 2 21 23
M  V30 44 1 32 37
M  V30 45 2 40 41
M  V30 END BOND
M  V30 END CTAB
M  END
>  <Compound ID>
216

>  <Name>
Rebastinib

>  <Uniprot>
P53667

>  <Target>
LIMK1

>  <Smiles>
CNC(=O)C1=CC(OC2=CC=C(NC(=O)NC3=CC(C(C)(C)C)=NN3C3=CC=C4N=CC=CC4=C3)C(F)=C2)=CC=N1

>  <Kd (nM)>


>  <Assay (Kd)>


>  <Ki (nM)>


>  <Assay (Ki)>


>  <IC50 (nM)>


>  <Assay (IC50)>


>  <EC50 (nM)>


>  <Assay (EC50)>


>  <Article DOI>
10.1016/j.cell.2020.10.038

>  <Molecular Weight>
553.598

>  <Exact Mass>
553.223765976

>  <XLogP3>
4.93

>  <Heavy Atom Count>
41

>  <Ring Count>
5

>  <Hydrogen Bond Acceptor Count>
7

>  <Hydrogen Bond Donor Count>
3

>  <Rotatable Bond Count>
6

>  <Topological Polar Surface Area>
123.06

>  <Molecular Formula>
C30H28FN7O3

>  <InChI>
InChI=1S/C30H28FN7O3/c1-30(2,3)26-17-27(38(37-26)19-7-9-23-18(14-19)6-5-12-33-23)36-29(40)35-24-10-8-20(15-22(24)31)41-21-11-13-34-25(16-21)28(39)32-4/h5-17H,1-4H3,(H,32,39)(H2,35,36,40)

>  <InChI Key>
WVXNSAVVKYZVOE-UHFFFAOYSA-N

>  <BindingDB>
185674

>  <PubChem>
25066467

>  <ChEMBL>
CHEMBL1738757

$$$$
Compound 718
Actelion Java MolfileCreator 2.0

  0  0  0  0  0  0              0 V3000
M  V30 BEGIN CTAB
M  V30 COUNTS 41 45 0 0 0
M  V30 BEGIN ATOM
M  V30 1 F 0.0 0.0 0.0 0
M  V30 2 C -0.6001 -1.3651 0.0 0
M  V30 3 C 0.2824 -2.5537 0.0 0
M  V30 4 C -2.1065 -1.5298 0.0 0
M  V30 5 N 1.7652 -2.3654 0.0 0
M  V30 6 C -0.3177 -3.9188 0.0 0
M  V30 7 C -2.7066 -2.8949 0.0 0
M  V30 8 C 2.3418 -0.9767 0.0 0
M  V30 9 C -1.824 -4.0835 0.0 0
M  V30 10 O -4.213 -3.0597 0.0 0
M  V30 11 O 1.4357 0.2353 0.0 0
M  V30 12 N 3.8246 -0.7884 0.0 0
M  V30 13 C -5.1191 -1.8476 0.0 0
M  V30 14 C 4.4013 0.6001 0.0 0
M  V30 15 C -4.5425 -0.4589 0.0 0
M  V30 16 C -6.6255 -2.0123 0.0 0
M  V30 17 N 5.8488 0.9414 0.0 0
M  V30 18 C 3.6246 1.9064 0.0 0
M  V30 19 C -5.4486 0.7531 0.0 0
M  V30 20 C -7.5316 -0.8002 0.0 0
M  V30 21 N 5.9782 2.4477 0.0 0
M  V30 22 C 6.9667 -0.0353 0.0 0
M  V30 23 C 4.6013 3.0479 0.0 0
M  V30 24 N -6.955 0.5884 0.0 0
M  V30 25 C -4.872 2.1418 0.0 0
M  V30 26 C 8.3789 0.4589 0.0 0
M  V30 27 C 6.6608 -1.4945 0.0 0
M  V30 28 C 4.26 4.5189 0.0 0
M  V30 29 O -5.7781 3.3539 0.0 0
M  V30 30 N -3.3892 2.3301 0.0 0
M  V30 31 C 9.4969 -0.5178 0.0 0
M  V30 32 C 7.7787 -2.4713 0.0 0
M  V30 33 C 5.7075 4.8602 0.0 0
M  V30 34 C 2.789 4.2012 0.0 0
M  V30 35 C 3.9188 5.99 0.0 0
M  V30 36 C -2.8126 3.7187 0.0 0
M  V30 37 C 9.1909 -1.977 0.0 0
M  V30 38 C 10.9091 -0.0235 0.0 0
M  V30 39 N 10.3089 -2.9538 0.0 0
M  V30 40 C 12.0271 -1.0002 0.0 0
M  V30 41 C 11.7211 -2.4595 0.0 0
M  V30 END ATOM
M  V30 BEGIN BOND
M  V30 1 1 1 2
M  V30 2 2 2 3
M  V30 3 1 2 4
M  V30 4 1 3 5
M  V30 5 1 3 6
M  V30 6 2 4 7
M  V30 7 1 5 8
M  V30 8 2 6 9
M  V30 9 1 7 10
M  V30 10 2 8 11
M  V30 11 1 8 12
M  V30 12 1 10 13
M  V30 13 1 12 14
M  V30 14 2 13 15
M  V30 15 1 13 16
M  V30 16 1 14 17
M  V30 17 2 14 18
M  V30 18 1 15 19
M  V30 19 2 16 20
M  V30 20 1 17 21
M  V30 21 1 17 22
M  V30 22 1 18 23
M  V30 23 2 19 24
M  V30 24 1 19 25
M  V30 25 2 22 26
M  V30 26 1 22 27
M  V30 27 1 23 28
M  V30 28 2 25 29
M  V30 29 1 25 30
M  V30 30 1 26 31
M  V30 31 2 27 32
M  V30 32 1 28 33
M  V30 33 1 28 34
M  V30 34 1 28 35
M  V30 35 1 30 36
M  V30 36 1 31 37
M  V30 37 2 31 38
M  V30 38 2 37 39
M  V30 39 1 38 40
M  V30 40 1 39 41
M  V30 41 1 7 9
M  V30 42 1 20 24
M  V30 43 2 21 23
M  V30 44 1 32 37
M  V30 45 2 40 41
M  V30 END BOND
M  V30 END CTAB
M  END
>  <Compound ID>
216

>  <Name>
Rebastinib

>  <Uniprot>
P53671

>  <Target>
LIMK2

>  <Smiles>
CNC(=O)C1=CC(OC2=CC=C(NC(=O)NC3=CC(C(C)(C)C)=NN3C3=CC=C4N=CC=CC4=C3)C(F)=C2)=CC=N1

>  <Kd (nM)>


>  <Assay (Kd)>


>  <Ki (nM)>


>  <Assay (Ki)>


>  <IC50 (nM)>


>  <Assay (IC50)>


>  <EC50 (nM)>


>  <Assay (EC50)>


>  <Article DOI>
10.1016/j.cell.2020.10.038

>  <Molecular Weight>
553.598

>  <Exact Mass>
553.223765976

>  <XLogP3>
4.93

>  <Heavy Atom Count>
41

>  <Ring Count>
5

>  <Hydrogen Bond Acceptor Count>
7

>  <Hydrogen Bond Donor Count>
3

>  <Rotatable Bond Count>
6

>  <Topological Polar Surface Area>
123.06

>  <Molecular Formula>
C30H28FN7O3

>  <InChI>
InChI=1S/C30H28FN7O3/c1-30(2,3)26-17-27(38(37-26)19-7-9-23-18(14-19)6-5-12-33-23)36-29(40)35-24-10-8-20(15-22(24)31)41-21-11-13-34-25(16-21)28(39)32-4/h5-17H,1-4H3,(H,32,39)(H2,35,36,40)

>  <InChI Key>
WVXNSAVVKYZVOE-UHFFFAOYSA-N

>  <BindingDB>
185674

>  <PubChem>
25066467

>  <ChEMBL>
CHEMBL1738757

$$$$
Compound 719
Actelion Java MolfileCreator 2.0

  0  0  0  0  0  0              0 V3000
M  V30 BEGIN CTAB
M  V30 COUNTS 41 45 0 0 0
M  V30 BEGIN ATOM
M  V30 1 F 0.0 0.0 0.0 0
M  V30 2 C -0.6001 -1.3651 0.0 0
M  V30 3 C 0.2824 -2.5537 0.0 0
M  V30 4 C -2.1065 -1.5298 0.0 0
M  V30 5 N 1.7652 -2.3654 0.0 0
M  V30 6 C -0.3177 -3.9188 0.0 0
M  V30 7 C -2.7066 -2.8949 0.0 0
M  V30 8 C 2.3418 -0.9767 0.0 0
M  V30 9 C -1.824 -4.0835 0.0 0
M  V30 10 O -4.213 -3.0597 0.0 0
M  V30 11 O 1.4357 0.2353 0.0 0
M  V30 12 N 3.8246 -0.7884 0.0 0
M  V30 13 C -5.1191 -1.8476 0.0 0
M  V30 14 C 4.4013 0.6001 0.0 0
M  V30 15 C -4.5425 -0.4589 0.0 0
M  V30 16 C -6.6255 -2.0123 0.0 0
M  V30 17 N 5.8488 0.9414 0.0 0
M  V30 18 C 3.6246 1.9064 0.0 0
M  V30 19 C -5.4486 0.7531 0.0 0
M  V30 20 C -7.5316 -0.8002 0.0 0
M  V30 21 N 5.9782 2.4477 0.0 0
M  V30 22 C 6.9667 -0.0353 0.0 0
M  V30 23 C 4.6013 3.0479 0.0 0
M  V30 24 N -6.955 0.5884 0.0 0
M  V30 25 C -4.872 2.1418 0.0 0
M  V30 26 C 8.3789 0.4589 0.0 0
M  V30 27 C 6.6608 -1.4945 0.0 0
M  V30 28 C 4.26 4.5189 0.0 0
M  V30 29 O -5.7781 3.3539 0.0 0
M  V30 30 N -3.3892 2.3301 0.0 0
M  V30 31 C 9.4969 -0.5178 0.0 0
M  V30 32 C 7.7787 -2.4713 0.0 0
M  V30 33 C 5.7075 4.8602 0.0 0
M  V30 34 C 2.789 4.2012 0.0 0
M  V30 35 C 3.9188 5.99 0.0 0
M  V30 36 C -2.8126 3.7187 0.0 0
M  V30 37 C 9.1909 -1.977 0.0 0
M  V30 38 C 10.9091 -0.0235 0.0 0
M  V30 39 N 10.3089 -2.9538 0.0 0
M  V30 40 C 12.0271 -1.0002 0.0 0
M  V30 41 C 11.7211 -2.4595 0.0 0
M  V30 END ATOM
M  V30 BEGIN BOND
M  V30 1 1 1 2
M  V30 2 2 2 3
M  V30 3 1 2 4
M  V30 4 1 3 5
M  V30 5 1 3 6
M  V30 6 2 4 7
M  V30 7 1 5 8
M  V30 8 2 6 9
M  V30 9 1 7 10
M  V30 10 2 8 11
M  V30 11 1 8 12
M  V30 12 1 10 13
M  V30 13 1 12 14
M  V30 14 2 13 15
M  V30 15 1 13 16
M  V30 16 1 14 17
M  V30 17 2 14 18
M  V30 18 1 15 19
M  V30 19 2 16 20
M  V30 20 1 17 21
M  V30 21 1 17 22
M  V30 22 1 18 23
M  V30 23 2 19 24
M  V30 24 1 19 25
M  V30 25 2 22 26
M  V30 26 1 22 27
M  V30 27 1 23 28
M  V30 28 2 25 29
M  V30 29 1 25 30
M  V30 30 1 26 31
M  V30 31 2 27 32
M  V30 32 1 28 33
M  V30 33 1 28 34
M  V30 34 1 28 35
M  V30 35 1 30 36
M  V30 36 1 31 37
M  V30 37 2 31 38
M  V30 38 2 37 39
M  V30 39 1 38 40
M  V30 40 1 39 41
M  V30 41 1 7 9
M  V30 42 1 20 24
M  V30 43 2 21 23
M  V30 44 1 32 37
M  V30 45 2 40 41
M  V30 END BOND
M  V30 END CTAB
M  END
>  <Compound ID>
216

>  <Name>
Rebastinib

>  <Uniprot>
Q16584

>  <Target>
MAP3K11

>  <Smiles>
CNC(=O)C1=CC(OC2=CC=C(NC(=O)NC3=CC(C(C)(C)C)=NN3C3=CC=C4N=CC=CC4=C3)C(F)=C2)=CC=N1

>  <Kd (nM)>


>  <Assay (Kd)>


>  <Ki (nM)>


>  <Assay (Ki)>


>  <IC50 (nM)>


>  <Assay (IC50)>


>  <EC50 (nM)>


>  <Assay (EC50)>


>  <Article DOI>
10.1016/j.cell.2020.10.038

>  <Molecular Weight>
553.598

>  <Exact Mass>
553.223765976

>  <XLogP3>
4.93

>  <Heavy Atom Count>
41

>  <Ring Count>
5

>  <Hydrogen Bond Acceptor Count>
7

>  <Hydrogen Bond Donor Count>
3

>  <Rotatable Bond Count>
6

>  <Topological Polar Surface Area>
123.06

>  <Molecular Formula>
C30H28FN7O3

>  <InChI>
InChI=1S/C30H28FN7O3/c1-30(2,3)26-17-27(38(37-26)19-7-9-23-18(14-19)6-5-12-33-23)36-29(40)35-24-10-8-20(15-22(24)31)41-21-11-13-34-25(16-21)28(39)32-4/h5-17H,1-4H3,(H,32,39)(H2,35,36,40)

>  <InChI Key>
WVXNSAVVKYZVOE-UHFFFAOYSA-N

>  <BindingDB>
185674

>  <PubChem>
25066467

>  <ChEMBL>
CHEMBL1738757

$$$$
Compound 720
Actelion Java MolfileCreator 2.0

  0  0  0  0  0  0              0 V3000
M  V30 BEGIN CTAB
M  V30 COUNTS 41 45 0 0 0
M  V30 BEGIN ATOM
M  V30 1 F 0.0 0.0 0.0 0
M  V30 2 C -0.6001 -1.3651 0.0 0
M  V30 3 C 0.2824 -2.5537 0.0 0
M  V30 4 C -2.1065 -1.5298 0.0 0
M  V30 5 N 1.7652 -2.3654 0.0 0
M  V30 6 C -0.3177 -3.9188 0.0 0
M  V30 7 C -2.7066 -2.8949 0.0 0
M  V30 8 C 2.3418 -0.9767 0.0 0
M  V30 9 C -1.824 -4.0835 0.0 0
M  V30 10 O -4.213 -3.0597 0.0 0
M  V30 11 O 1.4357 0.2353 0.0 0
M  V30 12 N 3.8246 -0.7884 0.0 0
M  V30 13 C -5.1191 -1.8476 0.0 0
M  V30 14 C 4.4013 0.6001 0.0 0
M  V30 15 C -4.5425 -0.4589 0.0 0
M  V30 16 C -6.6255 -2.0123 0.0 0
M  V30 17 N 5.8488 0.9414 0.0 0
M  V30 18 C 3.6246 1.9064 0.0 0
M  V30 19 C -5.4486 0.7531 0.0 0
M  V30 20 C -7.5316 -0.8002 0.0 0
M  V30 21 N 5.9782 2.4477 0.0 0
M  V30 22 C 6.9667 -0.0353 0.0 0
M  V30 23 C 4.6013 3.0479 0.0 0
M  V30 24 N -6.955 0.5884 0.0 0
M  V30 25 C -4.872 2.1418 0.0 0
M  V30 26 C 8.3789 0.4589 0.0 0
M  V30 27 C 6.6608 -1.4945 0.0 0
M  V30 28 C 4.26 4.5189 0.0 0
M  V30 29 O -5.7781 3.3539 0.0 0
M  V30 30 N -3.3892 2.3301 0.0 0
M  V30 31 C 9.4969 -0.5178 0.0 0
M  V30 32 C 7.7787 -2.4713 0.0 0
M  V30 33 C 5.7075 4.8602 0.0 0
M  V30 34 C 2.789 4.2012 0.0 0
M  V30 35 C 3.9188 5.99 0.0 0
M  V30 36 C -2.8126 3.7187 0.0 0
M  V30 37 C 9.1909 -1.977 0.0 0
M  V30 38 C 10.9091 -0.0235 0.0 0
M  V30 39 N 10.3089 -2.9538 0.0 0
M  V30 40 C 12.0271 -1.0002 0.0 0
M  V30 41 C 11.7211 -2.4595 0.0 0
M  V30 END ATOM
M  V30 BEGIN BOND
M  V30 1 1 1 2
M  V30 2 2 2 3
M  V30 3 1 2 4
M  V30 4 1 3 5
M  V30 5 1 3 6
M  V30 6 2 4 7
M  V30 7 1 5 8
M  V30 8 2 6 9
M  V30 9 1 7 10
M  V30 10 2 8 11
M  V30 11 1 8 12
M  V30 12 1 10 13
M  V30 13 1 12 14
M  V30 14 2 13 15
M  V30 15 1 13 16
M  V30 16 1 14 17
M  V30 17 2 14 18
M  V30 18 1 15 19
M  V30 19 2 16 20
M  V30 20 1 17 21
M  V30 21 1 17 22
M  V30 22 1 18 23
M  V30 23 2 19 24
M  V30 24 1 19 25
M  V30 25 2 22 26
M  V30 26 1 22 27
M  V30 27 1 23 28
M  V30 28 2 25 29
M  V30 29 1 25 30
M  V30 30 1 26 31
M  V30 31 2 27 32
M  V30 32 1 28 33
M  V30 33 1 28 34
M  V30 34 1 28 35
M  V30 35 1 30 36
M  V30 36 1 31 37
M  V30 37 2 31 38
M  V30 38 2 37 39
M  V30 39 1 38 40
M  V30 40 1 39 41
M  V30 41 1 7 9
M  V30 42 1 20 24
M  V30 43 2 21 23
M  V30 44 1 32 37
M  V30 45 2 40 41
M  V30 END BOND
M  V30 END CTAB
M  END
>  <Compound ID>
216

>  <Name>
Rebastinib

>  <Uniprot>
Q96L34

>  <Target>
MARK4

>  <Smiles>
CNC(=O)C1=CC(OC2=CC=C(NC(=O)NC3=CC(C(C)(C)C)=NN3C3=CC=C4N=CC=CC4=C3)C(F)=C2)=CC=N1

>  <Kd (nM)>


>  <Assay (Kd)>


>  <Ki (nM)>


>  <Assay (Ki)>


>  <IC50 (nM)>


>  <Assay (IC50)>


>  <EC50 (nM)>


>  <Assay (EC50)>


>  <Article DOI>
10.1016/j.cell.2020.10.038

>  <Molecular Weight>
553.598

>  <Exact Mass>
553.223765976

>  <XLogP3>
4.93

>  <Heavy Atom Count>
41

>  <Ring Count>
5

>  <Hydrogen Bond Acceptor Count>
7

>  <Hydrogen Bond Donor Count>
3

>  <Rotatable Bond Count>
6

>  <Topological Polar Surface Area>
123.06

>  <Molecular Formula>
C30H28FN7O3

>  <InChI>
InChI=1S/C30H28FN7O3/c1-30(2,3)26-17-27(38(37-26)19-7-9-23-18(14-19)6-5-12-33-23)36-29(40)35-24-10-8-20(15-22(24)31)41-21-11-13-34-25(16-21)28(39)32-4/h5-17H,1-4H3,(H,32,39)(H2,35,36,40)

>  <InChI Key>
WVXNSAVVKYZVOE-UHFFFAOYSA-N

>  <BindingDB>
185674

>  <PubChem>
25066467

>  <ChEMBL>
CHEMBL1738757

$$$$
Compound 721
Actelion Java MolfileCreator 2.0

  0  0  0  0  0  0              0 V3000
M  V30 BEGIN CTAB
M  V30 COUNTS 41 45 0 0 0
M  V30 BEGIN ATOM
M  V30 1 F 0.0 0.0 0.0 0
M  V30 2 C -0.6001 -1.3651 0.0 0
M  V30 3 C 0.2824 -2.5537 0.0 0
M  V30 4 C -2.1065 -1.5298 0.0 0
M  V30 5 N 1.7652 -2.3654 0.0 0
M  V30 6 C -0.3177 -3.9188 0.0 0
M  V30 7 C -2.7066 -2.8949 0.0 0
M  V30 8 C 2.3418 -0.9767 0.0 0
M  V30 9 C -1.824 -4.0835 0.0 0
M  V30 10 O -4.213 -3.0597 0.0 0
M  V30 11 O 1.4357 0.2353 0.0 0
M  V30 12 N 3.8246 -0.7884 0.0 0
M  V30 13 C -5.1191 -1.8476 0.0 0
M  V30 14 C 4.4013 0.6001 0.0 0
M  V30 15 C -4.5425 -0.4589 0.0 0
M  V30 16 C -6.6255 -2.0123 0.0 0
M  V30 17 N 5.8488 0.9414 0.0 0
M  V30 18 C 3.6246 1.9064 0.0 0
M  V30 19 C -5.4486 0.7531 0.0 0
M  V30 20 C -7.5316 -0.8002 0.0 0
M  V30 21 N 5.9782 2.4477 0.0 0
M  V30 22 C 6.9667 -0.0353 0.0 0
M  V30 23 C 4.6013 3.0479 0.0 0
M  V30 24 N -6.955 0.5884 0.0 0
M  V30 25 C -4.872 2.1418 0.0 0
M  V30 26 C 8.3789 0.4589 0.0 0
M  V30 27 C 6.6608 -1.4945 0.0 0
M  V30 28 C 4.26 4.5189 0.0 0
M  V30 29 O -5.7781 3.3539 0.0 0
M  V30 30 N -3.3892 2.3301 0.0 0
M  V30 31 C 9.4969 -0.5178 0.0 0
M  V30 32 C 7.7787 -2.4713 0.0 0
M  V30 33 C 5.7075 4.8602 0.0 0
M  V30 34 C 2.789 4.2012 0.0 0
M  V30 35 C 3.9188 5.99 0.0 0
M  V30 36 C -2.8126 3.7187 0.0 0
M  V30 37 C 9.1909 -1.977 0.0 0
M  V30 38 C 10.9091 -0.0235 0.0 0
M  V30 39 N 10.3089 -2.9538 0.0 0
M  V30 40 C 12.0271 -1.0002 0.0 0
M  V30 41 C 11.7211 -2.4595 0.0 0
M  V30 END ATOM
M  V30 BEGIN BOND
M  V30 1 1 1 2
M  V30 2 2 2 3
M  V30 3 1 2 4
M  V30 4 1 3 5
M  V30 5 1 3 6
M  V30 6 2 4 7
M  V30 7 1 5 8
M  V30 8 2 6 9
M  V30 9 1 7 10
M  V30 10 2 8 11
M  V30 11 1 8 12
M  V30 12 1 10 13
M  V30 13 1 12 14
M  V30 14 2 13 15
M  V30 15 1 13 16
M  V30 16 1 14 17
M  V30 17 2 14 18
M  V30 18 1 15 19
M  V30 19 2 16 20
M  V30 20 1 17 21
M  V30 21 1 17 22
M  V30 22 1 18 23
M  V30 23 2 19 24
M  V30 24 1 19 25
M  V30 25 2 22 26
M  V30 26 1 22 27
M  V30 27 1 23 28
M  V30 28 2 25 29
M  V30 29 1 25 30
M  V30 30 1 26 31
M  V30 31 2 27 32
M  V30 32 1 28 33
M  V30 33 1 28 34
M  V30 34 1 28 35
M  V30 35 1 30 36
M  V30 36 1 31 37
M  V30 37 2 31 38
M  V30 38 2 37 39
M  V30 39 1 38 40
M  V30 40 1 39 41
M  V30 41 1 7 9
M  V30 42 1 20 24
M  V30 43 2 21 23
M  V30 44 1 32 37
M  V30 45 2 40 41
M  V30 END BOND
M  V30 END CTAB
M  END
>  <Compound ID>
216

>  <Name>
Rebastinib

>  <Uniprot>
O00444

>  <Target>
PLK4

>  <Smiles>
CNC(=O)C1=CC(OC2=CC=C(NC(=O)NC3=CC(C(C)(C)C)=NN3C3=CC=C4N=CC=CC4=C3)C(F)=C2)=CC=N1

>  <Kd (nM)>
4088

>  <Assay (Kd)>
Kd apparent of PLK4

>  <Ki (nM)>


>  <Assay (Ki)>


>  <IC50 (nM)>


>  <Assay (IC50)>


>  <EC50 (nM)>


>  <Assay (EC50)>


>  <Article DOI>
10.1126/science.aan4368

>  <Molecular Weight>
553.598

>  <Exact Mass>
553.223765976

>  <XLogP3>
4.93

>  <Heavy Atom Count>
41

>  <Ring Count>
5

>  <Hydrogen Bond Acceptor Count>
7

>  <Hydrogen Bond Donor Count>
3

>  <Rotatable Bond Count>
6

>  <Topological Polar Surface Area>
123.06

>  <Molecular Formula>
C30H28FN7O3

>  <InChI>
InChI=1S/C30H28FN7O3/c1-30(2,3)26-17-27(38(37-26)19-7-9-23-18(14-19)6-5-12-33-23)36-29(40)35-24-10-8-20(15-22(24)31)41-21-11-13-34-25(16-21)28(39)32-4/h5-17H,1-4H3,(H,32,39)(H2,35,36,40)

>  <InChI Key>
WVXNSAVVKYZVOE-UHFFFAOYSA-N

>  <BindingDB>
185674

>  <PubChem>
25066467

>  <ChEMBL>
CHEMBL1738757

$$$$
Compound 722
Actelion Java MolfileCreator 2.0

  0  0  0  0  0  0              0 V3000
M  V30 BEGIN CTAB
M  V30 COUNTS 41 45 0 0 0
M  V30 BEGIN ATOM
M  V30 1 F 0.0 0.0 0.0 0
M  V30 2 C -0.6001 -1.3651 0.0 0
M  V30 3 C 0.2824 -2.5537 0.0 0
M  V30 4 C -2.1065 -1.5298 0.0 0
M  V30 5 N 1.7652 -2.3654 0.0 0
M  V30 6 C -0.3177 -3.9188 0.0 0
M  V30 7 C -2.7066 -2.8949 0.0 0
M  V30 8 C 2.3418 -0.9767 0.0 0
M  V30 9 C -1.824 -4.0835 0.0 0
M  V30 10 O -4.213 -3.0597 0.0 0
M  V30 11 O 1.4357 0.2353 0.0 0
M  V30 12 N 3.8246 -0.7884 0.0 0
M  V30 13 C -5.1191 -1.8476 0.0 0
M  V30 14 C 4.4013 0.6001 0.0 0
M  V30 15 C -4.5425 -0.4589 0.0 0
M  V30 16 C -6.6255 -2.0123 0.0 0
M  V30 17 N 5.8488 0.9414 0.0 0
M  V30 18 C 3.6246 1.9064 0.0 0
M  V30 19 C -5.4486 0.7531 0.0 0
M  V30 20 C -7.5316 -0.8002 0.0 0
M  V30 21 N 5.9782 2.4477 0.0 0
M  V30 22 C 6.9667 -0.0353 0.0 0
M  V30 23 C 4.6013 3.0479 0.0 0
M  V30 24 N -6.955 0.5884 0.0 0
M  V30 25 C -4.872 2.1418 0.0 0
M  V30 26 C 8.3789 0.4589 0.0 0
M  V30 27 C 6.6608 -1.4945 0.0 0
M  V30 28 C 4.26 4.5189 0.0 0
M  V30 29 O -5.7781 3.3539 0.0 0
M  V30 30 N -3.3892 2.3301 0.0 0
M  V30 31 C 9.4969 -0.5178 0.0 0
M  V30 32 C 7.7787 -2.4713 0.0 0
M  V30 33 C 5.7075 4.8602 0.0 0
M  V30 34 C 2.789 4.2012 0.0 0
M  V30 35 C 3.9188 5.99 0.0 0
M  V30 36 C -2.8126 3.7187 0.0 0
M  V30 37 C 9.1909 -1.977 0.0 0
M  V30 38 C 10.9091 -0.0235 0.0 0
M  V30 39 N 10.3089 -2.9538 0.0 0
M  V30 40 C 12.0271 -1.0002 0.0 0
M  V30 41 C 11.7211 -2.4595 0.0 0
M  V30 END ATOM
M  V30 BEGIN BOND
M  V30 1 1 1 2
M  V30 2 2 2 3
M  V30 3 1 2 4
M  V30 4 1 3 5
M  V30 5 1 3 6
M  V30 6 2 4 7
M  V30 7 1 5 8
M  V30 8 2 6 9
M  V30 9 1 7 10
M  V30 10 2 8 11
M  V30 11 1 8 12
M  V30 12 1 10 13
M  V30 13 1 12 14
M  V30 14 2 13 15
M  V30 15 1 13 16
M  V30 16 1 14 17
M  V30 17 2 14 18
M  V30 18 1 15 19
M  V30 19 2 16 20
M  V30 20 1 17 21
M  V30 21 1 17 22
M  V30 22 1 18 23
M  V30 23 2 19 24
M  V30 24 1 19 25
M  V30 25 2 22 26
M  V30 26 1 22 27
M  V30 27 1 23 28
M  V30 28 2 25 29
M  V30 29 1 25 30
M  V30 30 1 26 31
M  V30 31 2 27 32
M  V30 32 1 28 33
M  V30 33 1 28 34
M  V30 34 1 28 35
M  V30 35 1 30 36
M  V30 36 1 31 37
M  V30 37 2 31 38
M  V30 38 2 37 39
M  V30 39 1 38 40
M  V30 40 1 39 41
M  V30 41 1 7 9
M  V30 42 1 20 24
M  V30 43 2 21 23
M  V30 44 1 32 37
M  V30 45 2 40 41
M  V30 END BOND
M  V30 END CTAB
M  END
>  <Compound ID>
216

>  <Name>
Rebastinib

>  <Uniprot>
Q13131

>  <Target>
PRKAA1

>  <Smiles>
CNC(=O)C1=CC(OC2=CC=C(NC(=O)NC3=CC(C(C)(C)C)=NN3C3=CC=C4N=CC=CC4=C3)C(F)=C2)=CC=N1

>  <Kd (nM)>


>  <Assay (Kd)>


>  <Ki (nM)>


>  <Assay (Ki)>


>  <IC50 (nM)>


>  <Assay (IC50)>


>  <EC50 (nM)>


>  <Assay (EC50)>


>  <Article DOI>
10.1016/j.cell.2020.10.038

>  <Molecular Weight>
553.598

>  <Exact Mass>
553.223765976

>  <XLogP3>
4.93

>  <Heavy Atom Count>
41

>  <Ring Count>
5

>  <Hydrogen Bond Acceptor Count>
7

>  <Hydrogen Bond Donor Count>
3

>  <Rotatable Bond Count>
6

>  <Topological Polar Surface Area>
123.06

>  <Molecular Formula>
C30H28FN7O3

>  <InChI>
InChI=1S/C30H28FN7O3/c1-30(2,3)26-17-27(38(37-26)19-7-9-23-18(14-19)6-5-12-33-23)36-29(40)35-24-10-8-20(15-22(24)31)41-21-11-13-34-25(16-21)28(39)32-4/h5-17H,1-4H3,(H,32,39)(H2,35,36,40)

>  <InChI Key>
WVXNSAVVKYZVOE-UHFFFAOYSA-N

>  <BindingDB>
185674

>  <PubChem>
25066467

>  <ChEMBL>
CHEMBL1738757

$$$$
Compound 723
Actelion Java MolfileCreator 2.0

  0  0  0  0  0  0              0 V3000
M  V30 BEGIN CTAB
M  V30 COUNTS 41 45 0 0 0
M  V30 BEGIN ATOM
M  V30 1 F 0.0 0.0 0.0 0
M  V30 2 C -0.6001 -1.3651 0.0 0
M  V30 3 C 0.2824 -2.5537 0.0 0
M  V30 4 C -2.1065 -1.5298 0.0 0
M  V30 5 N 1.7652 -2.3654 0.0 0
M  V30 6 C -0.3177 -3.9188 0.0 0
M  V30 7 C -2.7066 -2.8949 0.0 0
M  V30 8 C 2.3418 -0.9767 0.0 0
M  V30 9 C -1.824 -4.0835 0.0 0
M  V30 10 O -4.213 -3.0597 0.0 0
M  V30 11 O 1.4357 0.2353 0.0 0
M  V30 12 N 3.8246 -0.7884 0.0 0
M  V30 13 C -5.1191 -1.8476 0.0 0
M  V30 14 C 4.4013 0.6001 0.0 0
M  V30 15 C -4.5425 -0.4589 0.0 0
M  V30 16 C -6.6255 -2.0123 0.0 0
M  V30 17 N 5.8488 0.9414 0.0 0
M  V30 18 C 3.6246 1.9064 0.0 0
M  V30 19 C -5.4486 0.7531 0.0 0
M  V30 20 C -7.5316 -0.8002 0.0 0
M  V30 21 N 5.9782 2.4477 0.0 0
M  V30 22 C 6.9667 -0.0353 0.0 0
M  V30 23 C 4.6013 3.0479 0.0 0
M  V30 24 N -6.955 0.5884 0.0 0
M  V30 25 C -4.872 2.1418 0.0 0
M  V30 26 C 8.3789 0.4589 0.0 0
M  V30 27 C 6.6608 -1.4945 0.0 0
M  V30 28 C 4.26 4.5189 0.0 0
M  V30 29 O -5.7781 3.3539 0.0 0
M  V30 30 N -3.3892 2.3301 0.0 0
M  V30 31 C 9.4969 -0.5178 0.0 0
M  V30 32 C 7.7787 -2.4713 0.0 0
M  V30 33 C 5.7075 4.8602 0.0 0
M  V30 34 C 2.789 4.2012 0.0 0
M  V30 35 C 3.9188 5.99 0.0 0
M  V30 36 C -2.8126 3.7187 0.0 0
M  V30 37 C 9.1909 -1.977 0.0 0
M  V30 38 C 10.9091 -0.0235 0.0 0
M  V30 39 N 10.3089 -2.9538 0.0 0
M  V30 40 C 12.0271 -1.0002 0.0 0
M  V30 41 C 11.7211 -2.4595 0.0 0
M  V30 END ATOM
M  V30 BEGIN BOND
M  V30 1 1 1 2
M  V30 2 2 2 3
M  V30 3 1 2 4
M  V30 4 1 3 5
M  V30 5 1 3 6
M  V30 6 2 4 7
M  V30 7 1 5 8
M  V30 8 2 6 9
M  V30 9 1 7 10
M  V30 10 2 8 11
M  V30 11 1 8 12
M  V30 12 1 10 13
M  V30 13 1 12 14
M  V30 14 2 13 15
M  V30 15 1 13 16
M  V30 16 1 14 17
M  V30 17 2 14 18
M  V30 18 1 15 19
M  V30 19 2 16 20
M  V30 20 1 17 21
M  V30 21 1 17 22
M  V30 22 1 18 23
M  V30 23 2 19 24
M  V30 24 1 19 25
M  V30 25 2 22 26
M  V30 26 1 22 27
M  V30 27 1 23 28
M  V30 28 2 25 29
M  V30 29 1 25 30
M  V30 30 1 26 31
M  V30 31 2 27 32
M  V30 32 1 28 33
M  V30 33 1 28 34
M  V30 34 1 28 35
M  V30 35 1 30 36
M  V30 36 1 31 37
M  V30 37 2 31 38
M  V30 38 2 37 39
M  V30 39 1 38 40
M  V30 40 1 39 41
M  V30 41 1 7 9
M  V30 42 1 20 24
M  V30 43 2 21 23
M  V30 44 1 32 37
M  V30 45 2 40 41
M  V30 END BOND
M  V30 END CTAB
M  END
>  <Compound ID>
216

>  <Name>
Rebastinib

>  <Uniprot>
Q15418

>  <Target>
RPS6KA1

>  <Smiles>
CNC(=O)C1=CC(OC2=CC=C(NC(=O)NC3=CC(C(C)(C)C)=NN3C3=CC=C4N=CC=CC4=C3)C(F)=C2)=CC=N1

>  <Kd (nM)>


>  <Assay (Kd)>


>  <Ki (nM)>


>  <Assay (Ki)>


>  <IC50 (nM)>


>  <Assay (IC50)>


>  <EC50 (nM)>


>  <Assay (EC50)>


>  <Article DOI>
10.1016/j.cell.2020.10.038

>  <Molecular Weight>
553.598

>  <Exact Mass>
553.223765976

>  <XLogP3>
4.93

>  <Heavy Atom Count>
41

>  <Ring Count>
5

>  <Hydrogen Bond Acceptor Count>
7

>  <Hydrogen Bond Donor Count>
3

>  <Rotatable Bond Count>
6

>  <Topological Polar Surface Area>
123.06

>  <Molecular Formula>
C30H28FN7O3

>  <InChI>
InChI=1S/C30H28FN7O3/c1-30(2,3)26-17-27(38(37-26)19-7-9-23-18(14-19)6-5-12-33-23)36-29(40)35-24-10-8-20(15-22(24)31)41-21-11-13-34-25(16-21)28(39)32-4/h5-17H,1-4H3,(H,32,39)(H2,35,36,40)

>  <InChI Key>
WVXNSAVVKYZVOE-UHFFFAOYSA-N

>  <BindingDB>
185674

>  <PubChem>
25066467

>  <ChEMBL>
CHEMBL1738757

$$$$
Compound 724
Actelion Java MolfileCreator 2.0

  0  0  0  0  0  0              0 V3000
M  V30 BEGIN CTAB
M  V30 COUNTS 41 45 0 0 0
M  V30 BEGIN ATOM
M  V30 1 F 0.0 0.0 0.0 0
M  V30 2 C -0.6001 -1.3651 0.0 0
M  V30 3 C 0.2824 -2.5537 0.0 0
M  V30 4 C -2.1065 -1.5298 0.0 0
M  V30 5 N 1.7652 -2.3654 0.0 0
M  V30 6 C -0.3177 -3.9188 0.0 0
M  V30 7 C -2.7066 -2.8949 0.0 0
M  V30 8 C 2.3418 -0.9767 0.0 0
M  V30 9 C -1.824 -4.0835 0.0 0
M  V30 10 O -4.213 -3.0597 0.0 0
M  V30 11 O 1.4357 0.2353 0.0 0
M  V30 12 N 3.8246 -0.7884 0.0 0
M  V30 13 C -5.1191 -1.8476 0.0 0
M  V30 14 C 4.4013 0.6001 0.0 0
M  V30 15 C -4.5425 -0.4589 0.0 0
M  V30 16 C -6.6255 -2.0123 0.0 0
M  V30 17 N 5.8488 0.9414 0.0 0
M  V30 18 C 3.6246 1.9064 0.0 0
M  V30 19 C -5.4486 0.7531 0.0 0
M  V30 20 C -7.5316 -0.8002 0.0 0
M  V30 21 N 5.9782 2.4477 0.0 0
M  V30 22 C 6.9667 -0.0353 0.0 0
M  V30 23 C 4.6013 3.0479 0.0 0
M  V30 24 N -6.955 0.5884 0.0 0
M  V30 25 C -4.872 2.1418 0.0 0
M  V30 26 C 8.3789 0.4589 0.0 0
M  V30 27 C 6.6608 -1.4945 0.0 0
M  V30 28 C 4.26 4.5189 0.0 0
M  V30 29 O -5.7781 3.3539 0.0 0
M  V30 30 N -3.3892 2.3301 0.0 0
M  V30 31 C 9.4969 -0.5178 0.0 0
M  V30 32 C 7.7787 -2.4713 0.0 0
M  V30 33 C 5.7075 4.8602 0.0 0
M  V30 34 C 2.789 4.2012 0.0 0
M  V30 35 C 3.9188 5.99 0.0 0
M  V30 36 C -2.8126 3.7187 0.0 0
M  V30 37 C 9.1909 -1.977 0.0 0
M  V30 38 C 10.9091 -0.0235 0.0 0
M  V30 39 N 10.3089 -2.9538 0.0 0
M  V30 40 C 12.0271 -1.0002 0.0 0
M  V30 41 C 11.7211 -2.4595 0.0 0
M  V30 END ATOM
M  V30 BEGIN BOND
M  V30 1 1 1 2
M  V30 2 2 2 3
M  V30 3 1 2 4
M  V30 4 1 3 5
M  V30 5 1 3 6
M  V30 6 2 4 7
M  V30 7 1 5 8
M  V30 8 2 6 9
M  V30 9 1 7 10
M  V30 10 2 8 11
M  V30 11 1 8 12
M  V30 12 1 10 13
M  V30 13 1 12 14
M  V30 14 2 13 15
M  V30 15 1 13 16
M  V30 16 1 14 17
M  V30 17 2 14 18
M  V30 18 1 15 19
M  V30 19 2 16 20
M  V30 20 1 17 21
M  V30 21 1 17 22
M  V30 22 1 18 23
M  V30 23 2 19 24
M  V30 24 1 19 25
M  V30 25 2 22 26
M  V30 26 1 22 27
M  V30 27 1 23 28
M  V30 28 2 25 29
M  V30 29 1 25 30
M  V30 30 1 26 31
M  V30 31 2 27 32
M  V30 32 1 28 33
M  V30 33 1 28 34
M  V30 34 1 28 35
M  V30 35 1 30 36
M  V30 36 1 31 37
M  V30 37 2 31 38
M  V30 38 2 37 39
M  V30 39 1 38 40
M  V30 40 1 39 41
M  V30 41 1 7 9
M  V30 42 1 20 24
M  V30 43 2 21 23
M  V30 44 1 32 37
M  V30 45 2 40 41
M  V30 END BOND
M  V30 END CTAB
M  END
>  <Compound ID>
216

>  <Name>
Rebastinib

>  <Uniprot>
P12931

>  <Target>
Src

>  <Smiles>
CNC(=O)C1=CC(OC2=CC=C(NC(=O)NC3=CC(C(C)(C)C)=NN3C3=CC=C4N=CC=CC4=C3)C(F)=C2)=CC=N1

>  <Kd (nM)>
5852

>  <Assay (Kd)>
Kd apparent of Src

>  <Ki (nM)>


>  <Assay (Ki)>


>  <IC50 (nM)>


>  <Assay (IC50)>


>  <EC50 (nM)>


>  <Assay (EC50)>


>  <Article DOI>
10.1126/science.aan4368

>  <Molecular Weight>
553.598

>  <Exact Mass>
553.223765976

>  <XLogP3>
4.93

>  <Heavy Atom Count>
41

>  <Ring Count>
5

>  <Hydrogen Bond Acceptor Count>
7

>  <Hydrogen Bond Donor Count>
3

>  <Rotatable Bond Count>
6

>  <Topological Polar Surface Area>
123.06

>  <Molecular Formula>
C30H28FN7O3

>  <InChI>
InChI=1S/C30H28FN7O3/c1-30(2,3)26-17-27(38(37-26)19-7-9-23-18(14-19)6-5-12-33-23)36-29(40)35-24-10-8-20(15-22(24)31)41-21-11-13-34-25(16-21)28(39)32-4/h5-17H,1-4H3,(H,32,39)(H2,35,36,40)

>  <InChI Key>
WVXNSAVVKYZVOE-UHFFFAOYSA-N

>  <BindingDB>
185674

>  <PubChem>
25066467

>  <ChEMBL>
CHEMBL1738757

$$$$
Compound 725
Actelion Java MolfileCreator 2.0

  0  0  0  0  0  0              0 V3000
M  V30 BEGIN CTAB
M  V30 COUNTS 41 45 0 0 0
M  V30 BEGIN ATOM
M  V30 1 F 0.0 0.0 0.0 0
M  V30 2 C -0.6001 -1.3651 0.0 0
M  V30 3 C 0.2824 -2.5537 0.0 0
M  V30 4 C -2.1065 -1.5298 0.0 0
M  V30 5 N 1.7652 -2.3654 0.0 0
M  V30 6 C -0.3177 -3.9188 0.0 0
M  V30 7 C -2.7066 -2.8949 0.0 0
M  V30 8 C 2.3418 -0.9767 0.0 0
M  V30 9 C -1.824 -4.0835 0.0 0
M  V30 10 O -4.213 -3.0597 0.0 0
M  V30 11 O 1.4357 0.2353 0.0 0
M  V30 12 N 3.8246 -0.7884 0.0 0
M  V30 13 C -5.1191 -1.8476 0.0 0
M  V30 14 C 4.4013 0.6001 0.0 0
M  V30 15 C -4.5425 -0.4589 0.0 0
M  V30 16 C -6.6255 -2.0123 0.0 0
M  V30 17 N 5.8488 0.9414 0.0 0
M  V30 18 C 3.6246 1.9064 0.0 0
M  V30 19 C -5.4486 0.7531 0.0 0
M  V30 20 C -7.5316 -0.8002 0.0 0
M  V30 21 N 5.9782 2.4477 0.0 0
M  V30 22 C 6.9667 -0.0353 0.0 0
M  V30 23 C 4.6013 3.0479 0.0 0
M  V30 24 N -6.955 0.5884 0.0 0
M  V30 25 C -4.872 2.1418 0.0 0
M  V30 26 C 8.3789 0.4589 0.0 0
M  V30 27 C 6.6608 -1.4945 0.0 0
M  V30 28 C 4.26 4.5189 0.0 0
M  V30 29 O -5.7781 3.3539 0.0 0
M  V30 30 N -3.3892 2.3301 0.0 0
M  V30 31 C 9.4969 -0.5178 0.0 0
M  V30 32 C 7.7787 -2.4713 0.0 0
M  V30 33 C 5.7075 4.8602 0.0 0
M  V30 34 C 2.789 4.2012 0.0 0
M  V30 35 C 3.9188 5.99 0.0 0
M  V30 36 C -2.8126 3.7187 0.0 0
M  V30 37 C 9.1909 -1.977 0.0 0
M  V30 38 C 10.9091 -0.0235 0.0 0
M  V30 39 N 10.3089 -2.9538 0.0 0
M  V30 40 C 12.0271 -1.0002 0.0 0
M  V30 41 C 11.7211 -2.4595 0.0 0
M  V30 END ATOM
M  V30 BEGIN BOND
M  V30 1 1 1 2
M  V30 2 2 2 3
M  V30 3 1 2 4
M  V30 4 1 3 5
M  V30 5 1 3 6
M  V30 6 2 4 7
M  V30 7 1 5 8
M  V30 8 2 6 9
M  V30 9 1 7 10
M  V30 10 2 8 11
M  V30 11 1 8 12
M  V30 12 1 10 13
M  V30 13 1 12 14
M  V30 14 2 13 15
M  V30 15 1 13 16
M  V30 16 1 14 17
M  V30 17 2 14 18
M  V30 18 1 15 19
M  V30 19 2 16 20
M  V30 20 1 17 21
M  V30 21 1 17 22
M  V30 22 1 18 23
M  V30 23 2 19 24
M  V30 24 1 19 25
M  V30 25 2 22 26
M  V30 26 1 22 27
M  V30 27 1 23 28
M  V30 28 2 25 29
M  V30 29 1 25 30
M  V30 30 1 26 31
M  V30 31 2 27 32
M  V30 32 1 28 33
M  V30 33 1 28 34
M  V30 34 1 28 35
M  V30 35 1 30 36
M  V30 36 1 31 37
M  V30 37 2 31 38
M  V30 38 2 37 39
M  V30 39 1 38 40
M  V30 40 1 39 41
M  V30 41 1 7 9
M  V30 42 1 20 24
M  V30 43 2 21 23
M  V30 44 1 32 37
M  V30 45 2 40 41
M  V30 END BOND
M  V30 END CTAB
M  END
>  <Compound ID>
216

>  <Name>
Rebastinib

>  <Uniprot>
O94804

>  <Target>
STK10

>  <Smiles>
CNC(=O)C1=CC(OC2=CC=C(NC(=O)NC3=CC(C(C)(C)C)=NN3C3=CC=C4N=CC=CC4=C3)C(F)=C2)=CC=N1

>  <Kd (nM)>


>  <Assay (Kd)>


>  <Ki (nM)>


>  <Assay (Ki)>


>  <IC50 (nM)>


>  <Assay (IC50)>


>  <EC50 (nM)>


>  <Assay (EC50)>


>  <Article DOI>
10.1016/j.cell.2020.10.038

>  <Molecular Weight>
553.598

>  <Exact Mass>
553.223765976

>  <XLogP3>
4.93

>  <Heavy Atom Count>
41

>  <Ring Count>
5

>  <Hydrogen Bond Acceptor Count>
7

>  <Hydrogen Bond Donor Count>
3

>  <Rotatable Bond Count>
6

>  <Topological Polar Surface Area>
123.06

>  <Molecular Formula>
C30H28FN7O3

>  <InChI>
InChI=1S/C30H28FN7O3/c1-30(2,3)26-17-27(38(37-26)19-7-9-23-18(14-19)6-5-12-33-23)36-29(40)35-24-10-8-20(15-22(24)31)41-21-11-13-34-25(16-21)28(39)32-4/h5-17H,1-4H3,(H,32,39)(H2,35,36,40)

>  <InChI Key>
WVXNSAVVKYZVOE-UHFFFAOYSA-N

>  <BindingDB>
185674

>  <PubChem>
25066467

>  <ChEMBL>
CHEMBL1738757

$$$$
Compound 726
Actelion Java MolfileCreator 2.0

  0  0  0  0  0  0              0 V3000
M  V30 BEGIN CTAB
M  V30 COUNTS 41 45 0 0 0
M  V30 BEGIN ATOM
M  V30 1 F 0.0 0.0 0.0 0
M  V30 2 C -0.6001 -1.3651 0.0 0
M  V30 3 C 0.2824 -2.5537 0.0 0
M  V30 4 C -2.1065 -1.5298 0.0 0
M  V30 5 N 1.7652 -2.3654 0.0 0
M  V30 6 C -0.3177 -3.9188 0.0 0
M  V30 7 C -2.7066 -2.8949 0.0 0
M  V30 8 C 2.3418 -0.9767 0.0 0
M  V30 9 C -1.824 -4.0835 0.0 0
M  V30 10 O -4.213 -3.0597 0.0 0
M  V30 11 O 1.4357 0.2353 0.0 0
M  V30 12 N 3.8246 -0.7884 0.0 0
M  V30 13 C -5.1191 -1.8476 0.0 0
M  V30 14 C 4.4013 0.6001 0.0 0
M  V30 15 C -4.5425 -0.4589 0.0 0
M  V30 16 C -6.6255 -2.0123 0.0 0
M  V30 17 N 5.8488 0.9414 0.0 0
M  V30 18 C 3.6246 1.9064 0.0 0
M  V30 19 C -5.4486 0.7531 0.0 0
M  V30 20 C -7.5316 -0.8002 0.0 0
M  V30 21 N 5.9782 2.4477 0.0 0
M  V30 22 C 6.9667 -0.0353 0.0 0
M  V30 23 C 4.6013 3.0479 0.0 0
M  V30 24 N -6.955 0.5884 0.0 0
M  V30 25 C -4.872 2.1418 0.0 0
M  V30 26 C 8.3789 0.4589 0.0 0
M  V30 27 C 6.6608 -1.4945 0.0 0
M  V30 28 C 4.26 4.5189 0.0 0
M  V30 29 O -5.7781 3.3539 0.0 0
M  V30 30 N -3.3892 2.3301 0.0 0
M  V30 31 C 9.4969 -0.5178 0.0 0
M  V30 32 C 7.7787 -2.4713 0.0 0
M  V30 33 C 5.7075 4.8602 0.0 0
M  V30 34 C 2.789 4.2012 0.0 0
M  V30 35 C 3.9188 5.99 0.0 0
M  V30 36 C -2.8126 3.7187 0.0 0
M  V30 37 C 9.1909 -1.977 0.0 0
M  V30 38 C 10.9091 -0.0235 0.0 0
M  V30 39 N 10.3089 -2.9538 0.0 0
M  V30 40 C 12.0271 -1.0002 0.0 0
M  V30 41 C 11.7211 -2.4595 0.0 0
M  V30 END ATOM
M  V30 BEGIN BOND
M  V30 1 1 1 2
M  V30 2 2 2 3
M  V30 3 1 2 4
M  V30 4 1 3 5
M  V30 5 1 3 6
M  V30 6 2 4 7
M  V30 7 1 5 8
M  V30 8 2 6 9
M  V30 9 1 7 10
M  V30 10 2 8 11
M  V30 11 1 8 12
M  V30 12 1 10 13
M  V30 13 1 12 14
M  V30 14 2 13 15
M  V30 15 1 13 16
M  V30 16 1 14 17
M  V30 17 2 14 18
M  V30 18 1 15 19
M  V30 19 2 16 20
M  V30 20 1 17 21
M  V30 21 1 17 22
M  V30 22 1 18 23
M  V30 23 2 19 24
M  V30 24 1 19 25
M  V30 25 2 22 26
M  V30 26 1 22 27
M  V30 27 1 23 28
M  V30 28 2 25 29
M  V30 29 1 25 30
M  V30 30 1 26 31
M  V30 31 2 27 32
M  V30 32 1 28 33
M  V30 33 1 28 34
M  V30 34 1 28 35
M  V30 35 1 30 36
M  V30 36 1 31 37
M  V30 37 2 31 38
M  V30 38 2 37 39
M  V30 39 1 38 40
M  V30 40 1 39 41
M  V30 41 1 7 9
M  V30 42 1 20 24
M  V30 43 2 21 23
M  V30 44 1 32 37
M  V30 45 2 40 41
M  V30 END BOND
M  V30 END CTAB
M  END
>  <Compound ID>
216

>  <Name>
Rebastinib

>  <Uniprot>
Q15208

>  <Target>
STK38

>  <Smiles>
CNC(=O)C1=CC(OC2=CC=C(NC(=O)NC3=CC(C(C)(C)C)=NN3C3=CC=C4N=CC=CC4=C3)C(F)=C2)=CC=N1

>  <Kd (nM)>


>  <Assay (Kd)>


>  <Ki (nM)>


>  <Assay (Ki)>


>  <IC50 (nM)>


>  <Assay (IC50)>


>  <EC50 (nM)>


>  <Assay (EC50)>


>  <Article DOI>
10.1016/j.cell.2020.10.038

>  <Molecular Weight>
553.598

>  <Exact Mass>
553.223765976

>  <XLogP3>
4.93

>  <Heavy Atom Count>
41

>  <Ring Count>
5

>  <Hydrogen Bond Acceptor Count>
7

>  <Hydrogen Bond Donor Count>
3

>  <Rotatable Bond Count>
6

>  <Topological Polar Surface Area>
123.06

>  <Molecular Formula>
C30H28FN7O3

>  <InChI>
InChI=1S/C30H28FN7O3/c1-30(2,3)26-17-27(38(37-26)19-7-9-23-18(14-19)6-5-12-33-23)36-29(40)35-24-10-8-20(15-22(24)31)41-21-11-13-34-25(16-21)28(39)32-4/h5-17H,1-4H3,(H,32,39)(H2,35,36,40)

>  <InChI Key>
WVXNSAVVKYZVOE-UHFFFAOYSA-N

>  <BindingDB>
185674

>  <PubChem>
25066467

>  <ChEMBL>
CHEMBL1738757

$$$$
Compound 727
Actelion Java MolfileCreator 2.0

  0  0  0  0  0  0              0 V3000
M  V30 BEGIN CTAB
M  V30 COUNTS 41 45 0 0 0
M  V30 BEGIN ATOM
M  V30 1 F 0.0 0.0 0.0 0
M  V30 2 C -0.6001 -1.3651 0.0 0
M  V30 3 C 0.2824 -2.5537 0.0 0
M  V30 4 C -2.1065 -1.5298 0.0 0
M  V30 5 N 1.7652 -2.3654 0.0 0
M  V30 6 C -0.3177 -3.9188 0.0 0
M  V30 7 C -2.7066 -2.8949 0.0 0
M  V30 8 C 2.3418 -0.9767 0.0 0
M  V30 9 C -1.824 -4.0835 0.0 0
M  V30 10 O -4.213 -3.0597 0.0 0
M  V30 11 O 1.4357 0.2353 0.0 0
M  V30 12 N 3.8246 -0.7884 0.0 0
M  V30 13 C -5.1191 -1.8476 0.0 0
M  V30 14 C 4.4013 0.6001 0.0 0
M  V30 15 C -4.5425 -0.4589 0.0 0
M  V30 16 C -6.6255 -2.0123 0.0 0
M  V30 17 N 5.8488 0.9414 0.0 0
M  V30 18 C 3.6246 1.9064 0.0 0
M  V30 19 C -5.4486 0.7531 0.0 0
M  V30 20 C -7.5316 -0.8002 0.0 0
M  V30 21 N 5.9782 2.4477 0.0 0
M  V30 22 C 6.9667 -0.0353 0.0 0
M  V30 23 C 4.6013 3.0479 0.0 0
M  V30 24 N -6.955 0.5884 0.0 0
M  V30 25 C -4.872 2.1418 0.0 0
M  V30 26 C 8.3789 0.4589 0.0 0
M  V30 27 C 6.6608 -1.4945 0.0 0
M  V30 28 C 4.26 4.5189 0.0 0
M  V30 29 O -5.7781 3.3539 0.0 0
M  V30 30 N -3.3892 2.3301 0.0 0
M  V30 31 C 9.4969 -0.5178 0.0 0
M  V30 32 C 7.7787 -2.4713 0.0 0
M  V30 33 C 5.7075 4.8602 0.0 0
M  V30 34 C 2.789 4.2012 0.0 0
M  V30 35 C 3.9188 5.99 0.0 0
M  V30 36 C -2.8126 3.7187 0.0 0
M  V30 37 C 9.1909 -1.977 0.0 0
M  V30 38 C 10.9091 -0.0235 0.0 0
M  V30 39 N 10.3089 -2.9538 0.0 0
M  V30 40 C 12.0271 -1.0002 0.0 0
M  V30 41 C 11.7211 -2.4595 0.0 0
M  V30 END ATOM
M  V30 BEGIN BOND
M  V30 1 1 1 2
M  V30 2 2 2 3
M  V30 3 1 2 4
M  V30 4 1 3 5
M  V30 5 1 3 6
M  V30 6 2 4 7
M  V30 7 1 5 8
M  V30 8 2 6 9
M  V30 9 1 7 10
M  V30 10 2 8 11
M  V30 11 1 8 12
M  V30 12 1 10 13
M  V30 13 1 12 14
M  V30 14 2 13 15
M  V30 15 1 13 16
M  V30 16 1 14 17
M  V30 17 2 14 18
M  V30 18 1 15 19
M  V30 19 2 16 20
M  V30 20 1 17 21
M  V30 21 1 17 22
M  V30 22 1 18 23
M  V30 23 2 19 24
M  V30 24 1 19 25
M  V30 25 2 22 26
M  V30 26 1 22 27
M  V30 27 1 23 28
M  V30 28 2 25 29
M  V30 29 1 25 30
M  V30 30 1 26 31
M  V30 31 2 27 32
M  V30 32 1 28 33
M  V30 33 1 28 34
M  V30 34 1 28 35
M  V30 35 1 30 36
M  V30 36 1 31 37
M  V30 37 2 31 38
M  V30 38 2 37 39
M  V30 39 1 38 40
M  V30 40 1 39 41
M  V30 41 1 7 9
M  V30 42 1 20 24
M  V30 43 2 21 23
M  V30 44 1 32 37
M  V30 45 2 40 41
M  V30 END BOND
M  V30 END CTAB
M  END
>  <Compound ID>
216

>  <Name>
Rebastinib

>  <Uniprot>
P42680

>  <Target>
TEC

>  <Smiles>
CNC(=O)C1=CC(OC2=CC=C(NC(=O)NC3=CC(C(C)(C)C)=NN3C3=CC=C4N=CC=CC4=C3)C(F)=C2)=CC=N1

>  <Kd (nM)>
>30000

>  <Assay (Kd)>
Kd apparent of TEC

>  <Ki (nM)>


>  <Assay (Ki)>


>  <IC50 (nM)>


>  <Assay (IC50)>


>  <EC50 (nM)>


>  <Assay (EC50)>


>  <Article DOI>
10.1126/science.aan4368

>  <Molecular Weight>
553.598

>  <Exact Mass>
553.223765976

>  <XLogP3>
4.93

>  <Heavy Atom Count>
41

>  <Ring Count>
5

>  <Hydrogen Bond Acceptor Count>
7

>  <Hydrogen Bond Donor Count>
3

>  <Rotatable Bond Count>
6

>  <Topological Polar Surface Area>
123.06

>  <Molecular Formula>
C30H28FN7O3

>  <InChI>
InChI=1S/C30H28FN7O3/c1-30(2,3)26-17-27(38(37-26)19-7-9-23-18(14-19)6-5-12-33-23)36-29(40)35-24-10-8-20(15-22(24)31)41-21-11-13-34-25(16-21)28(39)32-4/h5-17H,1-4H3,(H,32,39)(H2,35,36,40)

>  <InChI Key>
WVXNSAVVKYZVOE-UHFFFAOYSA-N

>  <BindingDB>
185674

>  <PubChem>
25066467

>  <ChEMBL>
CHEMBL1738757

$$$$
Compound 728
Actelion Java MolfileCreator 2.0

  0  0  0  0  0  0              0 V3000
M  V30 BEGIN CTAB
M  V30 COUNTS 41 45 0 0 0
M  V30 BEGIN ATOM
M  V30 1 F 0.0 0.0 0.0 0
M  V30 2 C -0.6001 -1.3651 0.0 0
M  V30 3 C 0.2824 -2.5537 0.0 0
M  V30 4 C -2.1065 -1.5298 0.0 0
M  V30 5 N 1.7652 -2.3654 0.0 0
M  V30 6 C -0.3177 -3.9188 0.0 0
M  V30 7 C -2.7066 -2.8949 0.0 0
M  V30 8 C 2.3418 -0.9767 0.0 0
M  V30 9 C -1.824 -4.0835 0.0 0
M  V30 10 O -4.213 -3.0597 0.0 0
M  V30 11 O 1.4357 0.2353 0.0 0
M  V30 12 N 3.8246 -0.7884 0.0 0
M  V30 13 C -5.1191 -1.8476 0.0 0
M  V30 14 C 4.4013 0.6001 0.0 0
M  V30 15 C -4.5425 -0.4589 0.0 0
M  V30 16 C -6.6255 -2.0123 0.0 0
M  V30 17 N 5.8488 0.9414 0.0 0
M  V30 18 C 3.6246 1.9064 0.0 0
M  V30 19 C -5.4486 0.7531 0.0 0
M  V30 20 C -7.5316 -0.8002 0.0 0
M  V30 21 N 5.9782 2.4477 0.0 0
M  V30 22 C 6.9667 -0.0353 0.0 0
M  V30 23 C 4.6013 3.0479 0.0 0
M  V30 24 N -6.955 0.5884 0.0 0
M  V30 25 C -4.872 2.1418 0.0 0
M  V30 26 C 8.3789 0.4589 0.0 0
M  V30 27 C 6.6608 -1.4945 0.0 0
M  V30 28 C 4.26 4.5189 0.0 0
M  V30 29 O -5.7781 3.3539 0.0 0
M  V30 30 N -3.3892 2.3301 0.0 0
M  V30 31 C 9.4969 -0.5178 0.0 0
M  V30 32 C 7.7787 -2.4713 0.0 0
M  V30 33 C 5.7075 4.8602 0.0 0
M  V30 34 C 2.789 4.2012 0.0 0
M  V30 35 C 3.9188 5.99 0.0 0
M  V30 36 C -2.8126 3.7187 0.0 0
M  V30 37 C 9.1909 -1.977 0.0 0
M  V30 38 C 10.9091 -0.0235 0.0 0
M  V30 39 N 10.3089 -2.9538 0.0 0
M  V30 40 C 12.0271 -1.0002 0.0 0
M  V30 41 C 11.7211 -2.4595 0.0 0
M  V30 END ATOM
M  V30 BEGIN BOND
M  V30 1 1 1 2
M  V30 2 2 2 3
M  V30 3 1 2 4
M  V30 4 1 3 5
M  V30 5 1 3 6
M  V30 6 2 4 7
M  V30 7 1 5 8
M  V30 8 2 6 9
M  V30 9 1 7 10
M  V30 10 2 8 11
M  V30 11 1 8 12
M  V30 12 1 10 13
M  V30 13 1 12 14
M  V30 14 2 13 15
M  V30 15 1 13 16
M  V30 16 1 14 17
M  V30 17 2 14 18
M  V30 18 1 15 19
M  V30 19 2 16 20
M  V30 20 1 17 21
M  V30 21 1 17 22
M  V30 22 1 18 23
M  V30 23 2 19 24
M  V30 24 1 19 25
M  V30 25 2 22 26
M  V30 26 1 22 27
M  V30 27 1 23 28
M  V30 28 2 25 29
M  V30 29 1 25 30
M  V30 30 1 26 31
M  V30 31 2 27 32
M  V30 32 1 28 33
M  V30 33 1 28 34
M  V30 34 1 28 35
M  V30 35 1 30 36
M  V30 36 1 31 37
M  V30 37 2 31 38
M  V30 38 2 37 39
M  V30 39 1 38 40
M  V30 40 1 39 41
M  V30 41 1 7 9
M  V30 42 1 20 24
M  V30 43 2 21 23
M  V30 44 1 32 37
M  V30 45 2 40 41
M  V30 END BOND
M  V30 END CTAB
M  END
>  <Compound ID>
216

>  <Name>
Rebastinib

>  <Uniprot>
Q07912

>  <Target>
TNK2

>  <Smiles>
CNC(=O)C1=CC(OC2=CC=C(NC(=O)NC3=CC(C(C)(C)C)=NN3C3=CC=C4N=CC=CC4=C3)C(F)=C2)=CC=N1

>  <Kd (nM)>


>  <Assay (Kd)>


>  <Ki (nM)>


>  <Assay (Ki)>


>  <IC50 (nM)>


>  <Assay (IC50)>


>  <EC50 (nM)>


>  <Assay (EC50)>


>  <Article DOI>
10.1016/j.cell.2020.10.038

>  <Molecular Weight>
553.598

>  <Exact Mass>
553.223765976

>  <XLogP3>
4.93

>  <Heavy Atom Count>
41

>  <Ring Count>
5

>  <Hydrogen Bond Acceptor Count>
7

>  <Hydrogen Bond Donor Count>
3

>  <Rotatable Bond Count>
6

>  <Topological Polar Surface Area>
123.06

>  <Molecular Formula>
C30H28FN7O3

>  <InChI>
InChI=1S/C30H28FN7O3/c1-30(2,3)26-17-27(38(37-26)19-7-9-23-18(14-19)6-5-12-33-23)36-29(40)35-24-10-8-20(15-22(24)31)41-21-11-13-34-25(16-21)28(39)32-4/h5-17H,1-4H3,(H,32,39)(H2,35,36,40)

>  <InChI Key>
WVXNSAVVKYZVOE-UHFFFAOYSA-N

>  <BindingDB>
185674

>  <PubChem>
25066467

>  <ChEMBL>
CHEMBL1738757

$$$$
Compound 729
Actelion Java MolfileCreator 2.0

  0  0  0  0  0  0              0 V3000
M  V30 BEGIN CTAB
M  V30 COUNTS 41 45 0 0 0
M  V30 BEGIN ATOM
M  V30 1 F 0.0 0.0 0.0 0
M  V30 2 C -0.6001 -1.3651 0.0 0
M  V30 3 C 0.2824 -2.5537 0.0 0
M  V30 4 C -2.1065 -1.5298 0.0 0
M  V30 5 N 1.7652 -2.3654 0.0 0
M  V30 6 C -0.3177 -3.9188 0.0 0
M  V30 7 C -2.7066 -2.8949 0.0 0
M  V30 8 C 2.3418 -0.9767 0.0 0
M  V30 9 C -1.824 -4.0835 0.0 0
M  V30 10 O -4.213 -3.0597 0.0 0
M  V30 11 O 1.4357 0.2353 0.0 0
M  V30 12 N 3.8246 -0.7884 0.0 0
M  V30 13 C -5.1191 -1.8476 0.0 0
M  V30 14 C 4.4013 0.6001 0.0 0
M  V30 15 C -4.5425 -0.4589 0.0 0
M  V30 16 C -6.6255 -2.0123 0.0 0
M  V30 17 N 5.8488 0.9414 0.0 0
M  V30 18 C 3.6246 1.9064 0.0 0
M  V30 19 C -5.4486 0.7531 0.0 0
M  V30 20 C -7.5316 -0.8002 0.0 0
M  V30 21 N 5.9782 2.4477 0.0 0
M  V30 22 C 6.9667 -0.0353 0.0 0
M  V30 23 C 4.6013 3.0479 0.0 0
M  V30 24 N -6.955 0.5884 0.0 0
M  V30 25 C -4.872 2.1418 0.0 0
M  V30 26 C 8.3789 0.4589 0.0 0
M  V30 27 C 6.6608 -1.4945 0.0 0
M  V30 28 C 4.26 4.5189 0.0 0
M  V30 29 O -5.7781 3.3539 0.0 0
M  V30 30 N -3.3892 2.3301 0.0 0
M  V30 31 C 9.4969 -0.5178 0.0 0
M  V30 32 C 7.7787 -2.4713 0.0 0
M  V30 33 C 5.7075 4.8602 0.0 0
M  V30 34 C 2.789 4.2012 0.0 0
M  V30 35 C 3.9188 5.99 0.0 0
M  V30 36 C -2.8126 3.7187 0.0 0
M  V30 37 C 9.1909 -1.977 0.0 0
M  V30 38 C 10.9091 -0.0235 0.0 0
M  V30 39 N 10.3089 -2.9538 0.0 0
M  V30 40 C 12.0271 -1.0002 0.0 0
M  V30 41 C 11.7211 -2.4595 0.0 0
M  V30 END ATOM
M  V30 BEGIN BOND
M  V30 1 1 1 2
M  V30 2 2 2 3
M  V30 3 1 2 4
M  V30 4 1 3 5
M  V30 5 1 3 6
M  V30 6 2 4 7
M  V30 7 1 5 8
M  V30 8 2 6 9
M  V30 9 1 7 10
M  V30 10 2 8 11
M  V30 11 1 8 12
M  V30 12 1 10 13
M  V30 13 1 12 14
M  V30 14 2 13 15
M  V30 15 1 13 16
M  V30 16 1 14 17
M  V30 17 2 14 18
M  V30 18 1 15 19
M  V30 19 2 16 20
M  V30 20 1 17 21
M  V30 21 1 17 22
M  V30 22 1 18 23
M  V30 23 2 19 24
M  V30 24 1 19 25
M  V30 25 2 22 26
M  V30 26 1 22 27
M  V30 27 1 23 28
M  V30 28 2 25 29
M  V30 29 1 25 30
M  V30 30 1 26 31
M  V30 31 2 27 32
M  V30 32 1 28 33
M  V30 33 1 28 34
M  V30 34 1 28 35
M  V30 35 1 30 36
M  V30 36 1 31 37
M  V30 37 2 31 38
M  V30 38 2 37 39
M  V30 39 1 38 40
M  V30 40 1 39 41
M  V30 41 1 7 9
M  V30 42 1 20 24
M  V30 43 2 21 23
M  V30 44 1 32 37
M  V30 45 2 40 41
M  V30 END BOND
M  V30 END CTAB
M  END
>  <Compound ID>
216

>  <Name>
Rebastinib

>  <Uniprot>
O75385

>  <Target>
ULK1

>  <Smiles>
CNC(=O)C1=CC(OC2=CC=C(NC(=O)NC3=CC(C(C)(C)C)=NN3C3=CC=C4N=CC=CC4=C3)C(F)=C2)=CC=N1

>  <Kd (nM)>
>30000

>  <Assay (Kd)>
Kd apparent of ULK1

>  <Ki (nM)>


>  <Assay (Ki)>


>  <IC50 (nM)>


>  <Assay (IC50)>


>  <EC50 (nM)>


>  <Assay (EC50)>


>  <Article DOI>
10.1126/science.aan4368

>  <Molecular Weight>
553.598

>  <Exact Mass>
553.223765976

>  <XLogP3>
4.93

>  <Heavy Atom Count>
41

>  <Ring Count>
5

>  <Hydrogen Bond Acceptor Count>
7

>  <Hydrogen Bond Donor Count>
3

>  <Rotatable Bond Count>
6

>  <Topological Polar Surface Area>
123.06

>  <Molecular Formula>
C30H28FN7O3

>  <InChI>
InChI=1S/C30H28FN7O3/c1-30(2,3)26-17-27(38(37-26)19-7-9-23-18(14-19)6-5-12-33-23)36-29(40)35-24-10-8-20(15-22(24)31)41-21-11-13-34-25(16-21)28(39)32-4/h5-17H,1-4H3,(H,32,39)(H2,35,36,40)

>  <InChI Key>
WVXNSAVVKYZVOE-UHFFFAOYSA-N

>  <BindingDB>
185674

>  <PubChem>
25066467

>  <ChEMBL>
CHEMBL1738757

$$$$
Compound 730
Actelion Java MolfileCreator 2.0

  0  0  0  0  0  0              0 V3000
M  V30 BEGIN CTAB
M  V30 COUNTS 41 45 0 0 0
M  V30 BEGIN ATOM
M  V30 1 F 0.0 0.0 0.0 0
M  V30 2 C -0.6001 -1.3651 0.0 0
M  V30 3 C 0.2824 -2.5537 0.0 0
M  V30 4 C -2.1065 -1.5298 0.0 0
M  V30 5 N 1.7652 -2.3654 0.0 0
M  V30 6 C -0.3177 -3.9188 0.0 0
M  V30 7 C -2.7066 -2.8949 0.0 0
M  V30 8 C 2.3418 -0.9767 0.0 0
M  V30 9 C -1.824 -4.0835 0.0 0
M  V30 10 O -4.213 -3.0597 0.0 0
M  V30 11 O 1.4357 0.2353 0.0 0
M  V30 12 N 3.8246 -0.7884 0.0 0
M  V30 13 C -5.1191 -1.8476 0.0 0
M  V30 14 C 4.4013 0.6001 0.0 0
M  V30 15 C -4.5425 -0.4589 0.0 0
M  V30 16 C -6.6255 -2.0123 0.0 0
M  V30 17 N 5.8488 0.9414 0.0 0
M  V30 18 C 3.6246 1.9064 0.0 0
M  V30 19 C -5.4486 0.7531 0.0 0
M  V30 20 C -7.5316 -0.8002 0.0 0
M  V30 21 N 5.9782 2.4477 0.0 0
M  V30 22 C 6.9667 -0.0353 0.0 0
M  V30 23 C 4.6013 3.0479 0.0 0
M  V30 24 N -6.955 0.5884 0.0 0
M  V30 25 C -4.872 2.1418 0.0 0
M  V30 26 C 8.3789 0.4589 0.0 0
M  V30 27 C 6.6608 -1.4945 0.0 0
M  V30 28 C 4.26 4.5189 0.0 0
M  V30 29 O -5.7781 3.3539 0.0 0
M  V30 30 N -3.3892 2.3301 0.0 0
M  V30 31 C 9.4969 -0.5178 0.0 0
M  V30 32 C 7.7787 -2.4713 0.0 0
M  V30 33 C 5.7075 4.8602 0.0 0
M  V30 34 C 2.789 4.2012 0.0 0
M  V30 35 C 3.9188 5.99 0.0 0
M  V30 36 C -2.8126 3.7187 0.0 0
M  V30 37 C 9.1909 -1.977 0.0 0
M  V30 38 C 10.9091 -0.0235 0.0 0
M  V30 39 N 10.3089 -2.9538 0.0 0
M  V30 40 C 12.0271 -1.0002 0.0 0
M  V30 41 C 11.7211 -2.4595 0.0 0
M  V30 END ATOM
M  V30 BEGIN BOND
M  V30 1 1 1 2
M  V30 2 2 2 3
M  V30 3 1 2 4
M  V30 4 1 3 5
M  V30 5 1 3 6
M  V30 6 2 4 7
M  V30 7 1 5 8
M  V30 8 2 6 9
M  V30 9 1 7 10
M  V30 10 2 8 11
M  V30 11 1 8 12
M  V30 12 1 10 13
M  V30 13 1 12 14
M  V30 14 2 13 15
M  V30 15 1 13 16
M  V30 16 1 14 17
M  V30 17 2 14 18
M  V30 18 1 15 19
M  V30 19 2 16 20
M  V30 20 1 17 21
M  V30 21 1 17 22
M  V30 22 1 18 23
M  V30 23 2 19 24
M  V30 24 1 19 25
M  V30 25 2 22 26
M  V30 26 1 22 27
M  V30 27 1 23 28
M  V30 28 2 25 29
M  V30 29 1 25 30
M  V30 30 1 26 31
M  V30 31 2 27 32
M  V30 32 1 28 33
M  V30 33 1 28 34
M  V30 34 1 28 35
M  V30 35 1 30 36
M  V30 36 1 31 37
M  V30 37 2 31 38
M  V30 38 2 37 39
M  V30 39 1 38 40
M  V30 40 1 39 41
M  V30 41 1 7 9
M  V30 42 1 20 24
M  V30 43 2 21 23
M  V30 44 1 32 37
M  V30 45 2 40 41
M  V30 END BOND
M  V30 END CTAB
M  END
>  <Compound ID>
216

>  <Name>
Rebastinib

>  <Uniprot>
Q6PHR2

>  <Target>
ULK3

>  <Smiles>
CNC(=O)C1=CC(OC2=CC=C(NC(=O)NC3=CC(C(C)(C)C)=NN3C3=CC=C4N=CC=CC4=C3)C(F)=C2)=CC=N1

>  <Kd (nM)>
>30000

>  <Assay (Kd)>
Kd apparent of ULK3

>  <Ki (nM)>


>  <Assay (Ki)>


>  <IC50 (nM)>


>  <Assay (IC50)>


>  <EC50 (nM)>


>  <Assay (EC50)>


>  <Article DOI>
10.1126/science.aan4368

>  <Molecular Weight>
553.598

>  <Exact Mass>
553.223765976

>  <XLogP3>
4.93

>  <Heavy Atom Count>
41

>  <Ring Count>
5

>  <Hydrogen Bond Acceptor Count>
7

>  <Hydrogen Bond Donor Count>
3

>  <Rotatable Bond Count>
6

>  <Topological Polar Surface Area>
123.06

>  <Molecular Formula>
C30H28FN7O3

>  <InChI>
InChI=1S/C30H28FN7O3/c1-30(2,3)26-17-27(38(37-26)19-7-9-23-18(14-19)6-5-12-33-23)36-29(40)35-24-10-8-20(15-22(24)31)41-21-11-13-34-25(16-21)28(39)32-4/h5-17H,1-4H3,(H,32,39)(H2,35,36,40)

>  <InChI Key>
WVXNSAVVKYZVOE-UHFFFAOYSA-N

>  <BindingDB>
185674

>  <PubChem>
25066467

>  <ChEMBL>
CHEMBL1738757

$$$$
Compound 731
Actelion Java MolfileCreator 2.0

  0  0  0  0  0  0              0 V3000
M  V30 BEGIN CTAB
M  V30 COUNTS 41 45 0 0 0
M  V30 BEGIN ATOM
M  V30 1 F 0.0 0.0 0.0 0
M  V30 2 C -0.6001 -1.3651 0.0 0
M  V30 3 C 0.2824 -2.5537 0.0 0
M  V30 4 C -2.1065 -1.5298 0.0 0
M  V30 5 N 1.7652 -2.3654 0.0 0
M  V30 6 C -0.3177 -3.9188 0.0 0
M  V30 7 C -2.7066 -2.8949 0.0 0
M  V30 8 C 2.3418 -0.9767 0.0 0
M  V30 9 C -1.824 -4.0835 0.0 0
M  V30 10 O -4.213 -3.0597 0.0 0
M  V30 11 O 1.4357 0.2353 0.0 0
M  V30 12 N 3.8246 -0.7884 0.0 0
M  V30 13 C -5.1191 -1.8476 0.0 0
M  V30 14 C 4.4013 0.6001 0.0 0
M  V30 15 C -4.5425 -0.4589 0.0 0
M  V30 16 C -6.6255 -2.0123 0.0 0
M  V30 17 N 5.8488 0.9414 0.0 0
M  V30 18 C 3.6246 1.9064 0.0 0
M  V30 19 C -5.4486 0.7531 0.0 0
M  V30 20 C -7.5316 -0.8002 0.0 0
M  V30 21 N 5.9782 2.4477 0.0 0
M  V30 22 C 6.9667 -0.0353 0.0 0
M  V30 23 C 4.6013 3.0479 0.0 0
M  V30 24 N -6.955 0.5884 0.0 0
M  V30 25 C -4.872 2.1418 0.0 0
M  V30 26 C 8.3789 0.4589 0.0 0
M  V30 27 C 6.6608 -1.4945 0.0 0
M  V30 28 C 4.26 4.5189 0.0 0
M  V30 29 O -5.7781 3.3539 0.0 0
M  V30 30 N -3.3892 2.3301 0.0 0
M  V30 31 C 9.4969 -0.5178 0.0 0
M  V30 32 C 7.7787 -2.4713 0.0 0
M  V30 33 C 5.7075 4.8602 0.0 0
M  V30 34 C 2.789 4.2012 0.0 0
M  V30 35 C 3.9188 5.99 0.0 0
M  V30 36 C -2.8126 3.7187 0.0 0
M  V30 37 C 9.1909 -1.977 0.0 0
M  V30 38 C 10.9091 -0.0235 0.0 0
M  V30 39 N 10.3089 -2.9538 0.0 0
M  V30 40 C 12.0271 -1.0002 0.0 0
M  V30 41 C 11.7211 -2.4595 0.0 0
M  V30 END ATOM
M  V30 BEGIN BOND
M  V30 1 1 1 2
M  V30 2 2 2 3
M  V30 3 1 2 4
M  V30 4 1 3 5
M  V30 5 1 3 6
M  V30 6 2 4 7
M  V30 7 1 5 8
M  V30 8 2 6 9
M  V30 9 1 7 10
M  V30 10 2 8 11
M  V30 11 1 8 12
M  V30 12 1 10 13
M  V30 13 1 12 14
M  V30 14 2 13 15
M  V30 15 1 13 16
M  V30 16 1 14 17
M  V30 17 2 14 18
M  V30 18 1 15 19
M  V30 19 2 16 20
M  V30 20 1 17 21
M  V30 21 1 17 22
M  V30 22 1 18 23
M  V30 23 2 19 24
M  V30 24 1 19 25
M  V30 25 2 22 26
M  V30 26 1 22 27
M  V30 27 1 23 28
M  V30 28 2 25 29
M  V30 29 1 25 30
M  V30 30 1 26 31
M  V30 31 2 27 32
M  V30 32 1 28 33
M  V30 33 1 28 34
M  V30 34 1 28 35
M  V30 35 1 30 36
M  V30 36 1 31 37
M  V30 37 2 31 38
M  V30 38 2 37 39
M  V30 39 1 38 40
M  V30 40 1 39 41
M  V30 41 1 7 9
M  V30 42 1 20 24
M  V30 43 2 21 23
M  V30 44 1 32 37
M  V30 45 2 40 41
M  V30 END BOND
M  V30 END CTAB
M  END
>  <Compound ID>
216

>  <Name>
Rebastinib

>  <Uniprot>
P30291

>  <Target>
Wee1

>  <Smiles>
CNC(=O)C1=CC(OC2=CC=C(NC(=O)NC3=CC(C(C)(C)C)=NN3C3=CC=C4N=CC=CC4=C3)C(F)=C2)=CC=N1

>  <Kd (nM)>
>30000

>  <Assay (Kd)>
Kd apparent of Wee1

>  <Ki (nM)>


>  <Assay (Ki)>


>  <IC50 (nM)>


>  <Assay (IC50)>


>  <EC50 (nM)>


>  <Assay (EC50)>


>  <Article DOI>
10.1126/science.aan4368

>  <Molecular Weight>
553.598

>  <Exact Mass>
553.223765976

>  <XLogP3>
4.93

>  <Heavy Atom Count>
41

>  <Ring Count>
5

>  <Hydrogen Bond Acceptor Count>
7

>  <Hydrogen Bond Donor Count>
3

>  <Rotatable Bond Count>
6

>  <Topological Polar Surface Area>
123.06

>  <Molecular Formula>
C30H28FN7O3

>  <InChI>
InChI=1S/C30H28FN7O3/c1-30(2,3)26-17-27(38(37-26)19-7-9-23-18(14-19)6-5-12-33-23)36-29(40)35-24-10-8-20(15-22(24)31)41-21-11-13-34-25(16-21)28(39)32-4/h5-17H,1-4H3,(H,32,39)(H2,35,36,40)

>  <InChI Key>
WVXNSAVVKYZVOE-UHFFFAOYSA-N

>  <BindingDB>
185674

>  <PubChem>
25066467

>  <ChEMBL>
CHEMBL1738757

$$$$
Compound 732
Actelion Java MolfileCreator 2.0

  0  0  0  0  0  0              0 V3000
M  V30 BEGIN CTAB
M  V30 COUNTS 28 31 0 0 0
M  V30 BEGIN ATOM
M  V30 1 O 0.0 0.0 0.0 0
M  V30 2 C 0.6258 1.3697 0.0 0
M  V30 3 N 2.1136 1.5114 0.0 0
M  V30 4 C -0.2479 2.6213 0.0 0
M  V30 5 C 2.7394 2.8811 0.0 0
M  V30 6 C 2.9637 0.2833 0.0 0
M  V30 7 C 4.2272 3.0228 0.0 0
M  V30 8 C 4.4515 0.425 0.0 0
M  V30 9 N 5.0773 1.7947 0.0 0
M  V30 10 C 6.5651 1.9364 0.0 0 CFG=1
M  V30 11 C 7.4153 0.7084 0.0 0
M  V30 12 C 7.1909 3.3061 0.0 0
M  V30 13 C 8.9031 0.8501 0.0 0
M  V30 14 C 8.6787 3.4478 0.0 0
M  V30 15 C 9.5289 2.2198 0.0 0 CFG=2
M  V30 16 N 11.0167 2.3615 0.0 0
M  V30 17 C 11.8668 1.1335 0.0 0
M  V30 18 N 11.2174 -0.2125 0.0 0
M  V30 19 C 13.3546 1.2752 0.0 0
M  V30 20 C 12.0676 -1.4405 0.0 0
M  V30 21 N 14.2048 0.0472 0.0 0
M  V30 22 C 14.252 2.4914 0.0 0
M  V30 23 N 13.5553 -1.2988 0.0 0
M  V30 24 C 15.6335 0.4959 0.0 0
M  V30 25 C 15.6571 2.0073 0.0 0
M  V30 26 C 13.8033 3.9438 0.0 0
M  V30 27 C 14.8188 5.0537 0.0 0
M  V30 28 C 12.3273 4.298 0.0 0
M  V30 END ATOM
M  V30 BEGIN BOND
M  V30 1 2 1 2
M  V30 2 1 2 3
M  V30 3 1 2 4
M  V30 4 1 3 5
M  V30 5 1 3 6
M  V30 6 1 5 7
M  V30 7 1 6 8
M  V30 8 1 7 9
M  V30 9 1 10 9 CFG=3
M  V30 10 1 10 11
M  V30 11 1 10 12
M  V30 12 1 11 13
M  V30 13 1 12 14
M  V30 14 1 13 15
M  V30 15 1 15 16 CFG=3
M  V30 16 1 16 17
M  V30 17 2 17 18
M  V30 18 1 17 19
M  V30 19 1 18 20
M  V30 20 1 19 21
M  V30 21 2 19 22
M  V30 22 2 20 23
M  V30 23 1 21 24
M  V30 24 1 22 25
M  V30 25 1 22 26
M  V30 26 1 26 27
M  V30 27 1 26 28
M  V30 28 1 8 9
M  V30 29 1 14 15
M  V30 30 1 21 23
M  V30 31 2 24 25
M  V30 END BOND
M  V30 BEGIN COLLECTION
M  V30 MDLV30/STEABS ATOMS=(2 10 15)
M  V30 END COLLECTION
M  V30 END CTAB
M  END
>  <Compound ID>
217

>  <Name>


>  <Uniprot>
Q9Y616

>  <Target>
IRAK3

>  <Smiles>
CC(=O)N1CCN([C@H]2CC[C@@H](NC3=NC=NN4C=CC(C(C)C)=C34)CC2)CC1

>  <Kd (nM)>


>  <Assay (Kd)>


>  <Ki (nM)>


>  <Assay (Ki)>


>  <IC50 (nM)>
6

>  <Assay (IC50)>
LanthaScreen Eu IRAK3 binding displacement assay using an Alexa Fluor conjugate

>  <EC50 (nM)>


>  <Assay (EC50)>


>  <Article DOI>
10.1021/acs.jmedchem.0c01125

>  <Molecular Weight>
384.528

>  <Exact Mass>
384.263759644

>  <XLogP3>
2.5

>  <Heavy Atom Count>
28

>  <Ring Count>
4

>  <Hydrogen Bond Acceptor Count>
6

>  <Hydrogen Bond Donor Count>
1

>  <Rotatable Bond Count>
4

>  <Topological Polar Surface Area>
65.77

>  <Molecular Formula>
C21H32N6O

>  <InChI>
InChI=1S/C21H32N6O/c1-15(2)19-8-9-27-20(19)21(22-14-23-27)24-17-4-6-18(7-5-17)26-12-10-25(11-13-26)16(3)28/h8-9,14-15,17-18H,4-7,10-13H2,1-3H3,(H,22,23,24)/t17-,18+

>  <InChI Key>
FQBRQRVXPUQKLG-HDICACEKSA-N

>  <BindingDB>
50466824

>  <PubChem>
145979845

>  <ChEMBL>
CHEMBL4278882

$$$$
Compound 733
Actelion Java MolfileCreator 2.0

  0  0  0  0  0  0              0 V3000
M  V30 BEGIN CTAB
M  V30 COUNTS 29 32 0 0 0
M  V30 BEGIN ATOM
M  V30 1 O 0.0 0.0 0.0 0
M  V30 2 C 0.5038 1.4177 0.0 0
M  V30 3 N 1.9684 1.6872 0.0 0
M  V30 4 N -0.4686 2.5894 0.0 0
M  V30 5 C 2.9174 0.5389 0.0 0
M  V30 6 C -1.9567 2.3433 0.0 0
M  V30 7 C 4.3821 0.8084 0.0 0
M  V30 8 C 2.3902 -0.8553 0.0 0
M  V30 9 C -2.4839 0.949 0.0 0
M  V30 10 C -2.9292 3.515 0.0 0
M  V30 11 C 5.3311 -0.3397 0.0 0
M  V30 12 C 3.3393 -2.0035 0.0 0
M  V30 13 C -3.972 0.703 0.0 0
M  V30 14 C -4.4172 3.269 0.0 0
M  V30 15 C 6.7957 -0.0703 0.0 0
M  V30 16 C 4.8039 -1.734 0.0 0
M  V30 17 C -4.9445 1.8746 0.0 0
M  V30 18 C -4.4992 -0.6912 0.0 0
M  V30 19 C 7.2996 1.3474 0.0 0
M  V30 20 C 7.7448 -1.2185 0.0 0
M  V30 21 C -5.9873 -0.9373 0.0 0
M  V30 22 C -3.5502 -1.8395 0.0 0
M  V30 23 C 6.5848 2.6948 0.0 0
M  V30 24 C 8.7642 1.6169 0.0 0
M  V30 25 C 9.2094 -0.949 0.0 0
M  V30 26 N 7.6159 3.7845 0.0 0
M  V30 27 N 5.0851 2.9174 0.0 0
M  V30 28 N 8.9633 3.1166 0.0 0
M  V30 29 C 9.7132 0.4686 0.0 0
M  V30 END ATOM
M  V30 BEGIN BOND
M  V30 1 2 1 2
M  V30 2 1 2 3
M  V30 3 1 2 4
M  V30 4 1 3 5
M  V30 5 1 4 6
M  V30 6 2 5 7
M  V30 7 1 5 8
M  V30 8 2 6 9
M  V30 9 1 6 10
M  V30 10 1 7 11
M  V30 11 2 8 12
M  V30 12 1 9 13
M  V30 13 2 10 14
M  V30 14 1 11 15
M  V30 15 2 11 16
M  V30 16 2 13 17
M  V30 17 1 13 18
M  V30 18 2 15 19
M  V30 19 1 15 20
M  V30 20 1 18 21
M  V30 21 1 18 22
M  V30 22 1 19 23
M  V30 23 1 19 24
M  V30 24 2 20 25
M  V30 25 2 23 26
M  V30 26 1 23 27
M  V30 27 1 24 28
M  V30 28 2 24 29
M  V30 29 1 12 16
M  V30 30 1 14 17
M  V30 31 1 25 29
M  V30 32 1 26 28
M  V30 END BOND
M  V30 END CTAB
M  END
>  <Compound ID>
218

>  <Name>


>  <Uniprot>
P35968

>  <Target>
VEGFR-2

>  <Smiles>
CC(C)C1=CC=CC(NC(=O)NC2=CC=CC(C3=CC=CC4=C3C(N)=N[NH]4)=C2)=C1

>  <Kd (nM)>


>  <Assay (Kd)>


>  <Ki (nM)>


>  <Assay (Ki)>


>  <IC50 (nM)>
6.86

>  <Assay (IC50)>
IC50 was assessed by ADP-Glo Kinase Assay Kit

>  <EC50 (nM)>


>  <Assay (EC50)>


>  <Article DOI>
10.1016/j.ejmech.2020.112654

>  <Molecular Weight>
385.471

>  <Exact Mass>
385.190260356

>  <XLogP3>
4.52

>  <Heavy Atom Count>
29

>  <Ring Count>
4

>  <Hydrogen Bond Acceptor Count>
3

>  <Hydrogen Bond Donor Count>
4

>  <Rotatable Bond Count>
4

>  <Topological Polar Surface Area>
95.83

>  <Molecular Formula>
C23H23N5O

>  <InChI>
InChI=1S/C23H23N5O/c1-14(2)15-6-3-8-17(12-15)25-23(29)26-18-9-4-7-16(13-18)19-10-5-11-20-21(19)22(24)28-27-20/h3-14H,1-2H3,(H3,24,27,28)(H2,25,26,29)

>  <InChI Key>
PNJKZZZAABVQNH-UHFFFAOYSA-N

>  <BindingDB>
50130336

>  <PubChem>
122195165

>  <ChEMBL>
CHEMBL3633296

$$$$
Compound 734
Actelion Java MolfileCreator 2.0

  0  0  0  0  0  0              0 V3000
M  V30 BEGIN CTAB
M  V30 COUNTS 39 43 0 0 0
M  V30 BEGIN ATOM
M  V30 1 O 0.0 0.0 0.0 0
M  V30 2 C -1.4902 -0.272 0.0 0
M  V30 3 N -1.9869 -1.6794 0.0 0
M  V30 4 C -2.4837 0.8752 0.0 0
M  V30 5 C -3.4772 -1.9514 0.0 0
M  V30 6 C -3.9739 0.6031 0.0 0
M  V30 7 C -2.0106 2.3063 0.0 0
M  V30 8 C -4.4707 -0.8042 0.0 0
M  V30 9 C -3.9739 -3.3589 0.0 0
M  V30 10 C -4.9674 1.7504 0.0 0
M  V30 11 N -0.544 2.6019 0.0 0
M  V30 12 C -0.0709 4.033 0.0 0
M  V30 13 O -1.0644 5.1803 0.0 0
M  V30 14 C 1.3956 4.3287 0.0 0
M  V30 15 C 1.8687 5.7598 0.0 0
M  V30 16 C 2.3654 3.2051 0.0 0
M  V30 17 C 3.3352 6.0555 0.0 0
M  V30 18 C 1.1235 7.0845 0.0 0
M  V30 19 C 3.832 3.5008 0.0 0
M  V30 20 N 3.5126 7.5576 0.0 0
M  V30 21 C 4.3051 4.9319 0.0 0
M  V30 22 C 2.1407 8.1962 0.0 0
M  V30 23 C -0.3784 7.2855 0.0 0
M  V30 24 C 4.8018 2.3772 0.0 0
M  V30 25 C 4.8136 8.3027 0.0 0 CFG=2
M  V30 26 C 6.2684 2.6729 0.0 0
M  V30 27 C 4.3051 0.9698 0.0 0
M  V30 28 C 6.091 7.5457 0.0 0
M  V30 29 C 4.8255 9.8166 0.0 0
M  V30 30 N 7.2382 1.5493 0.0 0
M  V30 31 C 5.2749 -0.1537 0.0 0
M  V30 32 C 7.392 8.2909 0.0 0
M  V30 33 C 6.7415 0.1419 0.0 0
M  V30 34 N 7.7113 -0.9816 0.0 0
M  V30 35 C 7.2146 -2.3891 0.0 0
M  V30 36 C 9.1779 -0.6859 0.0 0
M  V30 37 C 8.1844 -3.5126 0.0 0
M  V30 38 C 10.1477 -1.8095 0.0 0
M  V30 39 N 9.651 -3.217 0.0 0
M  V30 END ATOM
M  V30 BEGIN BOND
M  V30 1 2 1 2
M  V30 2 1 2 3
M  V30 3 1 2 4
M  V30 4 1 3 5
M  V30 5 2 4 6
M  V30 6 1 4 7
M  V30 7 2 5 8
M  V30 8 1 5 9
M  V30 9 1 6 10
M  V30 10 1 7 11
M  V30 11 1 11 12
M  V30 12 2 12 13
M  V30 13 1 12 14
M  V30 14 2 14 15
M  V30 15 1 14 16
M  V30 16 1 15 17
M  V30 17 1 15 18
M  V30 18 2 16 19
M  V30 19 1 17 20
M  V30 20 2 17 21
M  V30 21 2 18 22
M  V30 22 1 18 23
M  V30 23 1 19 24
M  V30 24 1 25 20 CFG=1
M  V30 25 2 24 26
M  V30 26 1 24 27
M  V30 27 1 25 28
M  V30 28 1 25 29
M  V30 29 1 26 30
M  V30 30 2 27 31
M  V30 31 1 28 32
M  V30 32 2 30 33
M  V30 33 1 33 34
M  V30 34 1 34 35
M  V30 35 1 34 36
M  V30 36 1 35 37
M  V30 37 1 36 38
M  V30 38 1 37 39
M  V30 39 1 6 8
M  V30 40 1 19 21
M  V30 41 1 20 22
M  V30 42 1 31 33
M  V30 43 1 38 39
M  V30 END BOND
M  V30 BEGIN COLLECTION
M  V30 MDLV30/STEABS ATOMS=(1 25)
M  V30 END COLLECTION
M  V30 END CTAB
M  END
>  <Compound ID>
219

>  <Name>
GSK126

>  <Uniprot>
Q15910

>  <Target>
EZH2

>  <Smiles>
CC[C@H](C)N1C=C(C)C2=C(C(=O)NCC3=C(C)C=C(C)[NH]C3=O)C=C(C3=CC=C(N4CCNCC4)N=C3)C=C21

>  <Kd (nM)>


>  <Assay (Kd)>


>  <Ki (nM)>


>  <Assay (Ki)>


>  <IC50 (nM)>
2.7

>  <Assay (IC50)>
IC50 was assessed by an Alpha-Screen assay

>  <EC50 (nM)>


>  <Assay (EC50)>


>  <Article DOI>
10.1021/acs.jmedchem.0c02234

>  <Molecular Weight>
526.685

>  <Exact Mass>
526.305624456

>  <XLogP3>
3.86

>  <Heavy Atom Count>
39

>  <Ring Count>
5

>  <Hydrogen Bond Acceptor Count>
6

>  <Hydrogen Bond Donor Count>
3

>  <Rotatable Bond Count>
7

>  <Topological Polar Surface Area>
95.05

>  <Molecular Formula>
C31H38N6O2

>  <InChI>
InChI=1S/C31H38N6O2/c1-6-22(5)37-18-20(3)29-25(30(38)34-17-26-19(2)13-21(4)35-31(26)39)14-24(15-27(29)37)23-7-8-28(33-16-23)36-11-9-32-10-12-36/h7-8,13-16,18,22,32H,6,9-12,17H2,1-5H3,(H,34,38)(H,35,39)/t22-/m0/s1

>  <InChI Key>
FKSFKBQGSFSOSM-QFIPXVFZSA-N

>  <BindingDB>
50017293

>  <PubChem>
68210102

>  <ChEMBL>
CHEMBL3287735

$$$$
Compound 735
Actelion Java MolfileCreator 2.0

  0  0  0  0  0  0              0 V3000
M  V30 BEGIN CTAB
M  V30 COUNTS 23 25 0 0 0
M  V30 BEGIN ATOM
M  V30 1 Cl 0.0 0.0 0.0 0
M  V30 2 C -0.6606 1.3684 0.0 0
M  V30 3 C -2.1706 1.4982 0.0 0
M  V30 4 C 0.1769 2.6189 0.0 0
M  V30 5 Cl -3.0318 0.2713 0.0 0
M  V30 6 C -2.8312 2.8666 0.0 0
M  V30 7 C 1.6633 2.5127 0.0 0
M  V30 8 C -0.4836 3.9873 0.0 0
M  V30 9 C -1.9936 4.1171 0.0 0
M  V30 10 N 2.5009 3.7632 0.0 0
M  V30 11 C 2.3004 1.1679 0.0 0
M  V30 12 C 3.9873 3.657 0.0 0
M  V30 13 N 3.7868 1.0617 0.0 0
M  V30 14 N 1.4392 -0.0589 0.0 0
M  V30 15 C 4.6244 2.3122 0.0 0
M  V30 16 N 6.1108 2.206 0.0 0
M  V30 17 C 6.7478 0.8611 0.0 0
M  V30 18 C 6.9484 3.4565 0.0 0
M  V30 19 C 8.2343 0.755 0.0 0
M  V30 20 C 8.4348 3.3503 0.0 0
M  V30 21 C 9.0719 2.0054 0.0 0
M  V30 22 N 10.1336 0.9673 0.0 0
M  V30 23 C 10.2869 2.8902 0.0 0
M  V30 END ATOM
M  V30 BEGIN BOND
M  V30 1 1 1 2
M  V30 2 2 2 3
M  V30 3 1 2 4
M  V30 4 1 3 5
M  V30 5 1 3 6
M  V30 6 1 4 7
M  V30 7 2 4 8
M  V30 8 2 6 9
M  V30 9 2 7 10
M  V30 10 1 7 11
M  V30 11 1 10 12
M  V30 12 2 11 13
M  V30 13 1 11 14
M  V30 14 2 12 15
M  V30 15 1 15 16
M  V30 16 1 16 17
M  V30 17 1 16 18
M  V30 18 1 17 19
M  V30 19 1 18 20
M  V30 20 1 19 21
M  V30 21 1 21 22
M  V30 22 1 21 23
M  V30 23 1 8 9
M  V30 24 1 13 15
M  V30 25 1 20 21
M  V30 END BOND
M  V30 END CTAB
M  END
>  <Compound ID>
220

>  <Name>
SHP099

>  <Uniprot>
Q06124

>  <Target>
SHP2

>  <Smiles>
CC1(N)CCN(C2=CN=C(C3=CC=CC(Cl)=C3Cl)C(N)=N2)CC1

>  <Kd (nM)>


>  <Assay (Kd)>


>  <Ki (nM)>


>  <Assay (Ki)>


>  <IC50 (nM)>
82

>  <Assay (IC50)>
Inhibition of SHP2

>  <EC50 (nM)>


>  <Assay (EC50)>


>  <Article DOI>
10.1016/j.bioorg.2021.104788

>  <Molecular Weight>
352.269

>  <Exact Mass>
351.101750968

>  <XLogP3>
2.61

>  <Heavy Atom Count>
23

>  <Ring Count>
3

>  <Hydrogen Bond Acceptor Count>
5

>  <Hydrogen Bond Donor Count>
2

>  <Rotatable Bond Count>
2

>  <Topological Polar Surface Area>
81.06

>  <Molecular Formula>
C16H19Cl2N5

>  <InChI>
InChI=1S/C16H19Cl2N5/c1-16(20)5-7-23(8-6-16)12-9-21-14(15(19)22-12)10-3-2-4-11(17)13(10)18/h2-4,9H,5-8,20H2,1H3,(H2,19,22)

>  <InChI Key>
YGUFCDOEKKVKJK-UHFFFAOYSA-N

>  <BindingDB>
38019

>  <PubChem>
118238298

>  <ChEMBL>
CHEMBL4060033

$$$$
Compound 736
Actelion Java MolfileCreator 2.0

  0  0  0  0  0  0              0 V3000
M  V30 BEGIN CTAB
M  V30 COUNTS 24 26 0 0 0
M  V30 BEGIN ATOM
M  V30 1 N 0.0 0.0 0.0 0
M  V30 2 C -0.7528 1.3057 0.0 0
M  V30 3 C -1.5056 2.6114 0.0 0
M  V30 4 C -3.0113 2.6231 0.0 0
M  V30 5 C -3.7759 1.3409 0.0 0
M  V30 6 C -3.7642 3.9288 0.0 0
M  V30 7 C -5.2816 1.3527 0.0 0
M  V30 8 C -5.2698 3.9406 0.0 0
M  V30 9 C -6.0344 2.6584 0.0 0
M  V30 10 N -7.5401 2.6702 0.0 0
M  V30 11 C -8.3047 1.388 0.0 0
M  V30 12 N -9.8104 1.3998 0.0 0
M  V30 13 N -7.5754 0.1058 0.0 0
M  V30 14 C -10.575 0.1176 0.0 0
M  V30 15 C -8.34 -1.1763 0.0 0
M  V30 16 N -12.0807 0.1293 0.0 0
M  V30 17 C -9.8457 -1.1645 0.0 0
M  V30 18 C -12.8336 1.4351 0.0 0
M  V30 19 N -12.2336 2.8113 0.0 0
M  V30 20 C -14.3275 1.6115 0.0 0
M  V30 21 N -13.3511 3.823 0.0 0
M  V30 22 C -14.6451 3.0819 0.0 0
M  V30 23 C -15.3391 0.5175 0.0 0
M  V30 24 C -16.0214 3.7053 0.0 0
M  V30 END ATOM
M  V30 BEGIN BOND
M  V30 1 3 1 2
M  V30 2 1 2 3
M  V30 3 1 3 4
M  V30 4 2 4 5
M  V30 5 1 4 6
M  V30 6 1 5 7
M  V30 7 2 6 8
M  V30 8 2 7 9
M  V30 9 1 9 10
M  V30 10 1 10 11
M  V30 11 2 11 12
M  V30 12 1 11 13
M  V30 13 1 12 14
M  V30 14 2 13 15
M  V30 15 1 14 16
M  V30 16 2 14 17
M  V30 17 1 16 18
M  V30 18 2 18 19
M  V30 19 1 18 20
M  V30 20 1 19 21
M  V30 21 2 20 22
M  V30 22 1 20 23
M  V30 23 1 22 24
M  V30 24 1 8 9
M  V30 25 1 15 17
M  V30 26 1 21 22
M  V30 END BOND
M  V30 END CTAB
M  END
>  <Compound ID>
221

>  <Name>


>  <Uniprot>
P49840

>  <Target>
GSK3A

>  <Smiles>
CC1=C(C)C(NC2=CC=NC(NC3=CC=C(CC#N)C=C3)=N2)=N[NH]1

>  <Kd (nM)>


>  <Assay (Kd)>


>  <Ki (nM)>


>  <Assay (Ki)>


>  <IC50 (nM)>


>  <Assay (IC50)>


>  <EC50 (nM)>


>  <Assay (EC50)>


>  <Article DOI>
10.1016/j.cell.2020.10.038

>  <Molecular Weight>
319.372

>  <Exact Mass>
319.154543544

>  <XLogP3>
3.0

>  <Heavy Atom Count>
24

>  <Ring Count>
3

>  <Hydrogen Bond Acceptor Count>
6

>  <Hydrogen Bond Donor Count>
3

>  <Rotatable Bond Count>
5

>  <Topological Polar Surface Area>
102.31

>  <Molecular Formula>
C17H17N7

>  <InChI>
InChI=1S/C17H17N7/c1-11-12(2)23-24-16(11)21-15-8-10-19-17(22-15)20-14-5-3-13(4-6-14)7-9-18/h3-6,8,10H,7H2,1-2H3,(H3,19,20,21,22,23,24)

>  <InChI Key>
QZALFSCNUOYHAP-UHFFFAOYSA-N

>  <BindingDB>


>  <PubChem>


>  <ChEMBL>


$$$$
Compound 737
Actelion Java MolfileCreator 2.0

  0  0  0  0  0  0              0 V3000
M  V30 BEGIN CTAB
M  V30 COUNTS 24 26 0 0 0
M  V30 BEGIN ATOM
M  V30 1 N 0.0 0.0 0.0 0
M  V30 2 C -0.7528 1.3057 0.0 0
M  V30 3 C -1.5056 2.6114 0.0 0
M  V30 4 C -3.0113 2.6231 0.0 0
M  V30 5 C -3.7759 1.3409 0.0 0
M  V30 6 C -3.7642 3.9288 0.0 0
M  V30 7 C -5.2816 1.3527 0.0 0
M  V30 8 C -5.2698 3.9406 0.0 0
M  V30 9 C -6.0344 2.6584 0.0 0
M  V30 10 N -7.5401 2.6702 0.0 0
M  V30 11 C -8.3047 1.388 0.0 0
M  V30 12 N -9.8104 1.3998 0.0 0
M  V30 13 N -7.5754 0.1058 0.0 0
M  V30 14 C -10.575 0.1176 0.0 0
M  V30 15 C -8.34 -1.1763 0.0 0
M  V30 16 N -12.0807 0.1293 0.0 0
M  V30 17 C -9.8457 -1.1645 0.0 0
M  V30 18 C -12.8336 1.4351 0.0 0
M  V30 19 N -12.2336 2.8113 0.0 0
M  V30 20 C -14.3275 1.6115 0.0 0
M  V30 21 N -13.3511 3.823 0.0 0
M  V30 22 C -14.6451 3.0819 0.0 0
M  V30 23 C -15.3391 0.5175 0.0 0
M  V30 24 C -16.0214 3.7053 0.0 0
M  V30 END ATOM
M  V30 BEGIN BOND
M  V30 1 3 1 2
M  V30 2 1 2 3
M  V30 3 1 3 4
M  V30 4 2 4 5
M  V30 5 1 4 6
M  V30 6 1 5 7
M  V30 7 2 6 8
M  V30 8 2 7 9
M  V30 9 1 9 10
M  V30 10 1 10 11
M  V30 11 2 11 12
M  V30 12 1 11 13
M  V30 13 1 12 14
M  V30 14 2 13 15
M  V30 15 1 14 16
M  V30 16 2 14 17
M  V30 17 1 16 18
M  V30 18 2 18 19
M  V30 19 1 18 20
M  V30 20 1 19 21
M  V30 21 2 20 22
M  V30 22 1 20 23
M  V30 23 1 22 24
M  V30 24 1 8 9
M  V30 25 1 15 17
M  V30 26 1 21 22
M  V30 END BOND
M  V30 END CTAB
M  END
>  <Compound ID>
221

>  <Name>


>  <Uniprot>
P49841

>  <Target>
GSK-3beta

>  <Smiles>
CC1=C(C)C(NC2=CC=NC(NC3=CC=C(CC#N)C=C3)=N2)=N[NH]1

>  <Kd (nM)>


>  <Assay (Kd)>


>  <Ki (nM)>


>  <Assay (Ki)>


>  <IC50 (nM)>


>  <Assay (IC50)>


>  <EC50 (nM)>


>  <Assay (EC50)>


>  <Article DOI>
10.1016/j.cell.2020.10.038

>  <Molecular Weight>
319.372

>  <Exact Mass>
319.154543544

>  <XLogP3>
3.0

>  <Heavy Atom Count>
24

>  <Ring Count>
3

>  <Hydrogen Bond Acceptor Count>
6

>  <Hydrogen Bond Donor Count>
3

>  <Rotatable Bond Count>
5

>  <Topological Polar Surface Area>
102.31

>  <Molecular Formula>
C17H17N7

>  <InChI>
InChI=1S/C17H17N7/c1-11-12(2)23-24-16(11)21-15-8-10-19-17(22-15)20-14-5-3-13(4-6-14)7-9-18/h3-6,8,10H,7H2,1-2H3,(H3,19,20,21,22,23,24)

>  <InChI Key>
QZALFSCNUOYHAP-UHFFFAOYSA-N

>  <BindingDB>


>  <PubChem>


>  <ChEMBL>


$$$$
Compound 738
Actelion Java MolfileCreator 2.0

  0  0  0  0  0  0              0 V3000
M  V30 BEGIN CTAB
M  V30 COUNTS 40 44 0 0 0
M  V30 BEGIN ATOM
M  V30 1 F 0.0 0.0 0.0 0
M  V30 2 C -1.3409 -0.6587 0.0 0
M  V30 3 F -0.6822 -1.9761 0.0 0
M  V30 4 F -2.0232 0.6822 0.0 0
M  V30 5 C -2.6819 -1.3174 0.0 0
M  V30 6 C -3.9405 -0.4822 0.0 0
M  V30 7 C -2.776 -2.7995 0.0 0
M  V30 8 C -5.2815 -1.1409 0.0 0
M  V30 9 C -4.117 -3.4582 0.0 0
M  V30 10 C -6.5401 -0.3058 0.0 0
M  V30 11 C -5.3756 -2.6231 0.0 0
M  V30 12 O -7.8811 -0.9645 0.0 0
M  V30 13 N -6.4695 1.1998 0.0 0
M  V30 14 C -7.7282 2.0349 0.0 0
M  V30 15 C -9.0691 1.3762 0.0 0
M  V30 16 C -7.6576 3.5406 0.0 0
M  V30 17 C -10.3278 2.2114 0.0 0
M  V30 18 C -8.9162 4.3757 0.0 0
M  V30 19 N -11.6687 1.5527 0.0 0
M  V30 20 C -10.2572 3.717 0.0 0
M  V30 21 C -12.9274 2.3878 0.0 0
M  V30 22 C -11.7628 0.0705 0.0 0
M  V30 23 C -11.5158 4.5522 0.0 0
M  V30 24 O -12.8568 3.8935 0.0 0
M  V30 25 N -14.2683 1.7291 0.0 0
M  V30 26 C -13.1038 -0.5881 0.0 0
M  V30 27 C -14.3624 0.247 0.0 0
M  V30 28 C -15.527 2.5643 0.0 0
M  V30 29 C -13.1979 -2.0702 0.0 0
M  V30 30 N -15.7034 -0.4117 0.0 0
M  V30 31 N -14.5389 -2.7289 0.0 0
M  V30 32 C -15.7975 -1.8938 0.0 0
M  V30 33 N -17.1385 -2.5525 0.0 0
M  V30 34 C -18.3971 -1.7173 0.0 0
M  V30 35 C -19.7381 -2.3761 0.0 0
M  V30 36 C -18.3265 -0.2117 0.0 0
M  V30 37 N -20.9967 -1.5409 0.0 0
M  V30 38 C -19.5851 0.6234 0.0 0
M  V30 39 C -20.9261 -0.0352 0.0 0
M  V30 40 C -22.1847 0.7998 0.0 0
M  V30 END ATOM
M  V30 BEGIN BOND
M  V30 1 1 1 2
M  V30 2 1 2 3
M  V30 3 1 2 4
M  V30 4 1 2 5
M  V30 5 2 5 6
M  V30 6 1 5 7
M  V30 7 1 6 8
M  V30 8 2 7 9
M  V30 9 1 8 10
M  V30 10 2 8 11
M  V30 11 2 10 12
M  V30 12 1 10 13
M  V30 13 1 13 14
M  V30 14 2 14 15
M  V30 15 1 14 16
M  V30 16 1 15 17
M  V30 17 2 16 18
M  V30 18 1 17 19
M  V30 19 2 17 20
M  V30 20 1 19 21
M  V30 21 1 19 22
M  V30 22 1 20 23
M  V30 23 2 21 24
M  V30 24 1 21 25
M  V30 25 1 22 26
M  V30 26 1 25 27
M  V30 27 1 25 28
M  V30 28 1 26 29
M  V30 29 1 27 30
M  V30 30 2 29 31
M  V30 31 2 30 32
M  V30 32 1 32 33
M  V30 33 1 33 34
M  V30 34 2 34 35
M  V30 35 1 34 36
M  V30 36 1 35 37
M  V30 37 2 36 38
M  V30 38 2 37 39
M  V30 39 1 39 40
M  V30 40 1 9 11
M  V30 41 1 18 20
M  V30 42 2 26 27
M  V30 43 1 31 32
M  V30 44 1 38 39
M  V30 END BOND
M  V30 END CTAB
M  END
>  <Compound ID>
222

>  <Name>
GNF-7

>  <Uniprot>
P00519

>  <Target>
ABL1

>  <Smiles>
CC1=CC=C(NC2=NC=C3CN(C4=CC(NC(=O)C5=CC=CC(C(F)(F)F)=C5)=CC=C4C)C(=O)N(C)C3=N2)C=N1

>  <Kd (nM)>


>  <Assay (Kd)>


>  <Ki (nM)>


>  <Assay (Ki)>


>  <IC50 (nM)>
133

>  <Assay (IC50)>
Inhibition of ABL1

>  <EC50 (nM)>


>  <Assay (EC50)>


>  <Article DOI>
10.1021/jm901808w

>  <Molecular Weight>
547.541

>  <Exact Mass>
547.194357668

>  <XLogP3>
4.33

>  <Heavy Atom Count>
40

>  <Ring Count>
5

>  <Hydrogen Bond Acceptor Count>
6

>  <Hydrogen Bond Donor Count>
2

>  <Rotatable Bond Count>
5

>  <Topological Polar Surface Area>
103.35

>  <Molecular Formula>
C28H24F3N7O2

>  <InChI>
InChI=1S/C28H24F3N7O2/c1-16-7-9-21(34-25(39)18-5-4-6-20(11-18)28(29,30)31)12-23(16)38-15-19-13-33-26(36-24(19)37(3)27(38)40)35-22-10-8-17(2)32-14-22/h4-14H,15H2,1-3H3,(H,34,39)(H,33,35,36)

>  <InChI Key>
SZNYUUZOQHNEKB-UHFFFAOYSA-N

>  <BindingDB>
50323777

>  <PubChem>
11478363

>  <ChEMBL>
CHEMBL1214141

$$$$
Compound 739
Actelion Java MolfileCreator 2.0

  0  0  0  0  0  0              0 V3000
M  V30 BEGIN CTAB
M  V30 COUNTS 40 44 0 0 0
M  V30 BEGIN ATOM
M  V30 1 F 0.0 0.0 0.0 0
M  V30 2 C -1.3409 -0.6587 0.0 0
M  V30 3 F -0.6822 -1.9761 0.0 0
M  V30 4 F -2.0232 0.6822 0.0 0
M  V30 5 C -2.6819 -1.3174 0.0 0
M  V30 6 C -3.9405 -0.4822 0.0 0
M  V30 7 C -2.776 -2.7995 0.0 0
M  V30 8 C -5.2815 -1.1409 0.0 0
M  V30 9 C -4.117 -3.4582 0.0 0
M  V30 10 C -6.5401 -0.3058 0.0 0
M  V30 11 C -5.3756 -2.6231 0.0 0
M  V30 12 O -7.8811 -0.9645 0.0 0
M  V30 13 N -6.4695 1.1998 0.0 0
M  V30 14 C -7.7282 2.0349 0.0 0
M  V30 15 C -9.0691 1.3762 0.0 0
M  V30 16 C -7.6576 3.5406 0.0 0
M  V30 17 C -10.3278 2.2114 0.0 0
M  V30 18 C -8.9162 4.3757 0.0 0
M  V30 19 N -11.6687 1.5527 0.0 0
M  V30 20 C -10.2572 3.717 0.0 0
M  V30 21 C -12.9274 2.3878 0.0 0
M  V30 22 C -11.7628 0.0705 0.0 0
M  V30 23 C -11.5158 4.5522 0.0 0
M  V30 24 O -12.8568 3.8935 0.0 0
M  V30 25 N -14.2683 1.7291 0.0 0
M  V30 26 C -13.1038 -0.5881 0.0 0
M  V30 27 C -14.3624 0.247 0.0 0
M  V30 28 C -15.527 2.5643 0.0 0
M  V30 29 C -13.1979 -2.0702 0.0 0
M  V30 30 N -15.7034 -0.4117 0.0 0
M  V30 31 N -14.5389 -2.7289 0.0 0
M  V30 32 C -15.7975 -1.8938 0.0 0
M  V30 33 N -17.1385 -2.5525 0.0 0
M  V30 34 C -18.3971 -1.7173 0.0 0
M  V30 35 C -19.7381 -2.3761 0.0 0
M  V30 36 C -18.3265 -0.2117 0.0 0
M  V30 37 N -20.9967 -1.5409 0.0 0
M  V30 38 C -19.5851 0.6234 0.0 0
M  V30 39 C -20.9261 -0.0352 0.0 0
M  V30 40 C -22.1847 0.7998 0.0 0
M  V30 END ATOM
M  V30 BEGIN BOND
M  V30 1 1 1 2
M  V30 2 1 2 3
M  V30 3 1 2 4
M  V30 4 1 2 5
M  V30 5 2 5 6
M  V30 6 1 5 7
M  V30 7 1 6 8
M  V30 8 2 7 9
M  V30 9 1 8 10
M  V30 10 2 8 11
M  V30 11 2 10 12
M  V30 12 1 10 13
M  V30 13 1 13 14
M  V30 14 2 14 15
M  V30 15 1 14 16
M  V30 16 1 15 17
M  V30 17 2 16 18
M  V30 18 1 17 19
M  V30 19 2 17 20
M  V30 20 1 19 21
M  V30 21 1 19 22
M  V30 22 1 20 23
M  V30 23 2 21 24
M  V30 24 1 21 25
M  V30 25 1 22 26
M  V30 26 1 25 27
M  V30 27 1 25 28
M  V30 28 1 26 29
M  V30 29 1 27 30
M  V30 30 2 29 31
M  V30 31 2 30 32
M  V30 32 1 32 33
M  V30 33 1 33 34
M  V30 34 2 34 35
M  V30 35 1 34 36
M  V30 36 1 35 37
M  V30 37 2 36 38
M  V30 38 2 37 39
M  V30 39 1 39 40
M  V30 40 1 9 11
M  V30 41 1 18 20
M  V30 42 2 26 27
M  V30 43 1 31 32
M  V30 44 1 38 39
M  V30 END BOND
M  V30 END CTAB
M  END
>  <Compound ID>
222

>  <Name>
GNF-7

>  <Uniprot>
P42684

>  <Target>
ABL2

>  <Smiles>
CC1=CC=C(NC2=NC=C3CN(C4=CC(NC(=O)C5=CC=CC(C(F)(F)F)=C5)=CC=C4C)C(=O)N(C)C3=N2)C=N1

>  <Kd (nM)>


>  <Assay (Kd)>


>  <Ki (nM)>


>  <Assay (Ki)>


>  <IC50 (nM)>


>  <Assay (IC50)>


>  <EC50 (nM)>


>  <Assay (EC50)>


>  <Article DOI>


>  <Molecular Weight>
547.541

>  <Exact Mass>
547.194357668

>  <XLogP3>
4.33

>  <Heavy Atom Count>
40

>  <Ring Count>
5

>  <Hydrogen Bond Acceptor Count>
6

>  <Hydrogen Bond Donor Count>
2

>  <Rotatable Bond Count>
5

>  <Topological Polar Surface Area>
103.35

>  <Molecular Formula>
C28H24F3N7O2

>  <InChI>
InChI=1S/C28H24F3N7O2/c1-16-7-9-21(34-25(39)18-5-4-6-20(11-18)28(29,30)31)12-23(16)38-15-19-13-33-26(36-24(19)37(3)27(38)40)35-22-10-8-17(2)32-14-22/h4-14H,15H2,1-3H3,(H,34,39)(H,33,35,36)

>  <InChI Key>
SZNYUUZOQHNEKB-UHFFFAOYSA-N

>  <BindingDB>
50323777

>  <PubChem>
11478363

>  <ChEMBL>
CHEMBL1214141

$$$$
Compound 740
Actelion Java MolfileCreator 2.0

  0  0  0  0  0  0              0 V3000
M  V30 BEGIN CTAB
M  V30 COUNTS 40 44 0 0 0
M  V30 BEGIN ATOM
M  V30 1 F 0.0 0.0 0.0 0
M  V30 2 C -1.3409 -0.6587 0.0 0
M  V30 3 F -0.6822 -1.9761 0.0 0
M  V30 4 F -2.0232 0.6822 0.0 0
M  V30 5 C -2.6819 -1.3174 0.0 0
M  V30 6 C -3.9405 -0.4822 0.0 0
M  V30 7 C -2.776 -2.7995 0.0 0
M  V30 8 C -5.2815 -1.1409 0.0 0
M  V30 9 C -4.117 -3.4582 0.0 0
M  V30 10 C -6.5401 -0.3058 0.0 0
M  V30 11 C -5.3756 -2.6231 0.0 0
M  V30 12 O -7.8811 -0.9645 0.0 0
M  V30 13 N -6.4695 1.1998 0.0 0
M  V30 14 C -7.7282 2.0349 0.0 0
M  V30 15 C -9.0691 1.3762 0.0 0
M  V30 16 C -7.6576 3.5406 0.0 0
M  V30 17 C -10.3278 2.2114 0.0 0
M  V30 18 C -8.9162 4.3757 0.0 0
M  V30 19 N -11.6687 1.5527 0.0 0
M  V30 20 C -10.2572 3.717 0.0 0
M  V30 21 C -12.9274 2.3878 0.0 0
M  V30 22 C -11.7628 0.0705 0.0 0
M  V30 23 C -11.5158 4.5522 0.0 0
M  V30 24 O -12.8568 3.8935 0.0 0
M  V30 25 N -14.2683 1.7291 0.0 0
M  V30 26 C -13.1038 -0.5881 0.0 0
M  V30 27 C -14.3624 0.247 0.0 0
M  V30 28 C -15.527 2.5643 0.0 0
M  V30 29 C -13.1979 -2.0702 0.0 0
M  V30 30 N -15.7034 -0.4117 0.0 0
M  V30 31 N -14.5389 -2.7289 0.0 0
M  V30 32 C -15.7975 -1.8938 0.0 0
M  V30 33 N -17.1385 -2.5525 0.0 0
M  V30 34 C -18.3971 -1.7173 0.0 0
M  V30 35 C -19.7381 -2.3761 0.0 0
M  V30 36 C -18.3265 -0.2117 0.0 0
M  V30 37 N -20.9967 -1.5409 0.0 0
M  V30 38 C -19.5851 0.6234 0.0 0
M  V30 39 C -20.9261 -0.0352 0.0 0
M  V30 40 C -22.1847 0.7998 0.0 0
M  V30 END ATOM
M  V30 BEGIN BOND
M  V30 1 1 1 2
M  V30 2 1 2 3
M  V30 3 1 2 4
M  V30 4 1 2 5
M  V30 5 2 5 6
M  V30 6 1 5 7
M  V30 7 1 6 8
M  V30 8 2 7 9
M  V30 9 1 8 10
M  V30 10 2 8 11
M  V30 11 2 10 12
M  V30 12 1 10 13
M  V30 13 1 13 14
M  V30 14 2 14 15
M  V30 15 1 14 16
M  V30 16 1 15 17
M  V30 17 2 16 18
M  V30 18 1 17 19
M  V30 19 2 17 20
M  V30 20 1 19 21
M  V30 21 1 19 22
M  V30 22 1 20 23
M  V30 23 2 21 24
M  V30 24 1 21 25
M  V30 25 1 22 26
M  V30 26 1 25 27
M  V30 27 1 25 28
M  V30 28 1 26 29
M  V30 29 1 27 30
M  V30 30 2 29 31
M  V30 31 2 30 32
M  V30 32 1 32 33
M  V30 33 1 33 34
M  V30 34 2 34 35
M  V30 35 1 34 36
M  V30 36 1 35 37
M  V30 37 2 36 38
M  V30 38 2 37 39
M  V30 39 1 39 40
M  V30 40 1 9 11
M  V30 41 1 18 20
M  V30 42 2 26 27
M  V30 43 1 31 32
M  V30 44 1 38 39
M  V30 END BOND
M  V30 END CTAB
M  END
>  <Compound ID>
222

>  <Name>
GNF-7

>  <Uniprot>
O14965

>  <Target>
AURKA

>  <Smiles>
CC1=CC=C(NC2=NC=C3CN(C4=CC(NC(=O)C5=CC=CC(C(F)(F)F)=C5)=CC=C4C)C(=O)N(C)C3=N2)C=N1

>  <Kd (nM)>


>  <Assay (Kd)>


>  <Ki (nM)>


>  <Assay (Ki)>


>  <IC50 (nM)>


>  <Assay (IC50)>


>  <EC50 (nM)>


>  <Assay (EC50)>


>  <Article DOI>


>  <Molecular Weight>
547.541

>  <Exact Mass>
547.194357668

>  <XLogP3>
4.33

>  <Heavy Atom Count>
40

>  <Ring Count>
5

>  <Hydrogen Bond Acceptor Count>
6

>  <Hydrogen Bond Donor Count>
2

>  <Rotatable Bond Count>
5

>  <Topological Polar Surface Area>
103.35

>  <Molecular Formula>
C28H24F3N7O2

>  <InChI>
InChI=1S/C28H24F3N7O2/c1-16-7-9-21(34-25(39)18-5-4-6-20(11-18)28(29,30)31)12-23(16)38-15-19-13-33-26(36-24(19)37(3)27(38)40)35-22-10-8-17(2)32-14-22/h4-14H,15H2,1-3H3,(H,34,39)(H,33,35,36)

>  <InChI Key>
SZNYUUZOQHNEKB-UHFFFAOYSA-N

>  <BindingDB>
50323777

>  <PubChem>
11478363

>  <ChEMBL>
CHEMBL1214141

$$$$
Compound 741
Actelion Java MolfileCreator 2.0

  0  0  0  0  0  0              0 V3000
M  V30 BEGIN CTAB
M  V30 COUNTS 40 44 0 0 0
M  V30 BEGIN ATOM
M  V30 1 F 0.0 0.0 0.0 0
M  V30 2 C -1.3409 -0.6587 0.0 0
M  V30 3 F -0.6822 -1.9761 0.0 0
M  V30 4 F -2.0232 0.6822 0.0 0
M  V30 5 C -2.6819 -1.3174 0.0 0
M  V30 6 C -3.9405 -0.4822 0.0 0
M  V30 7 C -2.776 -2.7995 0.0 0
M  V30 8 C -5.2815 -1.1409 0.0 0
M  V30 9 C -4.117 -3.4582 0.0 0
M  V30 10 C -6.5401 -0.3058 0.0 0
M  V30 11 C -5.3756 -2.6231 0.0 0
M  V30 12 O -7.8811 -0.9645 0.0 0
M  V30 13 N -6.4695 1.1998 0.0 0
M  V30 14 C -7.7282 2.0349 0.0 0
M  V30 15 C -9.0691 1.3762 0.0 0
M  V30 16 C -7.6576 3.5406 0.0 0
M  V30 17 C -10.3278 2.2114 0.0 0
M  V30 18 C -8.9162 4.3757 0.0 0
M  V30 19 N -11.6687 1.5527 0.0 0
M  V30 20 C -10.2572 3.717 0.0 0
M  V30 21 C -12.9274 2.3878 0.0 0
M  V30 22 C -11.7628 0.0705 0.0 0
M  V30 23 C -11.5158 4.5522 0.0 0
M  V30 24 O -12.8568 3.8935 0.0 0
M  V30 25 N -14.2683 1.7291 0.0 0
M  V30 26 C -13.1038 -0.5881 0.0 0
M  V30 27 C -14.3624 0.247 0.0 0
M  V30 28 C -15.527 2.5643 0.0 0
M  V30 29 C -13.1979 -2.0702 0.0 0
M  V30 30 N -15.7034 -0.4117 0.0 0
M  V30 31 N -14.5389 -2.7289 0.0 0
M  V30 32 C -15.7975 -1.8938 0.0 0
M  V30 33 N -17.1385 -2.5525 0.0 0
M  V30 34 C -18.3971 -1.7173 0.0 0
M  V30 35 C -19.7381 -2.3761 0.0 0
M  V30 36 C -18.3265 -0.2117 0.0 0
M  V30 37 N -20.9967 -1.5409 0.0 0
M  V30 38 C -19.5851 0.6234 0.0 0
M  V30 39 C -20.9261 -0.0352 0.0 0
M  V30 40 C -22.1847 0.7998 0.0 0
M  V30 END ATOM
M  V30 BEGIN BOND
M  V30 1 1 1 2
M  V30 2 1 2 3
M  V30 3 1 2 4
M  V30 4 1 2 5
M  V30 5 2 5 6
M  V30 6 1 5 7
M  V30 7 1 6 8
M  V30 8 2 7 9
M  V30 9 1 8 10
M  V30 10 2 8 11
M  V30 11 2 10 12
M  V30 12 1 10 13
M  V30 13 1 13 14
M  V30 14 2 14 15
M  V30 15 1 14 16
M  V30 16 1 15 17
M  V30 17 2 16 18
M  V30 18 1 17 19
M  V30 19 2 17 20
M  V30 20 1 19 21
M  V30 21 1 19 22
M  V30 22 1 20 23
M  V30 23 2 21 24
M  V30 24 1 21 25
M  V30 25 1 22 26
M  V30 26 1 25 27
M  V30 27 1 25 28
M  V30 28 1 26 29
M  V30 29 1 27 30
M  V30 30 2 29 31
M  V30 31 2 30 32
M  V30 32 1 32 33
M  V30 33 1 33 34
M  V30 34 2 34 35
M  V30 35 1 34 36
M  V30 36 1 35 37
M  V30 37 2 36 38
M  V30 38 2 37 39
M  V30 39 1 39 40
M  V30 40 1 9 11
M  V30 41 1 18 20
M  V30 42 2 26 27
M  V30 43 1 31 32
M  V30 44 1 38 39
M  V30 END BOND
M  V30 END CTAB
M  END
>  <Compound ID>
222

>  <Name>
GNF-7

>  <Uniprot>
P51451

>  <Target>
BLK

>  <Smiles>
CC1=CC=C(NC2=NC=C3CN(C4=CC(NC(=O)C5=CC=CC(C(F)(F)F)=C5)=CC=C4C)C(=O)N(C)C3=N2)C=N1

>  <Kd (nM)>


>  <Assay (Kd)>


>  <Ki (nM)>


>  <Assay (Ki)>


>  <IC50 (nM)>


>  <Assay (IC50)>


>  <EC50 (nM)>


>  <Assay (EC50)>


>  <Article DOI>


>  <Molecular Weight>
547.541

>  <Exact Mass>
547.194357668

>  <XLogP3>
4.33

>  <Heavy Atom Count>
40

>  <Ring Count>
5

>  <Hydrogen Bond Acceptor Count>
6

>  <Hydrogen Bond Donor Count>
2

>  <Rotatable Bond Count>
5

>  <Topological Polar Surface Area>
103.35

>  <Molecular Formula>
C28H24F3N7O2

>  <InChI>
InChI=1S/C28H24F3N7O2/c1-16-7-9-21(34-25(39)18-5-4-6-20(11-18)28(29,30)31)12-23(16)38-15-19-13-33-26(36-24(19)37(3)27(38)40)35-22-10-8-17(2)32-14-22/h4-14H,15H2,1-3H3,(H,34,39)(H,33,35,36)

>  <InChI Key>
SZNYUUZOQHNEKB-UHFFFAOYSA-N

>  <BindingDB>
50323777

>  <PubChem>
11478363

>  <ChEMBL>
CHEMBL1214141

$$$$
Compound 742
Actelion Java MolfileCreator 2.0

  0  0  0  0  0  0              0 V3000
M  V30 BEGIN CTAB
M  V30 COUNTS 40 44 0 0 0
M  V30 BEGIN ATOM
M  V30 1 F 0.0 0.0 0.0 0
M  V30 2 C -1.3409 -0.6587 0.0 0
M  V30 3 F -0.6822 -1.9761 0.0 0
M  V30 4 F -2.0232 0.6822 0.0 0
M  V30 5 C -2.6819 -1.3174 0.0 0
M  V30 6 C -3.9405 -0.4822 0.0 0
M  V30 7 C -2.776 -2.7995 0.0 0
M  V30 8 C -5.2815 -1.1409 0.0 0
M  V30 9 C -4.117 -3.4582 0.0 0
M  V30 10 C -6.5401 -0.3058 0.0 0
M  V30 11 C -5.3756 -2.6231 0.0 0
M  V30 12 O -7.8811 -0.9645 0.0 0
M  V30 13 N -6.4695 1.1998 0.0 0
M  V30 14 C -7.7282 2.0349 0.0 0
M  V30 15 C -9.0691 1.3762 0.0 0
M  V30 16 C -7.6576 3.5406 0.0 0
M  V30 17 C -10.3278 2.2114 0.0 0
M  V30 18 C -8.9162 4.3757 0.0 0
M  V30 19 N -11.6687 1.5527 0.0 0
M  V30 20 C -10.2572 3.717 0.0 0
M  V30 21 C -12.9274 2.3878 0.0 0
M  V30 22 C -11.7628 0.0705 0.0 0
M  V30 23 C -11.5158 4.5522 0.0 0
M  V30 24 O -12.8568 3.8935 0.0 0
M  V30 25 N -14.2683 1.7291 0.0 0
M  V30 26 C -13.1038 -0.5881 0.0 0
M  V30 27 C -14.3624 0.247 0.0 0
M  V30 28 C -15.527 2.5643 0.0 0
M  V30 29 C -13.1979 -2.0702 0.0 0
M  V30 30 N -15.7034 -0.4117 0.0 0
M  V30 31 N -14.5389 -2.7289 0.0 0
M  V30 32 C -15.7975 -1.8938 0.0 0
M  V30 33 N -17.1385 -2.5525 0.0 0
M  V30 34 C -18.3971 -1.7173 0.0 0
M  V30 35 C -19.7381 -2.3761 0.0 0
M  V30 36 C -18.3265 -0.2117 0.0 0
M  V30 37 N -20.9967 -1.5409 0.0 0
M  V30 38 C -19.5851 0.6234 0.0 0
M  V30 39 C -20.9261 -0.0352 0.0 0
M  V30 40 C -22.1847 0.7998 0.0 0
M  V30 END ATOM
M  V30 BEGIN BOND
M  V30 1 1 1 2
M  V30 2 1 2 3
M  V30 3 1 2 4
M  V30 4 1 2 5
M  V30 5 2 5 6
M  V30 6 1 5 7
M  V30 7 1 6 8
M  V30 8 2 7 9
M  V30 9 1 8 10
M  V30 10 2 8 11
M  V30 11 2 10 12
M  V30 12 1 10 13
M  V30 13 1 13 14
M  V30 14 2 14 15
M  V30 15 1 14 16
M  V30 16 1 15 17
M  V30 17 2 16 18
M  V30 18 1 17 19
M  V30 19 2 17 20
M  V30 20 1 19 21
M  V30 21 1 19 22
M  V30 22 1 20 23
M  V30 23 2 21 24
M  V30 24 1 21 25
M  V30 25 1 22 26
M  V30 26 1 25 27
M  V30 27 1 25 28
M  V30 28 1 26 29
M  V30 29 1 27 30
M  V30 30 2 29 31
M  V30 31 2 30 32
M  V30 32 1 32 33
M  V30 33 1 33 34
M  V30 34 2 34 35
M  V30 35 1 34 36
M  V30 36 1 35 37
M  V30 37 2 36 38
M  V30 38 2 37 39
M  V30 39 1 39 40
M  V30 40 1 9 11
M  V30 41 1 18 20
M  V30 42 2 26 27
M  V30 43 1 31 32
M  V30 44 1 38 39
M  V30 END BOND
M  V30 END CTAB
M  END
>  <Compound ID>
222

>  <Name>
GNF-7

>  <Uniprot>
O43683

>  <Target>
BUB1

>  <Smiles>
CC1=CC=C(NC2=NC=C3CN(C4=CC(NC(=O)C5=CC=CC(C(F)(F)F)=C5)=CC=C4C)C(=O)N(C)C3=N2)C=N1

>  <Kd (nM)>


>  <Assay (Kd)>


>  <Ki (nM)>


>  <Assay (Ki)>


>  <IC50 (nM)>


>  <Assay (IC50)>


>  <EC50 (nM)>


>  <Assay (EC50)>


>  <Article DOI>


>  <Molecular Weight>
547.541

>  <Exact Mass>
547.194357668

>  <XLogP3>
4.33

>  <Heavy Atom Count>
40

>  <Ring Count>
5

>  <Hydrogen Bond Acceptor Count>
6

>  <Hydrogen Bond Donor Count>
2

>  <Rotatable Bond Count>
5

>  <Topological Polar Surface Area>
103.35

>  <Molecular Formula>
C28H24F3N7O2

>  <InChI>
InChI=1S/C28H24F3N7O2/c1-16-7-9-21(34-25(39)18-5-4-6-20(11-18)28(29,30)31)12-23(16)38-15-19-13-33-26(36-24(19)37(3)27(38)40)35-22-10-8-17(2)32-14-22/h4-14H,15H2,1-3H3,(H,34,39)(H,33,35,36)

>  <InChI Key>
SZNYUUZOQHNEKB-UHFFFAOYSA-N

>  <BindingDB>
50323777

>  <PubChem>
11478363

>  <ChEMBL>
CHEMBL1214141

$$$$
Compound 743
Actelion Java MolfileCreator 2.0

  0  0  0  0  0  0              0 V3000
M  V30 BEGIN CTAB
M  V30 COUNTS 40 44 0 0 0
M  V30 BEGIN ATOM
M  V30 1 F 0.0 0.0 0.0 0
M  V30 2 C -1.3409 -0.6587 0.0 0
M  V30 3 F -0.6822 -1.9761 0.0 0
M  V30 4 F -2.0232 0.6822 0.0 0
M  V30 5 C -2.6819 -1.3174 0.0 0
M  V30 6 C -3.9405 -0.4822 0.0 0
M  V30 7 C -2.776 -2.7995 0.0 0
M  V30 8 C -5.2815 -1.1409 0.0 0
M  V30 9 C -4.117 -3.4582 0.0 0
M  V30 10 C -6.5401 -0.3058 0.0 0
M  V30 11 C -5.3756 -2.6231 0.0 0
M  V30 12 O -7.8811 -0.9645 0.0 0
M  V30 13 N -6.4695 1.1998 0.0 0
M  V30 14 C -7.7282 2.0349 0.0 0
M  V30 15 C -9.0691 1.3762 0.0 0
M  V30 16 C -7.6576 3.5406 0.0 0
M  V30 17 C -10.3278 2.2114 0.0 0
M  V30 18 C -8.9162 4.3757 0.0 0
M  V30 19 N -11.6687 1.5527 0.0 0
M  V30 20 C -10.2572 3.717 0.0 0
M  V30 21 C -12.9274 2.3878 0.0 0
M  V30 22 C -11.7628 0.0705 0.0 0
M  V30 23 C -11.5158 4.5522 0.0 0
M  V30 24 O -12.8568 3.8935 0.0 0
M  V30 25 N -14.2683 1.7291 0.0 0
M  V30 26 C -13.1038 -0.5881 0.0 0
M  V30 27 C -14.3624 0.247 0.0 0
M  V30 28 C -15.527 2.5643 0.0 0
M  V30 29 C -13.1979 -2.0702 0.0 0
M  V30 30 N -15.7034 -0.4117 0.0 0
M  V30 31 N -14.5389 -2.7289 0.0 0
M  V30 32 C -15.7975 -1.8938 0.0 0
M  V30 33 N -17.1385 -2.5525 0.0 0
M  V30 34 C -18.3971 -1.7173 0.0 0
M  V30 35 C -19.7381 -2.3761 0.0 0
M  V30 36 C -18.3265 -0.2117 0.0 0
M  V30 37 N -20.9967 -1.5409 0.0 0
M  V30 38 C -19.5851 0.6234 0.0 0
M  V30 39 C -20.9261 -0.0352 0.0 0
M  V30 40 C -22.1847 0.7998 0.0 0
M  V30 END ATOM
M  V30 BEGIN BOND
M  V30 1 1 1 2
M  V30 2 1 2 3
M  V30 3 1 2 4
M  V30 4 1 2 5
M  V30 5 2 5 6
M  V30 6 1 5 7
M  V30 7 1 6 8
M  V30 8 2 7 9
M  V30 9 1 8 10
M  V30 10 2 8 11
M  V30 11 2 10 12
M  V30 12 1 10 13
M  V30 13 1 13 14
M  V30 14 2 14 15
M  V30 15 1 14 16
M  V30 16 1 15 17
M  V30 17 2 16 18
M  V30 18 1 17 19
M  V30 19 2 17 20
M  V30 20 1 19 21
M  V30 21 1 19 22
M  V30 22 1 20 23
M  V30 23 2 21 24
M  V30 24 1 21 25
M  V30 25 1 22 26
M  V30 26 1 25 27
M  V30 27 1 25 28
M  V30 28 1 26 29
M  V30 29 1 27 30
M  V30 30 2 29 31
M  V30 31 2 30 32
M  V30 32 1 32 33
M  V30 33 1 33 34
M  V30 34 2 34 35
M  V30 35 1 34 36
M  V30 36 1 35 37
M  V30 37 2 36 38
M  V30 38 2 37 39
M  V30 39 1 39 40
M  V30 40 1 9 11
M  V30 41 1 18 20
M  V30 42 2 26 27
M  V30 43 1 31 32
M  V30 44 1 38 39
M  V30 END BOND
M  V30 END CTAB
M  END
>  <Compound ID>
222

>  <Name>
GNF-7

>  <Uniprot>
Q9UQ88

>  <Target>
CDK11A

>  <Smiles>
CC1=CC=C(NC2=NC=C3CN(C4=CC(NC(=O)C5=CC=CC(C(F)(F)F)=C5)=CC=C4C)C(=O)N(C)C3=N2)C=N1

>  <Kd (nM)>


>  <Assay (Kd)>


>  <Ki (nM)>


>  <Assay (Ki)>


>  <IC50 (nM)>


>  <Assay (IC50)>


>  <EC50 (nM)>


>  <Assay (EC50)>


>  <Article DOI>


>  <Molecular Weight>
547.541

>  <Exact Mass>
547.194357668

>  <XLogP3>
4.33

>  <Heavy Atom Count>
40

>  <Ring Count>
5

>  <Hydrogen Bond Acceptor Count>
6

>  <Hydrogen Bond Donor Count>
2

>  <Rotatable Bond Count>
5

>  <Topological Polar Surface Area>
103.35

>  <Molecular Formula>
C28H24F3N7O2

>  <InChI>
InChI=1S/C28H24F3N7O2/c1-16-7-9-21(34-25(39)18-5-4-6-20(11-18)28(29,30)31)12-23(16)38-15-19-13-33-26(36-24(19)37(3)27(38)40)35-22-10-8-17(2)32-14-22/h4-14H,15H2,1-3H3,(H,34,39)(H,33,35,36)

>  <InChI Key>
SZNYUUZOQHNEKB-UHFFFAOYSA-N

>  <BindingDB>
50323777

>  <PubChem>
11478363

>  <ChEMBL>
CHEMBL1214141

$$$$
Compound 744
Actelion Java MolfileCreator 2.0

  0  0  0  0  0  0              0 V3000
M  V30 BEGIN CTAB
M  V30 COUNTS 40 44 0 0 0
M  V30 BEGIN ATOM
M  V30 1 F 0.0 0.0 0.0 0
M  V30 2 C -1.3409 -0.6587 0.0 0
M  V30 3 F -0.6822 -1.9761 0.0 0
M  V30 4 F -2.0232 0.6822 0.0 0
M  V30 5 C -2.6819 -1.3174 0.0 0
M  V30 6 C -3.9405 -0.4822 0.0 0
M  V30 7 C -2.776 -2.7995 0.0 0
M  V30 8 C -5.2815 -1.1409 0.0 0
M  V30 9 C -4.117 -3.4582 0.0 0
M  V30 10 C -6.5401 -0.3058 0.0 0
M  V30 11 C -5.3756 -2.6231 0.0 0
M  V30 12 O -7.8811 -0.9645 0.0 0
M  V30 13 N -6.4695 1.1998 0.0 0
M  V30 14 C -7.7282 2.0349 0.0 0
M  V30 15 C -9.0691 1.3762 0.0 0
M  V30 16 C -7.6576 3.5406 0.0 0
M  V30 17 C -10.3278 2.2114 0.0 0
M  V30 18 C -8.9162 4.3757 0.0 0
M  V30 19 N -11.6687 1.5527 0.0 0
M  V30 20 C -10.2572 3.717 0.0 0
M  V30 21 C -12.9274 2.3878 0.0 0
M  V30 22 C -11.7628 0.0705 0.0 0
M  V30 23 C -11.5158 4.5522 0.0 0
M  V30 24 O -12.8568 3.8935 0.0 0
M  V30 25 N -14.2683 1.7291 0.0 0
M  V30 26 C -13.1038 -0.5881 0.0 0
M  V30 27 C -14.3624 0.247 0.0 0
M  V30 28 C -15.527 2.5643 0.0 0
M  V30 29 C -13.1979 -2.0702 0.0 0
M  V30 30 N -15.7034 -0.4117 0.0 0
M  V30 31 N -14.5389 -2.7289 0.0 0
M  V30 32 C -15.7975 -1.8938 0.0 0
M  V30 33 N -17.1385 -2.5525 0.0 0
M  V30 34 C -18.3971 -1.7173 0.0 0
M  V30 35 C -19.7381 -2.3761 0.0 0
M  V30 36 C -18.3265 -0.2117 0.0 0
M  V30 37 N -20.9967 -1.5409 0.0 0
M  V30 38 C -19.5851 0.6234 0.0 0
M  V30 39 C -20.9261 -0.0352 0.0 0
M  V30 40 C -22.1847 0.7998 0.0 0
M  V30 END ATOM
M  V30 BEGIN BOND
M  V30 1 1 1 2
M  V30 2 1 2 3
M  V30 3 1 2 4
M  V30 4 1 2 5
M  V30 5 2 5 6
M  V30 6 1 5 7
M  V30 7 1 6 8
M  V30 8 2 7 9
M  V30 9 1 8 10
M  V30 10 2 8 11
M  V30 11 2 10 12
M  V30 12 1 10 13
M  V30 13 1 13 14
M  V30 14 2 14 15
M  V30 15 1 14 16
M  V30 16 1 15 17
M  V30 17 2 16 18
M  V30 18 1 17 19
M  V30 19 2 17 20
M  V30 20 1 19 21
M  V30 21 1 19 22
M  V30 22 1 20 23
M  V30 23 2 21 24
M  V30 24 1 21 25
M  V30 25 1 22 26
M  V30 26 1 25 27
M  V30 27 1 25 28
M  V30 28 1 26 29
M  V30 29 1 27 30
M  V30 30 2 29 31
M  V30 31 2 30 32
M  V30 32 1 32 33
M  V30 33 1 33 34
M  V30 34 2 34 35
M  V30 35 1 34 36
M  V30 36 1 35 37
M  V30 37 2 36 38
M  V30 38 2 37 39
M  V30 39 1 39 40
M  V30 40 1 9 11
M  V30 41 1 18 20
M  V30 42 2 26 27
M  V30 43 1 31 32
M  V30 44 1 38 39
M  V30 END BOND
M  V30 END CTAB
M  END
>  <Compound ID>
222

>  <Name>
GNF-7

>  <Uniprot>
P21127

>  <Target>
CDK11B

>  <Smiles>
CC1=CC=C(NC2=NC=C3CN(C4=CC(NC(=O)C5=CC=CC(C(F)(F)F)=C5)=CC=C4C)C(=O)N(C)C3=N2)C=N1

>  <Kd (nM)>


>  <Assay (Kd)>


>  <Ki (nM)>


>  <Assay (Ki)>


>  <IC50 (nM)>


>  <Assay (IC50)>


>  <EC50 (nM)>


>  <Assay (EC50)>


>  <Article DOI>


>  <Molecular Weight>
547.541

>  <Exact Mass>
547.194357668

>  <XLogP3>
4.33

>  <Heavy Atom Count>
40

>  <Ring Count>
5

>  <Hydrogen Bond Acceptor Count>
6

>  <Hydrogen Bond Donor Count>
2

>  <Rotatable Bond Count>
5

>  <Topological Polar Surface Area>
103.35

>  <Molecular Formula>
C28H24F3N7O2

>  <InChI>
InChI=1S/C28H24F3N7O2/c1-16-7-9-21(34-25(39)18-5-4-6-20(11-18)28(29,30)31)12-23(16)38-15-19-13-33-26(36-24(19)37(3)27(38)40)35-22-10-8-17(2)32-14-22/h4-14H,15H2,1-3H3,(H,34,39)(H,33,35,36)

>  <InChI Key>
SZNYUUZOQHNEKB-UHFFFAOYSA-N

>  <BindingDB>
50323777

>  <PubChem>
11478363

>  <ChEMBL>
CHEMBL1214141

$$$$
Compound 745
Actelion Java MolfileCreator 2.0

  0  0  0  0  0  0              0 V3000
M  V30 BEGIN CTAB
M  V30 COUNTS 40 44 0 0 0
M  V30 BEGIN ATOM
M  V30 1 F 0.0 0.0 0.0 0
M  V30 2 C -1.3409 -0.6587 0.0 0
M  V30 3 F -0.6822 -1.9761 0.0 0
M  V30 4 F -2.0232 0.6822 0.0 0
M  V30 5 C -2.6819 -1.3174 0.0 0
M  V30 6 C -3.9405 -0.4822 0.0 0
M  V30 7 C -2.776 -2.7995 0.0 0
M  V30 8 C -5.2815 -1.1409 0.0 0
M  V30 9 C -4.117 -3.4582 0.0 0
M  V30 10 C -6.5401 -0.3058 0.0 0
M  V30 11 C -5.3756 -2.6231 0.0 0
M  V30 12 O -7.8811 -0.9645 0.0 0
M  V30 13 N -6.4695 1.1998 0.0 0
M  V30 14 C -7.7282 2.0349 0.0 0
M  V30 15 C -9.0691 1.3762 0.0 0
M  V30 16 C -7.6576 3.5406 0.0 0
M  V30 17 C -10.3278 2.2114 0.0 0
M  V30 18 C -8.9162 4.3757 0.0 0
M  V30 19 N -11.6687 1.5527 0.0 0
M  V30 20 C -10.2572 3.717 0.0 0
M  V30 21 C -12.9274 2.3878 0.0 0
M  V30 22 C -11.7628 0.0705 0.0 0
M  V30 23 C -11.5158 4.5522 0.0 0
M  V30 24 O -12.8568 3.8935 0.0 0
M  V30 25 N -14.2683 1.7291 0.0 0
M  V30 26 C -13.1038 -0.5881 0.0 0
M  V30 27 C -14.3624 0.247 0.0 0
M  V30 28 C -15.527 2.5643 0.0 0
M  V30 29 C -13.1979 -2.0702 0.0 0
M  V30 30 N -15.7034 -0.4117 0.0 0
M  V30 31 N -14.5389 -2.7289 0.0 0
M  V30 32 C -15.7975 -1.8938 0.0 0
M  V30 33 N -17.1385 -2.5525 0.0 0
M  V30 34 C -18.3971 -1.7173 0.0 0
M  V30 35 C -19.7381 -2.3761 0.0 0
M  V30 36 C -18.3265 -0.2117 0.0 0
M  V30 37 N -20.9967 -1.5409 0.0 0
M  V30 38 C -19.5851 0.6234 0.0 0
M  V30 39 C -20.9261 -0.0352 0.0 0
M  V30 40 C -22.1847 0.7998 0.0 0
M  V30 END ATOM
M  V30 BEGIN BOND
M  V30 1 1 1 2
M  V30 2 1 2 3
M  V30 3 1 2 4
M  V30 4 1 2 5
M  V30 5 2 5 6
M  V30 6 1 5 7
M  V30 7 1 6 8
M  V30 8 2 7 9
M  V30 9 1 8 10
M  V30 10 2 8 11
M  V30 11 2 10 12
M  V30 12 1 10 13
M  V30 13 1 13 14
M  V30 14 2 14 15
M  V30 15 1 14 16
M  V30 16 1 15 17
M  V30 17 2 16 18
M  V30 18 1 17 19
M  V30 19 2 17 20
M  V30 20 1 19 21
M  V30 21 1 19 22
M  V30 22 1 20 23
M  V30 23 2 21 24
M  V30 24 1 21 25
M  V30 25 1 22 26
M  V30 26 1 25 27
M  V30 27 1 25 28
M  V30 28 1 26 29
M  V30 29 1 27 30
M  V30 30 2 29 31
M  V30 31 2 30 32
M  V30 32 1 32 33
M  V30 33 1 33 34
M  V30 34 2 34 35
M  V30 35 1 34 36
M  V30 36 1 35 37
M  V30 37 2 36 38
M  V30 38 2 37 39
M  V30 39 1 39 40
M  V30 40 1 9 11
M  V30 41 1 18 20
M  V30 42 2 26 27
M  V30 43 1 31 32
M  V30 44 1 38 39
M  V30 END BOND
M  V30 END CTAB
M  END
>  <Compound ID>
222

>  <Name>
GNF-7

>  <Uniprot>
P11802

>  <Target>
CDK4

>  <Smiles>
CC1=CC=C(NC2=NC=C3CN(C4=CC(NC(=O)C5=CC=CC(C(F)(F)F)=C5)=CC=C4C)C(=O)N(C)C3=N2)C=N1

>  <Kd (nM)>


>  <Assay (Kd)>


>  <Ki (nM)>


>  <Assay (Ki)>


>  <IC50 (nM)>


>  <Assay (IC50)>


>  <EC50 (nM)>


>  <Assay (EC50)>


>  <Article DOI>


>  <Molecular Weight>
547.541

>  <Exact Mass>
547.194357668

>  <XLogP3>
4.33

>  <Heavy Atom Count>
40

>  <Ring Count>
5

>  <Hydrogen Bond Acceptor Count>
6

>  <Hydrogen Bond Donor Count>
2

>  <Rotatable Bond Count>
5

>  <Topological Polar Surface Area>
103.35

>  <Molecular Formula>
C28H24F3N7O2

>  <InChI>
InChI=1S/C28H24F3N7O2/c1-16-7-9-21(34-25(39)18-5-4-6-20(11-18)28(29,30)31)12-23(16)38-15-19-13-33-26(36-24(19)37(3)27(38)40)35-22-10-8-17(2)32-14-22/h4-14H,15H2,1-3H3,(H,34,39)(H,33,35,36)

>  <InChI Key>
SZNYUUZOQHNEKB-UHFFFAOYSA-N

>  <BindingDB>
50323777

>  <PubChem>
11478363

>  <ChEMBL>
CHEMBL1214141

$$$$
Compound 746
Actelion Java MolfileCreator 2.0

  0  0  0  0  0  0              0 V3000
M  V30 BEGIN CTAB
M  V30 COUNTS 40 44 0 0 0
M  V30 BEGIN ATOM
M  V30 1 F 0.0 0.0 0.0 0
M  V30 2 C -1.3409 -0.6587 0.0 0
M  V30 3 F -0.6822 -1.9761 0.0 0
M  V30 4 F -2.0232 0.6822 0.0 0
M  V30 5 C -2.6819 -1.3174 0.0 0
M  V30 6 C -3.9405 -0.4822 0.0 0
M  V30 7 C -2.776 -2.7995 0.0 0
M  V30 8 C -5.2815 -1.1409 0.0 0
M  V30 9 C -4.117 -3.4582 0.0 0
M  V30 10 C -6.5401 -0.3058 0.0 0
M  V30 11 C -5.3756 -2.6231 0.0 0
M  V30 12 O -7.8811 -0.9645 0.0 0
M  V30 13 N -6.4695 1.1998 0.0 0
M  V30 14 C -7.7282 2.0349 0.0 0
M  V30 15 C -9.0691 1.3762 0.0 0
M  V30 16 C -7.6576 3.5406 0.0 0
M  V30 17 C -10.3278 2.2114 0.0 0
M  V30 18 C -8.9162 4.3757 0.0 0
M  V30 19 N -11.6687 1.5527 0.0 0
M  V30 20 C -10.2572 3.717 0.0 0
M  V30 21 C -12.9274 2.3878 0.0 0
M  V30 22 C -11.7628 0.0705 0.0 0
M  V30 23 C -11.5158 4.5522 0.0 0
M  V30 24 O -12.8568 3.8935 0.0 0
M  V30 25 N -14.2683 1.7291 0.0 0
M  V30 26 C -13.1038 -0.5881 0.0 0
M  V30 27 C -14.3624 0.247 0.0 0
M  V30 28 C -15.527 2.5643 0.0 0
M  V30 29 C -13.1979 -2.0702 0.0 0
M  V30 30 N -15.7034 -0.4117 0.0 0
M  V30 31 N -14.5389 -2.7289 0.0 0
M  V30 32 C -15.7975 -1.8938 0.0 0
M  V30 33 N -17.1385 -2.5525 0.0 0
M  V30 34 C -18.3971 -1.7173 0.0 0
M  V30 35 C -19.7381 -2.3761 0.0 0
M  V30 36 C -18.3265 -0.2117 0.0 0
M  V30 37 N -20.9967 -1.5409 0.0 0
M  V30 38 C -19.5851 0.6234 0.0 0
M  V30 39 C -20.9261 -0.0352 0.0 0
M  V30 40 C -22.1847 0.7998 0.0 0
M  V30 END ATOM
M  V30 BEGIN BOND
M  V30 1 1 1 2
M  V30 2 1 2 3
M  V30 3 1 2 4
M  V30 4 1 2 5
M  V30 5 2 5 6
M  V30 6 1 5 7
M  V30 7 1 6 8
M  V30 8 2 7 9
M  V30 9 1 8 10
M  V30 10 2 8 11
M  V30 11 2 10 12
M  V30 12 1 10 13
M  V30 13 1 13 14
M  V30 14 2 14 15
M  V30 15 1 14 16
M  V30 16 1 15 17
M  V30 17 2 16 18
M  V30 18 1 17 19
M  V30 19 2 17 20
M  V30 20 1 19 21
M  V30 21 1 19 22
M  V30 22 1 20 23
M  V30 23 2 21 24
M  V30 24 1 21 25
M  V30 25 1 22 26
M  V30 26 1 25 27
M  V30 27 1 25 28
M  V30 28 1 26 29
M  V30 29 1 27 30
M  V30 30 2 29 31
M  V30 31 2 30 32
M  V30 32 1 32 33
M  V30 33 1 33 34
M  V30 34 2 34 35
M  V30 35 1 34 36
M  V30 36 1 35 37
M  V30 37 2 36 38
M  V30 38 2 37 39
M  V30 39 1 39 40
M  V30 40 1 9 11
M  V30 41 1 18 20
M  V30 42 2 26 27
M  V30 43 1 31 32
M  V30 44 1 38 39
M  V30 END BOND
M  V30 END CTAB
M  END
>  <Compound ID>
222

>  <Name>
GNF-7

>  <Uniprot>
O14578

>  <Target>
CIT

>  <Smiles>
CC1=CC=C(NC2=NC=C3CN(C4=CC(NC(=O)C5=CC=CC(C(F)(F)F)=C5)=CC=C4C)C(=O)N(C)C3=N2)C=N1

>  <Kd (nM)>


>  <Assay (Kd)>


>  <Ki (nM)>


>  <Assay (Ki)>


>  <IC50 (nM)>


>  <Assay (IC50)>


>  <EC50 (nM)>


>  <Assay (EC50)>


>  <Article DOI>


>  <Molecular Weight>
547.541

>  <Exact Mass>
547.194357668

>  <XLogP3>
4.33

>  <Heavy Atom Count>
40

>  <Ring Count>
5

>  <Hydrogen Bond Acceptor Count>
6

>  <Hydrogen Bond Donor Count>
2

>  <Rotatable Bond Count>
5

>  <Topological Polar Surface Area>
103.35

>  <Molecular Formula>
C28H24F3N7O2

>  <InChI>
InChI=1S/C28H24F3N7O2/c1-16-7-9-21(34-25(39)18-5-4-6-20(11-18)28(29,30)31)12-23(16)38-15-19-13-33-26(36-24(19)37(3)27(38)40)35-22-10-8-17(2)32-14-22/h4-14H,15H2,1-3H3,(H,34,39)(H,33,35,36)

>  <InChI Key>
SZNYUUZOQHNEKB-UHFFFAOYSA-N

>  <BindingDB>
50323777

>  <PubChem>
11478363

>  <ChEMBL>
CHEMBL1214141

$$$$
Compound 747
Actelion Java MolfileCreator 2.0

  0  0  0  0  0  0              0 V3000
M  V30 BEGIN CTAB
M  V30 COUNTS 40 44 0 0 0
M  V30 BEGIN ATOM
M  V30 1 F 0.0 0.0 0.0 0
M  V30 2 C -1.3409 -0.6587 0.0 0
M  V30 3 F -0.6822 -1.9761 0.0 0
M  V30 4 F -2.0232 0.6822 0.0 0
M  V30 5 C -2.6819 -1.3174 0.0 0
M  V30 6 C -3.9405 -0.4822 0.0 0
M  V30 7 C -2.776 -2.7995 0.0 0
M  V30 8 C -5.2815 -1.1409 0.0 0
M  V30 9 C -4.117 -3.4582 0.0 0
M  V30 10 C -6.5401 -0.3058 0.0 0
M  V30 11 C -5.3756 -2.6231 0.0 0
M  V30 12 O -7.8811 -0.9645 0.0 0
M  V30 13 N -6.4695 1.1998 0.0 0
M  V30 14 C -7.7282 2.0349 0.0 0
M  V30 15 C -9.0691 1.3762 0.0 0
M  V30 16 C -7.6576 3.5406 0.0 0
M  V30 17 C -10.3278 2.2114 0.0 0
M  V30 18 C -8.9162 4.3757 0.0 0
M  V30 19 N -11.6687 1.5527 0.0 0
M  V30 20 C -10.2572 3.717 0.0 0
M  V30 21 C -12.9274 2.3878 0.0 0
M  V30 22 C -11.7628 0.0705 0.0 0
M  V30 23 C -11.5158 4.5522 0.0 0
M  V30 24 O -12.8568 3.8935 0.0 0
M  V30 25 N -14.2683 1.7291 0.0 0
M  V30 26 C -13.1038 -0.5881 0.0 0
M  V30 27 C -14.3624 0.247 0.0 0
M  V30 28 C -15.527 2.5643 0.0 0
M  V30 29 C -13.1979 -2.0702 0.0 0
M  V30 30 N -15.7034 -0.4117 0.0 0
M  V30 31 N -14.5389 -2.7289 0.0 0
M  V30 32 C -15.7975 -1.8938 0.0 0
M  V30 33 N -17.1385 -2.5525 0.0 0
M  V30 34 C -18.3971 -1.7173 0.0 0
M  V30 35 C -19.7381 -2.3761 0.0 0
M  V30 36 C -18.3265 -0.2117 0.0 0
M  V30 37 N -20.9967 -1.5409 0.0 0
M  V30 38 C -19.5851 0.6234 0.0 0
M  V30 39 C -20.9261 -0.0352 0.0 0
M  V30 40 C -22.1847 0.7998 0.0 0
M  V30 END ATOM
M  V30 BEGIN BOND
M  V30 1 1 1 2
M  V30 2 1 2 3
M  V30 3 1 2 4
M  V30 4 1 2 5
M  V30 5 2 5 6
M  V30 6 1 5 7
M  V30 7 1 6 8
M  V30 8 2 7 9
M  V30 9 1 8 10
M  V30 10 2 8 11
M  V30 11 2 10 12
M  V30 12 1 10 13
M  V30 13 1 13 14
M  V30 14 2 14 15
M  V30 15 1 14 16
M  V30 16 1 15 17
M  V30 17 2 16 18
M  V30 18 1 17 19
M  V30 19 2 17 20
M  V30 20 1 19 21
M  V30 21 1 19 22
M  V30 22 1 20 23
M  V30 23 2 21 24
M  V30 24 1 21 25
M  V30 25 1 22 26
M  V30 26 1 25 27
M  V30 27 1 25 28
M  V30 28 1 26 29
M  V30 29 1 27 30
M  V30 30 2 29 31
M  V30 31 2 30 32
M  V30 32 1 32 33
M  V30 33 1 33 34
M  V30 34 2 34 35
M  V30 35 1 34 36
M  V30 36 1 35 37
M  V30 37 2 36 38
M  V30 38 2 37 39
M  V30 39 1 39 40
M  V30 40 1 9 11
M  V30 41 1 18 20
M  V30 42 2 26 27
M  V30 43 1 31 32
M  V30 44 1 38 39
M  V30 END BOND
M  V30 END CTAB
M  END
>  <Compound ID>
222

>  <Name>
GNF-7

>  <Uniprot>
P49759

>  <Target>
CLK1

>  <Smiles>
CC1=CC=C(NC2=NC=C3CN(C4=CC(NC(=O)C5=CC=CC(C(F)(F)F)=C5)=CC=C4C)C(=O)N(C)C3=N2)C=N1

>  <Kd (nM)>


>  <Assay (Kd)>


>  <Ki (nM)>


>  <Assay (Ki)>


>  <IC50 (nM)>


>  <Assay (IC50)>


>  <EC50 (nM)>


>  <Assay (EC50)>


>  <Article DOI>


>  <Molecular Weight>
547.541

>  <Exact Mass>
547.194357668

>  <XLogP3>
4.33

>  <Heavy Atom Count>
40

>  <Ring Count>
5

>  <Hydrogen Bond Acceptor Count>
6

>  <Hydrogen Bond Donor Count>
2

>  <Rotatable Bond Count>
5

>  <Topological Polar Surface Area>
103.35

>  <Molecular Formula>
C28H24F3N7O2

>  <InChI>
InChI=1S/C28H24F3N7O2/c1-16-7-9-21(34-25(39)18-5-4-6-20(11-18)28(29,30)31)12-23(16)38-15-19-13-33-26(36-24(19)37(3)27(38)40)35-22-10-8-17(2)32-14-22/h4-14H,15H2,1-3H3,(H,34,39)(H,33,35,36)

>  <InChI Key>
SZNYUUZOQHNEKB-UHFFFAOYSA-N

>  <BindingDB>
50323777

>  <PubChem>
11478363

>  <ChEMBL>
CHEMBL1214141

$$$$
Compound 748
Actelion Java MolfileCreator 2.0

  0  0  0  0  0  0              0 V3000
M  V30 BEGIN CTAB
M  V30 COUNTS 40 44 0 0 0
M  V30 BEGIN ATOM
M  V30 1 F 0.0 0.0 0.0 0
M  V30 2 C -1.3409 -0.6587 0.0 0
M  V30 3 F -0.6822 -1.9761 0.0 0
M  V30 4 F -2.0232 0.6822 0.0 0
M  V30 5 C -2.6819 -1.3174 0.0 0
M  V30 6 C -3.9405 -0.4822 0.0 0
M  V30 7 C -2.776 -2.7995 0.0 0
M  V30 8 C -5.2815 -1.1409 0.0 0
M  V30 9 C -4.117 -3.4582 0.0 0
M  V30 10 C -6.5401 -0.3058 0.0 0
M  V30 11 C -5.3756 -2.6231 0.0 0
M  V30 12 O -7.8811 -0.9645 0.0 0
M  V30 13 N -6.4695 1.1998 0.0 0
M  V30 14 C -7.7282 2.0349 0.0 0
M  V30 15 C -9.0691 1.3762 0.0 0
M  V30 16 C -7.6576 3.5406 0.0 0
M  V30 17 C -10.3278 2.2114 0.0 0
M  V30 18 C -8.9162 4.3757 0.0 0
M  V30 19 N -11.6687 1.5527 0.0 0
M  V30 20 C -10.2572 3.717 0.0 0
M  V30 21 C -12.9274 2.3878 0.0 0
M  V30 22 C -11.7628 0.0705 0.0 0
M  V30 23 C -11.5158 4.5522 0.0 0
M  V30 24 O -12.8568 3.8935 0.0 0
M  V30 25 N -14.2683 1.7291 0.0 0
M  V30 26 C -13.1038 -0.5881 0.0 0
M  V30 27 C -14.3624 0.247 0.0 0
M  V30 28 C -15.527 2.5643 0.0 0
M  V30 29 C -13.1979 -2.0702 0.0 0
M  V30 30 N -15.7034 -0.4117 0.0 0
M  V30 31 N -14.5389 -2.7289 0.0 0
M  V30 32 C -15.7975 -1.8938 0.0 0
M  V30 33 N -17.1385 -2.5525 0.0 0
M  V30 34 C -18.3971 -1.7173 0.0 0
M  V30 35 C -19.7381 -2.3761 0.0 0
M  V30 36 C -18.3265 -0.2117 0.0 0
M  V30 37 N -20.9967 -1.5409 0.0 0
M  V30 38 C -19.5851 0.6234 0.0 0
M  V30 39 C -20.9261 -0.0352 0.0 0
M  V30 40 C -22.1847 0.7998 0.0 0
M  V30 END ATOM
M  V30 BEGIN BOND
M  V30 1 1 1 2
M  V30 2 1 2 3
M  V30 3 1 2 4
M  V30 4 1 2 5
M  V30 5 2 5 6
M  V30 6 1 5 7
M  V30 7 1 6 8
M  V30 8 2 7 9
M  V30 9 1 8 10
M  V30 10 2 8 11
M  V30 11 2 10 12
M  V30 12 1 10 13
M  V30 13 1 13 14
M  V30 14 2 14 15
M  V30 15 1 14 16
M  V30 16 1 15 17
M  V30 17 2 16 18
M  V30 18 1 17 19
M  V30 19 2 17 20
M  V30 20 1 19 21
M  V30 21 1 19 22
M  V30 22 1 20 23
M  V30 23 2 21 24
M  V30 24 1 21 25
M  V30 25 1 22 26
M  V30 26 1 25 27
M  V30 27 1 25 28
M  V30 28 1 26 29
M  V30 29 1 27 30
M  V30 30 2 29 31
M  V30 31 2 30 32
M  V30 32 1 32 33
M  V30 33 1 33 34
M  V30 34 2 34 35
M  V30 35 1 34 36
M  V30 36 1 35 37
M  V30 37 2 36 38
M  V30 38 2 37 39
M  V30 39 1 39 40
M  V30 40 1 9 11
M  V30 41 1 18 20
M  V30 42 2 26 27
M  V30 43 1 31 32
M  V30 44 1 38 39
M  V30 END BOND
M  V30 END CTAB
M  END
>  <Compound ID>
222

>  <Name>
GNF-7

>  <Uniprot>
P41240

>  <Target>
CSK

>  <Smiles>
CC1=CC=C(NC2=NC=C3CN(C4=CC(NC(=O)C5=CC=CC(C(F)(F)F)=C5)=CC=C4C)C(=O)N(C)C3=N2)C=N1

>  <Kd (nM)>


>  <Assay (Kd)>


>  <Ki (nM)>


>  <Assay (Ki)>


>  <IC50 (nM)>


>  <Assay (IC50)>


>  <EC50 (nM)>


>  <Assay (EC50)>


>  <Article DOI>


>  <Molecular Weight>
547.541

>  <Exact Mass>
547.194357668

>  <XLogP3>
4.33

>  <Heavy Atom Count>
40

>  <Ring Count>
5

>  <Hydrogen Bond Acceptor Count>
6

>  <Hydrogen Bond Donor Count>
2

>  <Rotatable Bond Count>
5

>  <Topological Polar Surface Area>
103.35

>  <Molecular Formula>
C28H24F3N7O2

>  <InChI>
InChI=1S/C28H24F3N7O2/c1-16-7-9-21(34-25(39)18-5-4-6-20(11-18)28(29,30)31)12-23(16)38-15-19-13-33-26(36-24(19)37(3)27(38)40)35-22-10-8-17(2)32-14-22/h4-14H,15H2,1-3H3,(H,34,39)(H,33,35,36)

>  <InChI Key>
SZNYUUZOQHNEKB-UHFFFAOYSA-N

>  <BindingDB>
50323777

>  <PubChem>
11478363

>  <ChEMBL>
CHEMBL1214141

$$$$
Compound 749
Actelion Java MolfileCreator 2.0

  0  0  0  0  0  0              0 V3000
M  V30 BEGIN CTAB
M  V30 COUNTS 40 44 0 0 0
M  V30 BEGIN ATOM
M  V30 1 F 0.0 0.0 0.0 0
M  V30 2 C -1.3409 -0.6587 0.0 0
M  V30 3 F -0.6822 -1.9761 0.0 0
M  V30 4 F -2.0232 0.6822 0.0 0
M  V30 5 C -2.6819 -1.3174 0.0 0
M  V30 6 C -3.9405 -0.4822 0.0 0
M  V30 7 C -2.776 -2.7995 0.0 0
M  V30 8 C -5.2815 -1.1409 0.0 0
M  V30 9 C -4.117 -3.4582 0.0 0
M  V30 10 C -6.5401 -0.3058 0.0 0
M  V30 11 C -5.3756 -2.6231 0.0 0
M  V30 12 O -7.8811 -0.9645 0.0 0
M  V30 13 N -6.4695 1.1998 0.0 0
M  V30 14 C -7.7282 2.0349 0.0 0
M  V30 15 C -9.0691 1.3762 0.0 0
M  V30 16 C -7.6576 3.5406 0.0 0
M  V30 17 C -10.3278 2.2114 0.0 0
M  V30 18 C -8.9162 4.3757 0.0 0
M  V30 19 N -11.6687 1.5527 0.0 0
M  V30 20 C -10.2572 3.717 0.0 0
M  V30 21 C -12.9274 2.3878 0.0 0
M  V30 22 C -11.7628 0.0705 0.0 0
M  V30 23 C -11.5158 4.5522 0.0 0
M  V30 24 O -12.8568 3.8935 0.0 0
M  V30 25 N -14.2683 1.7291 0.0 0
M  V30 26 C -13.1038 -0.5881 0.0 0
M  V30 27 C -14.3624 0.247 0.0 0
M  V30 28 C -15.527 2.5643 0.0 0
M  V30 29 C -13.1979 -2.0702 0.0 0
M  V30 30 N -15.7034 -0.4117 0.0 0
M  V30 31 N -14.5389 -2.7289 0.0 0
M  V30 32 C -15.7975 -1.8938 0.0 0
M  V30 33 N -17.1385 -2.5525 0.0 0
M  V30 34 C -18.3971 -1.7173 0.0 0
M  V30 35 C -19.7381 -2.3761 0.0 0
M  V30 36 C -18.3265 -0.2117 0.0 0
M  V30 37 N -20.9967 -1.5409 0.0 0
M  V30 38 C -19.5851 0.6234 0.0 0
M  V30 39 C -20.9261 -0.0352 0.0 0
M  V30 40 C -22.1847 0.7998 0.0 0
M  V30 END ATOM
M  V30 BEGIN BOND
M  V30 1 1 1 2
M  V30 2 1 2 3
M  V30 3 1 2 4
M  V30 4 1 2 5
M  V30 5 2 5 6
M  V30 6 1 5 7
M  V30 7 1 6 8
M  V30 8 2 7 9
M  V30 9 1 8 10
M  V30 10 2 8 11
M  V30 11 2 10 12
M  V30 12 1 10 13
M  V30 13 1 13 14
M  V30 14 2 14 15
M  V30 15 1 14 16
M  V30 16 1 15 17
M  V30 17 2 16 18
M  V30 18 1 17 19
M  V30 19 2 17 20
M  V30 20 1 19 21
M  V30 21 1 19 22
M  V30 22 1 20 23
M  V30 23 2 21 24
M  V30 24 1 21 25
M  V30 25 1 22 26
M  V30 26 1 25 27
M  V30 27 1 25 28
M  V30 28 1 26 29
M  V30 29 1 27 30
M  V30 30 2 29 31
M  V30 31 2 30 32
M  V30 32 1 32 33
M  V30 33 1 33 34
M  V30 34 2 34 35
M  V30 35 1 34 36
M  V30 36 1 35 37
M  V30 37 2 36 38
M  V30 38 2 37 39
M  V30 39 1 39 40
M  V30 40 1 9 11
M  V30 41 1 18 20
M  V30 42 2 26 27
M  V30 43 1 31 32
M  V30 44 1 38 39
M  V30 END BOND
M  V30 END CTAB
M  END
>  <Compound ID>
222

>  <Name>
GNF-7

>  <Uniprot>
Q16832

>  <Target>
DDR2

>  <Smiles>
CC1=CC=C(NC2=NC=C3CN(C4=CC(NC(=O)C5=CC=CC(C(F)(F)F)=C5)=CC=C4C)C(=O)N(C)C3=N2)C=N1

>  <Kd (nM)>


>  <Assay (Kd)>


>  <Ki (nM)>


>  <Assay (Ki)>


>  <IC50 (nM)>


>  <Assay (IC50)>


>  <EC50 (nM)>


>  <Assay (EC50)>


>  <Article DOI>


>  <Molecular Weight>
547.541

>  <Exact Mass>
547.194357668

>  <XLogP3>
4.33

>  <Heavy Atom Count>
40

>  <Ring Count>
5

>  <Hydrogen Bond Acceptor Count>
6

>  <Hydrogen Bond Donor Count>
2

>  <Rotatable Bond Count>
5

>  <Topological Polar Surface Area>
103.35

>  <Molecular Formula>
C28H24F3N7O2

>  <InChI>
InChI=1S/C28H24F3N7O2/c1-16-7-9-21(34-25(39)18-5-4-6-20(11-18)28(29,30)31)12-23(16)38-15-19-13-33-26(36-24(19)37(3)27(38)40)35-22-10-8-17(2)32-14-22/h4-14H,15H2,1-3H3,(H,34,39)(H,33,35,36)

>  <InChI Key>
SZNYUUZOQHNEKB-UHFFFAOYSA-N

>  <BindingDB>
50323777

>  <PubChem>
11478363

>  <ChEMBL>
CHEMBL1214141

$$$$
Compound 750
Actelion Java MolfileCreator 2.0

  0  0  0  0  0  0              0 V3000
M  V30 BEGIN CTAB
M  V30 COUNTS 40 44 0 0 0
M  V30 BEGIN ATOM
M  V30 1 F 0.0 0.0 0.0 0
M  V30 2 C -1.3409 -0.6587 0.0 0
M  V30 3 F -0.6822 -1.9761 0.0 0
M  V30 4 F -2.0232 0.6822 0.0 0
M  V30 5 C -2.6819 -1.3174 0.0 0
M  V30 6 C -3.9405 -0.4822 0.0 0
M  V30 7 C -2.776 -2.7995 0.0 0
M  V30 8 C -5.2815 -1.1409 0.0 0
M  V30 9 C -4.117 -3.4582 0.0 0
M  V30 10 C -6.5401 -0.3058 0.0 0
M  V30 11 C -5.3756 -2.6231 0.0 0
M  V30 12 O -7.8811 -0.9645 0.0 0
M  V30 13 N -6.4695 1.1998 0.0 0
M  V30 14 C -7.7282 2.0349 0.0 0
M  V30 15 C -9.0691 1.3762 0.0 0
M  V30 16 C -7.6576 3.5406 0.0 0
M  V30 17 C -10.3278 2.2114 0.0 0
M  V30 18 C -8.9162 4.3757 0.0 0
M  V30 19 N -11.6687 1.5527 0.0 0
M  V30 20 C -10.2572 3.717 0.0 0
M  V30 21 C -12.9274 2.3878 0.0 0
M  V30 22 C -11.7628 0.0705 0.0 0
M  V30 23 C -11.5158 4.5522 0.0 0
M  V30 24 O -12.8568 3.8935 0.0 0
M  V30 25 N -14.2683 1.7291 0.0 0
M  V30 26 C -13.1038 -0.5881 0.0 0
M  V30 27 C -14.3624 0.247 0.0 0
M  V30 28 C -15.527 2.5643 0.0 0
M  V30 29 C -13.1979 -2.0702 0.0 0
M  V30 30 N -15.7034 -0.4117 0.0 0
M  V30 31 N -14.5389 -2.7289 0.0 0
M  V30 32 C -15.7975 -1.8938 0.0 0
M  V30 33 N -17.1385 -2.5525 0.0 0
M  V30 34 C -18.3971 -1.7173 0.0 0
M  V30 35 C -19.7381 -2.3761 0.0 0
M  V30 36 C -18.3265 -0.2117 0.0 0
M  V30 37 N -20.9967 -1.5409 0.0 0
M  V30 38 C -19.5851 0.6234 0.0 0
M  V30 39 C -20.9261 -0.0352 0.0 0
M  V30 40 C -22.1847 0.7998 0.0 0
M  V30 END ATOM
M  V30 BEGIN BOND
M  V30 1 1 1 2
M  V30 2 1 2 3
M  V30 3 1 2 4
M  V30 4 1 2 5
M  V30 5 2 5 6
M  V30 6 1 5 7
M  V30 7 1 6 8
M  V30 8 2 7 9
M  V30 9 1 8 10
M  V30 10 2 8 11
M  V30 11 2 10 12
M  V30 12 1 10 13
M  V30 13 1 13 14
M  V30 14 2 14 15
M  V30 15 1 14 16
M  V30 16 1 15 17
M  V30 17 2 16 18
M  V30 18 1 17 19
M  V30 19 2 17 20
M  V30 20 1 19 21
M  V30 21 1 19 22
M  V30 22 1 20 23
M  V30 23 2 21 24
M  V30 24 1 21 25
M  V30 25 1 22 26
M  V30 26 1 25 27
M  V30 27 1 25 28
M  V30 28 1 26 29
M  V30 29 1 27 30
M  V30 30 2 29 31
M  V30 31 2 30 32
M  V30 32 1 32 33
M  V30 33 1 33 34
M  V30 34 2 34 35
M  V30 35 1 34 36
M  V30 36 1 35 37
M  V30 37 2 36 38
M  V30 38 2 37 39
M  V30 39 1 39 40
M  V30 40 1 9 11
M  V30 41 1 18 20
M  V30 42 2 26 27
M  V30 43 1 31 32
M  V30 44 1 38 39
M  V30 END BOND
M  V30 END CTAB
M  END
>  <Compound ID>
222

>  <Name>
GNF-7

>  <Uniprot>
P29320

>  <Target>
EPHA3

>  <Smiles>
CC1=CC=C(NC2=NC=C3CN(C4=CC(NC(=O)C5=CC=CC(C(F)(F)F)=C5)=CC=C4C)C(=O)N(C)C3=N2)C=N1

>  <Kd (nM)>


>  <Assay (Kd)>


>  <Ki (nM)>


>  <Assay (Ki)>


>  <IC50 (nM)>


>  <Assay (IC50)>


>  <EC50 (nM)>


>  <Assay (EC50)>


>  <Article DOI>


>  <Molecular Weight>
547.541

>  <Exact Mass>
547.194357668

>  <XLogP3>
4.33

>  <Heavy Atom Count>
40

>  <Ring Count>
5

>  <Hydrogen Bond Acceptor Count>
6

>  <Hydrogen Bond Donor Count>
2

>  <Rotatable Bond Count>
5

>  <Topological Polar Surface Area>
103.35

>  <Molecular Formula>
C28H24F3N7O2

>  <InChI>
InChI=1S/C28H24F3N7O2/c1-16-7-9-21(34-25(39)18-5-4-6-20(11-18)28(29,30)31)12-23(16)38-15-19-13-33-26(36-24(19)37(3)27(38)40)35-22-10-8-17(2)32-14-22/h4-14H,15H2,1-3H3,(H,34,39)(H,33,35,36)

>  <InChI Key>
SZNYUUZOQHNEKB-UHFFFAOYSA-N

>  <BindingDB>
50323777

>  <PubChem>
11478363

>  <ChEMBL>
CHEMBL1214141

$$$$
Compound 751
Actelion Java MolfileCreator 2.0

  0  0  0  0  0  0              0 V3000
M  V30 BEGIN CTAB
M  V30 COUNTS 40 44 0 0 0
M  V30 BEGIN ATOM
M  V30 1 F 0.0 0.0 0.0 0
M  V30 2 C -1.3409 -0.6587 0.0 0
M  V30 3 F -0.6822 -1.9761 0.0 0
M  V30 4 F -2.0232 0.6822 0.0 0
M  V30 5 C -2.6819 -1.3174 0.0 0
M  V30 6 C -3.9405 -0.4822 0.0 0
M  V30 7 C -2.776 -2.7995 0.0 0
M  V30 8 C -5.2815 -1.1409 0.0 0
M  V30 9 C -4.117 -3.4582 0.0 0
M  V30 10 C -6.5401 -0.3058 0.0 0
M  V30 11 C -5.3756 -2.6231 0.0 0
M  V30 12 O -7.8811 -0.9645 0.0 0
M  V30 13 N -6.4695 1.1998 0.0 0
M  V30 14 C -7.7282 2.0349 0.0 0
M  V30 15 C -9.0691 1.3762 0.0 0
M  V30 16 C -7.6576 3.5406 0.0 0
M  V30 17 C -10.3278 2.2114 0.0 0
M  V30 18 C -8.9162 4.3757 0.0 0
M  V30 19 N -11.6687 1.5527 0.0 0
M  V30 20 C -10.2572 3.717 0.0 0
M  V30 21 C -12.9274 2.3878 0.0 0
M  V30 22 C -11.7628 0.0705 0.0 0
M  V30 23 C -11.5158 4.5522 0.0 0
M  V30 24 O -12.8568 3.8935 0.0 0
M  V30 25 N -14.2683 1.7291 0.0 0
M  V30 26 C -13.1038 -0.5881 0.0 0
M  V30 27 C -14.3624 0.247 0.0 0
M  V30 28 C -15.527 2.5643 0.0 0
M  V30 29 C -13.1979 -2.0702 0.0 0
M  V30 30 N -15.7034 -0.4117 0.0 0
M  V30 31 N -14.5389 -2.7289 0.0 0
M  V30 32 C -15.7975 -1.8938 0.0 0
M  V30 33 N -17.1385 -2.5525 0.0 0
M  V30 34 C -18.3971 -1.7173 0.0 0
M  V30 35 C -19.7381 -2.3761 0.0 0
M  V30 36 C -18.3265 -0.2117 0.0 0
M  V30 37 N -20.9967 -1.5409 0.0 0
M  V30 38 C -19.5851 0.6234 0.0 0
M  V30 39 C -20.9261 -0.0352 0.0 0
M  V30 40 C -22.1847 0.7998 0.0 0
M  V30 END ATOM
M  V30 BEGIN BOND
M  V30 1 1 1 2
M  V30 2 1 2 3
M  V30 3 1 2 4
M  V30 4 1 2 5
M  V30 5 2 5 6
M  V30 6 1 5 7
M  V30 7 1 6 8
M  V30 8 2 7 9
M  V30 9 1 8 10
M  V30 10 2 8 11
M  V30 11 2 10 12
M  V30 12 1 10 13
M  V30 13 1 13 14
M  V30 14 2 14 15
M  V30 15 1 14 16
M  V30 16 1 15 17
M  V30 17 2 16 18
M  V30 18 1 17 19
M  V30 19 2 17 20
M  V30 20 1 19 21
M  V30 21 1 19 22
M  V30 22 1 20 23
M  V30 23 2 21 24
M  V30 24 1 21 25
M  V30 25 1 22 26
M  V30 26 1 25 27
M  V30 27 1 25 28
M  V30 28 1 26 29
M  V30 29 1 27 30
M  V30 30 2 29 31
M  V30 31 2 30 32
M  V30 32 1 32 33
M  V30 33 1 33 34
M  V30 34 2 34 35
M  V30 35 1 34 36
M  V30 36 1 35 37
M  V30 37 2 36 38
M  V30 38 2 37 39
M  V30 39 1 39 40
M  V30 40 1 9 11
M  V30 41 1 18 20
M  V30 42 2 26 27
M  V30 43 1 31 32
M  V30 44 1 38 39
M  V30 END BOND
M  V30 END CTAB
M  END
>  <Compound ID>
222

>  <Name>
GNF-7

>  <Uniprot>
P54753

>  <Target>
EPHB3

>  <Smiles>
CC1=CC=C(NC2=NC=C3CN(C4=CC(NC(=O)C5=CC=CC(C(F)(F)F)=C5)=CC=C4C)C(=O)N(C)C3=N2)C=N1

>  <Kd (nM)>


>  <Assay (Kd)>


>  <Ki (nM)>


>  <Assay (Ki)>


>  <IC50 (nM)>


>  <Assay (IC50)>


>  <EC50 (nM)>


>  <Assay (EC50)>


>  <Article DOI>


>  <Molecular Weight>
547.541

>  <Exact Mass>
547.194357668

>  <XLogP3>
4.33

>  <Heavy Atom Count>
40

>  <Ring Count>
5

>  <Hydrogen Bond Acceptor Count>
6

>  <Hydrogen Bond Donor Count>
2

>  <Rotatable Bond Count>
5

>  <Topological Polar Surface Area>
103.35

>  <Molecular Formula>
C28H24F3N7O2

>  <InChI>
InChI=1S/C28H24F3N7O2/c1-16-7-9-21(34-25(39)18-5-4-6-20(11-18)28(29,30)31)12-23(16)38-15-19-13-33-26(36-24(19)37(3)27(38)40)35-22-10-8-17(2)32-14-22/h4-14H,15H2,1-3H3,(H,34,39)(H,33,35,36)

>  <InChI Key>
SZNYUUZOQHNEKB-UHFFFAOYSA-N

>  <BindingDB>
50323777

>  <PubChem>
11478363

>  <ChEMBL>
CHEMBL1214141

$$$$
Compound 752
Actelion Java MolfileCreator 2.0

  0  0  0  0  0  0              0 V3000
M  V30 BEGIN CTAB
M  V30 COUNTS 40 44 0 0 0
M  V30 BEGIN ATOM
M  V30 1 F 0.0 0.0 0.0 0
M  V30 2 C -1.3409 -0.6587 0.0 0
M  V30 3 F -0.6822 -1.9761 0.0 0
M  V30 4 F -2.0232 0.6822 0.0 0
M  V30 5 C -2.6819 -1.3174 0.0 0
M  V30 6 C -3.9405 -0.4822 0.0 0
M  V30 7 C -2.776 -2.7995 0.0 0
M  V30 8 C -5.2815 -1.1409 0.0 0
M  V30 9 C -4.117 -3.4582 0.0 0
M  V30 10 C -6.5401 -0.3058 0.0 0
M  V30 11 C -5.3756 -2.6231 0.0 0
M  V30 12 O -7.8811 -0.9645 0.0 0
M  V30 13 N -6.4695 1.1998 0.0 0
M  V30 14 C -7.7282 2.0349 0.0 0
M  V30 15 C -9.0691 1.3762 0.0 0
M  V30 16 C -7.6576 3.5406 0.0 0
M  V30 17 C -10.3278 2.2114 0.0 0
M  V30 18 C -8.9162 4.3757 0.0 0
M  V30 19 N -11.6687 1.5527 0.0 0
M  V30 20 C -10.2572 3.717 0.0 0
M  V30 21 C -12.9274 2.3878 0.0 0
M  V30 22 C -11.7628 0.0705 0.0 0
M  V30 23 C -11.5158 4.5522 0.0 0
M  V30 24 O -12.8568 3.8935 0.0 0
M  V30 25 N -14.2683 1.7291 0.0 0
M  V30 26 C -13.1038 -0.5881 0.0 0
M  V30 27 C -14.3624 0.247 0.0 0
M  V30 28 C -15.527 2.5643 0.0 0
M  V30 29 C -13.1979 -2.0702 0.0 0
M  V30 30 N -15.7034 -0.4117 0.0 0
M  V30 31 N -14.5389 -2.7289 0.0 0
M  V30 32 C -15.7975 -1.8938 0.0 0
M  V30 33 N -17.1385 -2.5525 0.0 0
M  V30 34 C -18.3971 -1.7173 0.0 0
M  V30 35 C -19.7381 -2.3761 0.0 0
M  V30 36 C -18.3265 -0.2117 0.0 0
M  V30 37 N -20.9967 -1.5409 0.0 0
M  V30 38 C -19.5851 0.6234 0.0 0
M  V30 39 C -20.9261 -0.0352 0.0 0
M  V30 40 C -22.1847 0.7998 0.0 0
M  V30 END ATOM
M  V30 BEGIN BOND
M  V30 1 1 1 2
M  V30 2 1 2 3
M  V30 3 1 2 4
M  V30 4 1 2 5
M  V30 5 2 5 6
M  V30 6 1 5 7
M  V30 7 1 6 8
M  V30 8 2 7 9
M  V30 9 1 8 10
M  V30 10 2 8 11
M  V30 11 2 10 12
M  V30 12 1 10 13
M  V30 13 1 13 14
M  V30 14 2 14 15
M  V30 15 1 14 16
M  V30 16 1 15 17
M  V30 17 2 16 18
M  V30 18 1 17 19
M  V30 19 2 17 20
M  V30 20 1 19 21
M  V30 21 1 19 22
M  V30 22 1 20 23
M  V30 23 2 21 24
M  V30 24 1 21 25
M  V30 25 1 22 26
M  V30 26 1 25 27
M  V30 27 1 25 28
M  V30 28 1 26 29
M  V30 29 1 27 30
M  V30 30 2 29 31
M  V30 31 2 30 32
M  V30 32 1 32 33
M  V30 33 1 33 34
M  V30 34 2 34 35
M  V30 35 1 34 36
M  V30 36 1 35 37
M  V30 37 2 36 38
M  V30 38 2 37 39
M  V30 39 1 39 40
M  V30 40 1 9 11
M  V30 41 1 18 20
M  V30 42 2 26 27
M  V30 43 1 31 32
M  V30 44 1 38 39
M  V30 END BOND
M  V30 END CTAB
M  END
>  <Compound ID>
222

>  <Name>
GNF-7

>  <Uniprot>
O15197

>  <Target>
EPHB6

>  <Smiles>
CC1=CC=C(NC2=NC=C3CN(C4=CC(NC(=O)C5=CC=CC(C(F)(F)F)=C5)=CC=C4C)C(=O)N(C)C3=N2)C=N1

>  <Kd (nM)>


>  <Assay (Kd)>


>  <Ki (nM)>


>  <Assay (Ki)>


>  <IC50 (nM)>


>  <Assay (IC50)>


>  <EC50 (nM)>


>  <Assay (EC50)>


>  <Article DOI>


>  <Molecular Weight>
547.541

>  <Exact Mass>
547.194357668

>  <XLogP3>
4.33

>  <Heavy Atom Count>
40

>  <Ring Count>
5

>  <Hydrogen Bond Acceptor Count>
6

>  <Hydrogen Bond Donor Count>
2

>  <Rotatable Bond Count>
5

>  <Topological Polar Surface Area>
103.35

>  <Molecular Formula>
C28H24F3N7O2

>  <InChI>
InChI=1S/C28H24F3N7O2/c1-16-7-9-21(34-25(39)18-5-4-6-20(11-18)28(29,30)31)12-23(16)38-15-19-13-33-26(36-24(19)37(3)27(38)40)35-22-10-8-17(2)32-14-22/h4-14H,15H2,1-3H3,(H,34,39)(H,33,35,36)

>  <InChI Key>
SZNYUUZOQHNEKB-UHFFFAOYSA-N

>  <BindingDB>
50323777

>  <PubChem>
11478363

>  <ChEMBL>
CHEMBL1214141

$$$$
Compound 753
Actelion Java MolfileCreator 2.0

  0  0  0  0  0  0              0 V3000
M  V30 BEGIN CTAB
M  V30 COUNTS 40 44 0 0 0
M  V30 BEGIN ATOM
M  V30 1 F 0.0 0.0 0.0 0
M  V30 2 C -1.3409 -0.6587 0.0 0
M  V30 3 F -0.6822 -1.9761 0.0 0
M  V30 4 F -2.0232 0.6822 0.0 0
M  V30 5 C -2.6819 -1.3174 0.0 0
M  V30 6 C -3.9405 -0.4822 0.0 0
M  V30 7 C -2.776 -2.7995 0.0 0
M  V30 8 C -5.2815 -1.1409 0.0 0
M  V30 9 C -4.117 -3.4582 0.0 0
M  V30 10 C -6.5401 -0.3058 0.0 0
M  V30 11 C -5.3756 -2.6231 0.0 0
M  V30 12 O -7.8811 -0.9645 0.0 0
M  V30 13 N -6.4695 1.1998 0.0 0
M  V30 14 C -7.7282 2.0349 0.0 0
M  V30 15 C -9.0691 1.3762 0.0 0
M  V30 16 C -7.6576 3.5406 0.0 0
M  V30 17 C -10.3278 2.2114 0.0 0
M  V30 18 C -8.9162 4.3757 0.0 0
M  V30 19 N -11.6687 1.5527 0.0 0
M  V30 20 C -10.2572 3.717 0.0 0
M  V30 21 C -12.9274 2.3878 0.0 0
M  V30 22 C -11.7628 0.0705 0.0 0
M  V30 23 C -11.5158 4.5522 0.0 0
M  V30 24 O -12.8568 3.8935 0.0 0
M  V30 25 N -14.2683 1.7291 0.0 0
M  V30 26 C -13.1038 -0.5881 0.0 0
M  V30 27 C -14.3624 0.247 0.0 0
M  V30 28 C -15.527 2.5643 0.0 0
M  V30 29 C -13.1979 -2.0702 0.0 0
M  V30 30 N -15.7034 -0.4117 0.0 0
M  V30 31 N -14.5389 -2.7289 0.0 0
M  V30 32 C -15.7975 -1.8938 0.0 0
M  V30 33 N -17.1385 -2.5525 0.0 0
M  V30 34 C -18.3971 -1.7173 0.0 0
M  V30 35 C -19.7381 -2.3761 0.0 0
M  V30 36 C -18.3265 -0.2117 0.0 0
M  V30 37 N -20.9967 -1.5409 0.0 0
M  V30 38 C -19.5851 0.6234 0.0 0
M  V30 39 C -20.9261 -0.0352 0.0 0
M  V30 40 C -22.1847 0.7998 0.0 0
M  V30 END ATOM
M  V30 BEGIN BOND
M  V30 1 1 1 2
M  V30 2 1 2 3
M  V30 3 1 2 4
M  V30 4 1 2 5
M  V30 5 2 5 6
M  V30 6 1 5 7
M  V30 7 1 6 8
M  V30 8 2 7 9
M  V30 9 1 8 10
M  V30 10 2 8 11
M  V30 11 2 10 12
M  V30 12 1 10 13
M  V30 13 1 13 14
M  V30 14 2 14 15
M  V30 15 1 14 16
M  V30 16 1 15 17
M  V30 17 2 16 18
M  V30 18 1 17 19
M  V30 19 2 17 20
M  V30 20 1 19 21
M  V30 21 1 19 22
M  V30 22 1 20 23
M  V30 23 2 21 24
M  V30 24 1 21 25
M  V30 25 1 22 26
M  V30 26 1 25 27
M  V30 27 1 25 28
M  V30 28 1 26 29
M  V30 29 1 27 30
M  V30 30 2 29 31
M  V30 31 2 30 32
M  V30 32 1 32 33
M  V30 33 1 33 34
M  V30 34 2 34 35
M  V30 35 1 34 36
M  V30 36 1 35 37
M  V30 37 2 36 38
M  V30 38 2 37 39
M  V30 39 1 39 40
M  V30 40 1 9 11
M  V30 41 1 18 20
M  V30 42 2 26 27
M  V30 43 1 31 32
M  V30 44 1 38 39
M  V30 END BOND
M  V30 END CTAB
M  END
>  <Compound ID>
222

>  <Name>
GNF-7

>  <Uniprot>
Q05397

>  <Target>
FAK

>  <Smiles>
CC1=CC=C(NC2=NC=C3CN(C4=CC(NC(=O)C5=CC=CC(C(F)(F)F)=C5)=CC=C4C)C(=O)N(C)C3=N2)C=N1

>  <Kd (nM)>


>  <Assay (Kd)>


>  <Ki (nM)>


>  <Assay (Ki)>


>  <IC50 (nM)>


>  <Assay (IC50)>


>  <EC50 (nM)>


>  <Assay (EC50)>


>  <Article DOI>


>  <Molecular Weight>
547.541

>  <Exact Mass>
547.194357668

>  <XLogP3>
4.33

>  <Heavy Atom Count>
40

>  <Ring Count>
5

>  <Hydrogen Bond Acceptor Count>
6

>  <Hydrogen Bond Donor Count>
2

>  <Rotatable Bond Count>
5

>  <Topological Polar Surface Area>
103.35

>  <Molecular Formula>
C28H24F3N7O2

>  <InChI>
InChI=1S/C28H24F3N7O2/c1-16-7-9-21(34-25(39)18-5-4-6-20(11-18)28(29,30)31)12-23(16)38-15-19-13-33-26(36-24(19)37(3)27(38)40)35-22-10-8-17(2)32-14-22/h4-14H,15H2,1-3H3,(H,34,39)(H,33,35,36)

>  <InChI Key>
SZNYUUZOQHNEKB-UHFFFAOYSA-N

>  <BindingDB>
50323777

>  <PubChem>
11478363

>  <ChEMBL>
CHEMBL1214141

$$$$
Compound 754
Actelion Java MolfileCreator 2.0

  0  0  0  0  0  0              0 V3000
M  V30 BEGIN CTAB
M  V30 COUNTS 40 44 0 0 0
M  V30 BEGIN ATOM
M  V30 1 F 0.0 0.0 0.0 0
M  V30 2 C -1.3409 -0.6587 0.0 0
M  V30 3 F -0.6822 -1.9761 0.0 0
M  V30 4 F -2.0232 0.6822 0.0 0
M  V30 5 C -2.6819 -1.3174 0.0 0
M  V30 6 C -3.9405 -0.4822 0.0 0
M  V30 7 C -2.776 -2.7995 0.0 0
M  V30 8 C -5.2815 -1.1409 0.0 0
M  V30 9 C -4.117 -3.4582 0.0 0
M  V30 10 C -6.5401 -0.3058 0.0 0
M  V30 11 C -5.3756 -2.6231 0.0 0
M  V30 12 O -7.8811 -0.9645 0.0 0
M  V30 13 N -6.4695 1.1998 0.0 0
M  V30 14 C -7.7282 2.0349 0.0 0
M  V30 15 C -9.0691 1.3762 0.0 0
M  V30 16 C -7.6576 3.5406 0.0 0
M  V30 17 C -10.3278 2.2114 0.0 0
M  V30 18 C -8.9162 4.3757 0.0 0
M  V30 19 N -11.6687 1.5527 0.0 0
M  V30 20 C -10.2572 3.717 0.0 0
M  V30 21 C -12.9274 2.3878 0.0 0
M  V30 22 C -11.7628 0.0705 0.0 0
M  V30 23 C -11.5158 4.5522 0.0 0
M  V30 24 O -12.8568 3.8935 0.0 0
M  V30 25 N -14.2683 1.7291 0.0 0
M  V30 26 C -13.1038 -0.5881 0.0 0
M  V30 27 C -14.3624 0.247 0.0 0
M  V30 28 C -15.527 2.5643 0.0 0
M  V30 29 C -13.1979 -2.0702 0.0 0
M  V30 30 N -15.7034 -0.4117 0.0 0
M  V30 31 N -14.5389 -2.7289 0.0 0
M  V30 32 C -15.7975 -1.8938 0.0 0
M  V30 33 N -17.1385 -2.5525 0.0 0
M  V30 34 C -18.3971 -1.7173 0.0 0
M  V30 35 C -19.7381 -2.3761 0.0 0
M  V30 36 C -18.3265 -0.2117 0.0 0
M  V30 37 N -20.9967 -1.5409 0.0 0
M  V30 38 C -19.5851 0.6234 0.0 0
M  V30 39 C -20.9261 -0.0352 0.0 0
M  V30 40 C -22.1847 0.7998 0.0 0
M  V30 END ATOM
M  V30 BEGIN BOND
M  V30 1 1 1 2
M  V30 2 1 2 3
M  V30 3 1 2 4
M  V30 4 1 2 5
M  V30 5 2 5 6
M  V30 6 1 5 7
M  V30 7 1 6 8
M  V30 8 2 7 9
M  V30 9 1 8 10
M  V30 10 2 8 11
M  V30 11 2 10 12
M  V30 12 1 10 13
M  V30 13 1 13 14
M  V30 14 2 14 15
M  V30 15 1 14 16
M  V30 16 1 15 17
M  V30 17 2 16 18
M  V30 18 1 17 19
M  V30 19 2 17 20
M  V30 20 1 19 21
M  V30 21 1 19 22
M  V30 22 1 20 23
M  V30 23 2 21 24
M  V30 24 1 21 25
M  V30 25 1 22 26
M  V30 26 1 25 27
M  V30 27 1 25 28
M  V30 28 1 26 29
M  V30 29 1 27 30
M  V30 30 2 29 31
M  V30 31 2 30 32
M  V30 32 1 32 33
M  V30 33 1 33 34
M  V30 34 2 34 35
M  V30 35 1 34 36
M  V30 36 1 35 37
M  V30 37 2 36 38
M  V30 38 2 37 39
M  V30 39 1 39 40
M  V30 40 1 9 11
M  V30 41 1 18 20
M  V30 42 2 26 27
M  V30 43 1 31 32
M  V30 44 1 38 39
M  V30 END BOND
M  V30 END CTAB
M  END
>  <Compound ID>
222

>  <Name>
GNF-7

>  <Uniprot>
P16591

>  <Target>
FER

>  <Smiles>
CC1=CC=C(NC2=NC=C3CN(C4=CC(NC(=O)C5=CC=CC(C(F)(F)F)=C5)=CC=C4C)C(=O)N(C)C3=N2)C=N1

>  <Kd (nM)>


>  <Assay (Kd)>


>  <Ki (nM)>


>  <Assay (Ki)>


>  <IC50 (nM)>


>  <Assay (IC50)>


>  <EC50 (nM)>


>  <Assay (EC50)>


>  <Article DOI>


>  <Molecular Weight>
547.541

>  <Exact Mass>
547.194357668

>  <XLogP3>
4.33

>  <Heavy Atom Count>
40

>  <Ring Count>
5

>  <Hydrogen Bond Acceptor Count>
6

>  <Hydrogen Bond Donor Count>
2

>  <Rotatable Bond Count>
5

>  <Topological Polar Surface Area>
103.35

>  <Molecular Formula>
C28H24F3N7O2

>  <InChI>
InChI=1S/C28H24F3N7O2/c1-16-7-9-21(34-25(39)18-5-4-6-20(11-18)28(29,30)31)12-23(16)38-15-19-13-33-26(36-24(19)37(3)27(38)40)35-22-10-8-17(2)32-14-22/h4-14H,15H2,1-3H3,(H,34,39)(H,33,35,36)

>  <InChI Key>
SZNYUUZOQHNEKB-UHFFFAOYSA-N

>  <BindingDB>
50323777

>  <PubChem>
11478363

>  <ChEMBL>
CHEMBL1214141

$$$$
Compound 755
Actelion Java MolfileCreator 2.0

  0  0  0  0  0  0              0 V3000
M  V30 BEGIN CTAB
M  V30 COUNTS 40 44 0 0 0
M  V30 BEGIN ATOM
M  V30 1 F 0.0 0.0 0.0 0
M  V30 2 C -1.3409 -0.6587 0.0 0
M  V30 3 F -0.6822 -1.9761 0.0 0
M  V30 4 F -2.0232 0.6822 0.0 0
M  V30 5 C -2.6819 -1.3174 0.0 0
M  V30 6 C -3.9405 -0.4822 0.0 0
M  V30 7 C -2.776 -2.7995 0.0 0
M  V30 8 C -5.2815 -1.1409 0.0 0
M  V30 9 C -4.117 -3.4582 0.0 0
M  V30 10 C -6.5401 -0.3058 0.0 0
M  V30 11 C -5.3756 -2.6231 0.0 0
M  V30 12 O -7.8811 -0.9645 0.0 0
M  V30 13 N -6.4695 1.1998 0.0 0
M  V30 14 C -7.7282 2.0349 0.0 0
M  V30 15 C -9.0691 1.3762 0.0 0
M  V30 16 C -7.6576 3.5406 0.0 0
M  V30 17 C -10.3278 2.2114 0.0 0
M  V30 18 C -8.9162 4.3757 0.0 0
M  V30 19 N -11.6687 1.5527 0.0 0
M  V30 20 C -10.2572 3.717 0.0 0
M  V30 21 C -12.9274 2.3878 0.0 0
M  V30 22 C -11.7628 0.0705 0.0 0
M  V30 23 C -11.5158 4.5522 0.0 0
M  V30 24 O -12.8568 3.8935 0.0 0
M  V30 25 N -14.2683 1.7291 0.0 0
M  V30 26 C -13.1038 -0.5881 0.0 0
M  V30 27 C -14.3624 0.247 0.0 0
M  V30 28 C -15.527 2.5643 0.0 0
M  V30 29 C -13.1979 -2.0702 0.0 0
M  V30 30 N -15.7034 -0.4117 0.0 0
M  V30 31 N -14.5389 -2.7289 0.0 0
M  V30 32 C -15.7975 -1.8938 0.0 0
M  V30 33 N -17.1385 -2.5525 0.0 0
M  V30 34 C -18.3971 -1.7173 0.0 0
M  V30 35 C -19.7381 -2.3761 0.0 0
M  V30 36 C -18.3265 -0.2117 0.0 0
M  V30 37 N -20.9967 -1.5409 0.0 0
M  V30 38 C -19.5851 0.6234 0.0 0
M  V30 39 C -20.9261 -0.0352 0.0 0
M  V30 40 C -22.1847 0.7998 0.0 0
M  V30 END ATOM
M  V30 BEGIN BOND
M  V30 1 1 1 2
M  V30 2 1 2 3
M  V30 3 1 2 4
M  V30 4 1 2 5
M  V30 5 2 5 6
M  V30 6 1 5 7
M  V30 7 1 6 8
M  V30 8 2 7 9
M  V30 9 1 8 10
M  V30 10 2 8 11
M  V30 11 2 10 12
M  V30 12 1 10 13
M  V30 13 1 13 14
M  V30 14 2 14 15
M  V30 15 1 14 16
M  V30 16 1 15 17
M  V30 17 2 16 18
M  V30 18 1 17 19
M  V30 19 2 17 20
M  V30 20 1 19 21
M  V30 21 1 19 22
M  V30 22 1 20 23
M  V30 23 2 21 24
M  V30 24 1 21 25
M  V30 25 1 22 26
M  V30 26 1 25 27
M  V30 27 1 25 28
M  V30 28 1 26 29
M  V30 29 1 27 30
M  V30 30 2 29 31
M  V30 31 2 30 32
M  V30 32 1 32 33
M  V30 33 1 33 34
M  V30 34 2 34 35
M  V30 35 1 34 36
M  V30 36 1 35 37
M  V30 37 2 36 38
M  V30 38 2 37 39
M  V30 39 1 39 40
M  V30 40 1 9 11
M  V30 41 1 18 20
M  V30 42 2 26 27
M  V30 43 1 31 32
M  V30 44 1 38 39
M  V30 END BOND
M  V30 END CTAB
M  END
>  <Compound ID>
222

>  <Name>
GNF-7

>  <Uniprot>
P06241

>  <Target>
FYN

>  <Smiles>
CC1=CC=C(NC2=NC=C3CN(C4=CC(NC(=O)C5=CC=CC(C(F)(F)F)=C5)=CC=C4C)C(=O)N(C)C3=N2)C=N1

>  <Kd (nM)>


>  <Assay (Kd)>


>  <Ki (nM)>


>  <Assay (Ki)>


>  <IC50 (nM)>


>  <Assay (IC50)>


>  <EC50 (nM)>


>  <Assay (EC50)>


>  <Article DOI>


>  <Molecular Weight>
547.541

>  <Exact Mass>
547.194357668

>  <XLogP3>
4.33

>  <Heavy Atom Count>
40

>  <Ring Count>
5

>  <Hydrogen Bond Acceptor Count>
6

>  <Hydrogen Bond Donor Count>
2

>  <Rotatable Bond Count>
5

>  <Topological Polar Surface Area>
103.35

>  <Molecular Formula>
C28H24F3N7O2

>  <InChI>
InChI=1S/C28H24F3N7O2/c1-16-7-9-21(34-25(39)18-5-4-6-20(11-18)28(29,30)31)12-23(16)38-15-19-13-33-26(36-24(19)37(3)27(38)40)35-22-10-8-17(2)32-14-22/h4-14H,15H2,1-3H3,(H,34,39)(H,33,35,36)

>  <InChI Key>
SZNYUUZOQHNEKB-UHFFFAOYSA-N

>  <BindingDB>
50323777

>  <PubChem>
11478363

>  <ChEMBL>
CHEMBL1214141

$$$$
Compound 756
Actelion Java MolfileCreator 2.0

  0  0  0  0  0  0              0 V3000
M  V30 BEGIN CTAB
M  V30 COUNTS 40 44 0 0 0
M  V30 BEGIN ATOM
M  V30 1 F 0.0 0.0 0.0 0
M  V30 2 C -1.3409 -0.6587 0.0 0
M  V30 3 F -0.6822 -1.9761 0.0 0
M  V30 4 F -2.0232 0.6822 0.0 0
M  V30 5 C -2.6819 -1.3174 0.0 0
M  V30 6 C -3.9405 -0.4822 0.0 0
M  V30 7 C -2.776 -2.7995 0.0 0
M  V30 8 C -5.2815 -1.1409 0.0 0
M  V30 9 C -4.117 -3.4582 0.0 0
M  V30 10 C -6.5401 -0.3058 0.0 0
M  V30 11 C -5.3756 -2.6231 0.0 0
M  V30 12 O -7.8811 -0.9645 0.0 0
M  V30 13 N -6.4695 1.1998 0.0 0
M  V30 14 C -7.7282 2.0349 0.0 0
M  V30 15 C -9.0691 1.3762 0.0 0
M  V30 16 C -7.6576 3.5406 0.0 0
M  V30 17 C -10.3278 2.2114 0.0 0
M  V30 18 C -8.9162 4.3757 0.0 0
M  V30 19 N -11.6687 1.5527 0.0 0
M  V30 20 C -10.2572 3.717 0.0 0
M  V30 21 C -12.9274 2.3878 0.0 0
M  V30 22 C -11.7628 0.0705 0.0 0
M  V30 23 C -11.5158 4.5522 0.0 0
M  V30 24 O -12.8568 3.8935 0.0 0
M  V30 25 N -14.2683 1.7291 0.0 0
M  V30 26 C -13.1038 -0.5881 0.0 0
M  V30 27 C -14.3624 0.247 0.0 0
M  V30 28 C -15.527 2.5643 0.0 0
M  V30 29 C -13.1979 -2.0702 0.0 0
M  V30 30 N -15.7034 -0.4117 0.0 0
M  V30 31 N -14.5389 -2.7289 0.0 0
M  V30 32 C -15.7975 -1.8938 0.0 0
M  V30 33 N -17.1385 -2.5525 0.0 0
M  V30 34 C -18.3971 -1.7173 0.0 0
M  V30 35 C -19.7381 -2.3761 0.0 0
M  V30 36 C -18.3265 -0.2117 0.0 0
M  V30 37 N -20.9967 -1.5409 0.0 0
M  V30 38 C -19.5851 0.6234 0.0 0
M  V30 39 C -20.9261 -0.0352 0.0 0
M  V30 40 C -22.1847 0.7998 0.0 0
M  V30 END ATOM
M  V30 BEGIN BOND
M  V30 1 1 1 2
M  V30 2 1 2 3
M  V30 3 1 2 4
M  V30 4 1 2 5
M  V30 5 2 5 6
M  V30 6 1 5 7
M  V30 7 1 6 8
M  V30 8 2 7 9
M  V30 9 1 8 10
M  V30 10 2 8 11
M  V30 11 2 10 12
M  V30 12 1 10 13
M  V30 13 1 13 14
M  V30 14 2 14 15
M  V30 15 1 14 16
M  V30 16 1 15 17
M  V30 17 2 16 18
M  V30 18 1 17 19
M  V30 19 2 17 20
M  V30 20 1 19 21
M  V30 21 1 19 22
M  V30 22 1 20 23
M  V30 23 2 21 24
M  V30 24 1 21 25
M  V30 25 1 22 26
M  V30 26 1 25 27
M  V30 27 1 25 28
M  V30 28 1 26 29
M  V30 29 1 27 30
M  V30 30 2 29 31
M  V30 31 2 30 32
M  V30 32 1 32 33
M  V30 33 1 33 34
M  V30 34 2 34 35
M  V30 35 1 34 36
M  V30 36 1 35 37
M  V30 37 2 36 38
M  V30 38 2 37 39
M  V30 39 1 39 40
M  V30 40 1 9 11
M  V30 41 1 18 20
M  V30 42 2 26 27
M  V30 43 1 31 32
M  V30 44 1 38 39
M  V30 END BOND
M  V30 END CTAB
M  END
>  <Compound ID>
222

>  <Name>
GNF-7

>  <Uniprot>
O14976

>  <Target>
GAK

>  <Smiles>
CC1=CC=C(NC2=NC=C3CN(C4=CC(NC(=O)C5=CC=CC(C(F)(F)F)=C5)=CC=C4C)C(=O)N(C)C3=N2)C=N1

>  <Kd (nM)>


>  <Assay (Kd)>


>  <Ki (nM)>


>  <Assay (Ki)>


>  <IC50 (nM)>


>  <Assay (IC50)>


>  <EC50 (nM)>


>  <Assay (EC50)>


>  <Article DOI>


>  <Molecular Weight>
547.541

>  <Exact Mass>
547.194357668

>  <XLogP3>
4.33

>  <Heavy Atom Count>
40

>  <Ring Count>
5

>  <Hydrogen Bond Acceptor Count>
6

>  <Hydrogen Bond Donor Count>
2

>  <Rotatable Bond Count>
5

>  <Topological Polar Surface Area>
103.35

>  <Molecular Formula>
C28H24F3N7O2

>  <InChI>
InChI=1S/C28H24F3N7O2/c1-16-7-9-21(34-25(39)18-5-4-6-20(11-18)28(29,30)31)12-23(16)38-15-19-13-33-26(36-24(19)37(3)27(38)40)35-22-10-8-17(2)32-14-22/h4-14H,15H2,1-3H3,(H,34,39)(H,33,35,36)

>  <InChI Key>
SZNYUUZOQHNEKB-UHFFFAOYSA-N

>  <BindingDB>
50323777

>  <PubChem>
11478363

>  <ChEMBL>
CHEMBL1214141

$$$$
Compound 757
Actelion Java MolfileCreator 2.0

  0  0  0  0  0  0              0 V3000
M  V30 BEGIN CTAB
M  V30 COUNTS 40 44 0 0 0
M  V30 BEGIN ATOM
M  V30 1 F 0.0 0.0 0.0 0
M  V30 2 C -1.3409 -0.6587 0.0 0
M  V30 3 F -0.6822 -1.9761 0.0 0
M  V30 4 F -2.0232 0.6822 0.0 0
M  V30 5 C -2.6819 -1.3174 0.0 0
M  V30 6 C -3.9405 -0.4822 0.0 0
M  V30 7 C -2.776 -2.7995 0.0 0
M  V30 8 C -5.2815 -1.1409 0.0 0
M  V30 9 C -4.117 -3.4582 0.0 0
M  V30 10 C -6.5401 -0.3058 0.0 0
M  V30 11 C -5.3756 -2.6231 0.0 0
M  V30 12 O -7.8811 -0.9645 0.0 0
M  V30 13 N -6.4695 1.1998 0.0 0
M  V30 14 C -7.7282 2.0349 0.0 0
M  V30 15 C -9.0691 1.3762 0.0 0
M  V30 16 C -7.6576 3.5406 0.0 0
M  V30 17 C -10.3278 2.2114 0.0 0
M  V30 18 C -8.9162 4.3757 0.0 0
M  V30 19 N -11.6687 1.5527 0.0 0
M  V30 20 C -10.2572 3.717 0.0 0
M  V30 21 C -12.9274 2.3878 0.0 0
M  V30 22 C -11.7628 0.0705 0.0 0
M  V30 23 C -11.5158 4.5522 0.0 0
M  V30 24 O -12.8568 3.8935 0.0 0
M  V30 25 N -14.2683 1.7291 0.0 0
M  V30 26 C -13.1038 -0.5881 0.0 0
M  V30 27 C -14.3624 0.247 0.0 0
M  V30 28 C -15.527 2.5643 0.0 0
M  V30 29 C -13.1979 -2.0702 0.0 0
M  V30 30 N -15.7034 -0.4117 0.0 0
M  V30 31 N -14.5389 -2.7289 0.0 0
M  V30 32 C -15.7975 -1.8938 0.0 0
M  V30 33 N -17.1385 -2.5525 0.0 0
M  V30 34 C -18.3971 -1.7173 0.0 0
M  V30 35 C -19.7381 -2.3761 0.0 0
M  V30 36 C -18.3265 -0.2117 0.0 0
M  V30 37 N -20.9967 -1.5409 0.0 0
M  V30 38 C -19.5851 0.6234 0.0 0
M  V30 39 C -20.9261 -0.0352 0.0 0
M  V30 40 C -22.1847 0.7998 0.0 0
M  V30 END ATOM
M  V30 BEGIN BOND
M  V30 1 1 1 2
M  V30 2 1 2 3
M  V30 3 1 2 4
M  V30 4 1 2 5
M  V30 5 2 5 6
M  V30 6 1 5 7
M  V30 7 1 6 8
M  V30 8 2 7 9
M  V30 9 1 8 10
M  V30 10 2 8 11
M  V30 11 2 10 12
M  V30 12 1 10 13
M  V30 13 1 13 14
M  V30 14 2 14 15
M  V30 15 1 14 16
M  V30 16 1 15 17
M  V30 17 2 16 18
M  V30 18 1 17 19
M  V30 19 2 17 20
M  V30 20 1 19 21
M  V30 21 1 19 22
M  V30 22 1 20 23
M  V30 23 2 21 24
M  V30 24 1 21 25
M  V30 25 1 22 26
M  V30 26 1 25 27
M  V30 27 1 25 28
M  V30 28 1 26 29
M  V30 29 1 27 30
M  V30 30 2 29 31
M  V30 31 2 30 32
M  V30 32 1 32 33
M  V30 33 1 33 34
M  V30 34 2 34 35
M  V30 35 1 34 36
M  V30 36 1 35 37
M  V30 37 2 36 38
M  V30 38 2 37 39
M  V30 39 1 39 40
M  V30 40 1 9 11
M  V30 41 1 18 20
M  V30 42 2 26 27
M  V30 43 1 31 32
M  V30 44 1 38 39
M  V30 END BOND
M  V30 END CTAB
M  END
>  <Compound ID>
222

>  <Name>
GNF-7

>  <Uniprot>
O95835

>  <Target>
LATS1

>  <Smiles>
CC1=CC=C(NC2=NC=C3CN(C4=CC(NC(=O)C5=CC=CC(C(F)(F)F)=C5)=CC=C4C)C(=O)N(C)C3=N2)C=N1

>  <Kd (nM)>


>  <Assay (Kd)>


>  <Ki (nM)>


>  <Assay (Ki)>


>  <IC50 (nM)>


>  <Assay (IC50)>


>  <EC50 (nM)>


>  <Assay (EC50)>


>  <Article DOI>


>  <Molecular Weight>
547.541

>  <Exact Mass>
547.194357668

>  <XLogP3>
4.33

>  <Heavy Atom Count>
40

>  <Ring Count>
5

>  <Hydrogen Bond Acceptor Count>
6

>  <Hydrogen Bond Donor Count>
2

>  <Rotatable Bond Count>
5

>  <Topological Polar Surface Area>
103.35

>  <Molecular Formula>
C28H24F3N7O2

>  <InChI>
InChI=1S/C28H24F3N7O2/c1-16-7-9-21(34-25(39)18-5-4-6-20(11-18)28(29,30)31)12-23(16)38-15-19-13-33-26(36-24(19)37(3)27(38)40)35-22-10-8-17(2)32-14-22/h4-14H,15H2,1-3H3,(H,34,39)(H,33,35,36)

>  <InChI Key>
SZNYUUZOQHNEKB-UHFFFAOYSA-N

>  <BindingDB>
50323777

>  <PubChem>
11478363

>  <ChEMBL>
CHEMBL1214141

$$$$
Compound 758
Actelion Java MolfileCreator 2.0

  0  0  0  0  0  0              0 V3000
M  V30 BEGIN CTAB
M  V30 COUNTS 40 44 0 0 0
M  V30 BEGIN ATOM
M  V30 1 F 0.0 0.0 0.0 0
M  V30 2 C -1.3409 -0.6587 0.0 0
M  V30 3 F -0.6822 -1.9761 0.0 0
M  V30 4 F -2.0232 0.6822 0.0 0
M  V30 5 C -2.6819 -1.3174 0.0 0
M  V30 6 C -3.9405 -0.4822 0.0 0
M  V30 7 C -2.776 -2.7995 0.0 0
M  V30 8 C -5.2815 -1.1409 0.0 0
M  V30 9 C -4.117 -3.4582 0.0 0
M  V30 10 C -6.5401 -0.3058 0.0 0
M  V30 11 C -5.3756 -2.6231 0.0 0
M  V30 12 O -7.8811 -0.9645 0.0 0
M  V30 13 N -6.4695 1.1998 0.0 0
M  V30 14 C -7.7282 2.0349 0.0 0
M  V30 15 C -9.0691 1.3762 0.0 0
M  V30 16 C -7.6576 3.5406 0.0 0
M  V30 17 C -10.3278 2.2114 0.0 0
M  V30 18 C -8.9162 4.3757 0.0 0
M  V30 19 N -11.6687 1.5527 0.0 0
M  V30 20 C -10.2572 3.717 0.0 0
M  V30 21 C -12.9274 2.3878 0.0 0
M  V30 22 C -11.7628 0.0705 0.0 0
M  V30 23 C -11.5158 4.5522 0.0 0
M  V30 24 O -12.8568 3.8935 0.0 0
M  V30 25 N -14.2683 1.7291 0.0 0
M  V30 26 C -13.1038 -0.5881 0.0 0
M  V30 27 C -14.3624 0.247 0.0 0
M  V30 28 C -15.527 2.5643 0.0 0
M  V30 29 C -13.1979 -2.0702 0.0 0
M  V30 30 N -15.7034 -0.4117 0.0 0
M  V30 31 N -14.5389 -2.7289 0.0 0
M  V30 32 C -15.7975 -1.8938 0.0 0
M  V30 33 N -17.1385 -2.5525 0.0 0
M  V30 34 C -18.3971 -1.7173 0.0 0
M  V30 35 C -19.7381 -2.3761 0.0 0
M  V30 36 C -18.3265 -0.2117 0.0 0
M  V30 37 N -20.9967 -1.5409 0.0 0
M  V30 38 C -19.5851 0.6234 0.0 0
M  V30 39 C -20.9261 -0.0352 0.0 0
M  V30 40 C -22.1847 0.7998 0.0 0
M  V30 END ATOM
M  V30 BEGIN BOND
M  V30 1 1 1 2
M  V30 2 1 2 3
M  V30 3 1 2 4
M  V30 4 1 2 5
M  V30 5 2 5 6
M  V30 6 1 5 7
M  V30 7 1 6 8
M  V30 8 2 7 9
M  V30 9 1 8 10
M  V30 10 2 8 11
M  V30 11 2 10 12
M  V30 12 1 10 13
M  V30 13 1 13 14
M  V30 14 2 14 15
M  V30 15 1 14 16
M  V30 16 1 15 17
M  V30 17 2 16 18
M  V30 18 1 17 19
M  V30 19 2 17 20
M  V30 20 1 19 21
M  V30 21 1 19 22
M  V30 22 1 20 23
M  V30 23 2 21 24
M  V30 24 1 21 25
M  V30 25 1 22 26
M  V30 26 1 25 27
M  V30 27 1 25 28
M  V30 28 1 26 29
M  V30 29 1 27 30
M  V30 30 2 29 31
M  V30 31 2 30 32
M  V30 32 1 32 33
M  V30 33 1 33 34
M  V30 34 2 34 35
M  V30 35 1 34 36
M  V30 36 1 35 37
M  V30 37 2 36 38
M  V30 38 2 37 39
M  V30 39 1 39 40
M  V30 40 1 9 11
M  V30 41 1 18 20
M  V30 42 2 26 27
M  V30 43 1 31 32
M  V30 44 1 38 39
M  V30 END BOND
M  V30 END CTAB
M  END
>  <Compound ID>
222

>  <Name>
GNF-7

>  <Uniprot>
P06239

>  <Target>
LCK

>  <Smiles>
CC1=CC=C(NC2=NC=C3CN(C4=CC(NC(=O)C5=CC=CC(C(F)(F)F)=C5)=CC=C4C)C(=O)N(C)C3=N2)C=N1

>  <Kd (nM)>


>  <Assay (Kd)>


>  <Ki (nM)>


>  <Assay (Ki)>


>  <IC50 (nM)>


>  <Assay (IC50)>


>  <EC50 (nM)>


>  <Assay (EC50)>


>  <Article DOI>


>  <Molecular Weight>
547.541

>  <Exact Mass>
547.194357668

>  <XLogP3>
4.33

>  <Heavy Atom Count>
40

>  <Ring Count>
5

>  <Hydrogen Bond Acceptor Count>
6

>  <Hydrogen Bond Donor Count>
2

>  <Rotatable Bond Count>
5

>  <Topological Polar Surface Area>
103.35

>  <Molecular Formula>
C28H24F3N7O2

>  <InChI>
InChI=1S/C28H24F3N7O2/c1-16-7-9-21(34-25(39)18-5-4-6-20(11-18)28(29,30)31)12-23(16)38-15-19-13-33-26(36-24(19)37(3)27(38)40)35-22-10-8-17(2)32-14-22/h4-14H,15H2,1-3H3,(H,34,39)(H,33,35,36)

>  <InChI Key>
SZNYUUZOQHNEKB-UHFFFAOYSA-N

>  <BindingDB>
50323777

>  <PubChem>
11478363

>  <ChEMBL>
CHEMBL1214141

$$$$
Compound 759
Actelion Java MolfileCreator 2.0

  0  0  0  0  0  0              0 V3000
M  V30 BEGIN CTAB
M  V30 COUNTS 40 44 0 0 0
M  V30 BEGIN ATOM
M  V30 1 F 0.0 0.0 0.0 0
M  V30 2 C -1.3409 -0.6587 0.0 0
M  V30 3 F -0.6822 -1.9761 0.0 0
M  V30 4 F -2.0232 0.6822 0.0 0
M  V30 5 C -2.6819 -1.3174 0.0 0
M  V30 6 C -3.9405 -0.4822 0.0 0
M  V30 7 C -2.776 -2.7995 0.0 0
M  V30 8 C -5.2815 -1.1409 0.0 0
M  V30 9 C -4.117 -3.4582 0.0 0
M  V30 10 C -6.5401 -0.3058 0.0 0
M  V30 11 C -5.3756 -2.6231 0.0 0
M  V30 12 O -7.8811 -0.9645 0.0 0
M  V30 13 N -6.4695 1.1998 0.0 0
M  V30 14 C -7.7282 2.0349 0.0 0
M  V30 15 C -9.0691 1.3762 0.0 0
M  V30 16 C -7.6576 3.5406 0.0 0
M  V30 17 C -10.3278 2.2114 0.0 0
M  V30 18 C -8.9162 4.3757 0.0 0
M  V30 19 N -11.6687 1.5527 0.0 0
M  V30 20 C -10.2572 3.717 0.0 0
M  V30 21 C -12.9274 2.3878 0.0 0
M  V30 22 C -11.7628 0.0705 0.0 0
M  V30 23 C -11.5158 4.5522 0.0 0
M  V30 24 O -12.8568 3.8935 0.0 0
M  V30 25 N -14.2683 1.7291 0.0 0
M  V30 26 C -13.1038 -0.5881 0.0 0
M  V30 27 C -14.3624 0.247 0.0 0
M  V30 28 C -15.527 2.5643 0.0 0
M  V30 29 C -13.1979 -2.0702 0.0 0
M  V30 30 N -15.7034 -0.4117 0.0 0
M  V30 31 N -14.5389 -2.7289 0.0 0
M  V30 32 C -15.7975 -1.8938 0.0 0
M  V30 33 N -17.1385 -2.5525 0.0 0
M  V30 34 C -18.3971 -1.7173 0.0 0
M  V30 35 C -19.7381 -2.3761 0.0 0
M  V30 36 C -18.3265 -0.2117 0.0 0
M  V30 37 N -20.9967 -1.5409 0.0 0
M  V30 38 C -19.5851 0.6234 0.0 0
M  V30 39 C -20.9261 -0.0352 0.0 0
M  V30 40 C -22.1847 0.7998 0.0 0
M  V30 END ATOM
M  V30 BEGIN BOND
M  V30 1 1 1 2
M  V30 2 1 2 3
M  V30 3 1 2 4
M  V30 4 1 2 5
M  V30 5 2 5 6
M  V30 6 1 5 7
M  V30 7 1 6 8
M  V30 8 2 7 9
M  V30 9 1 8 10
M  V30 10 2 8 11
M  V30 11 2 10 12
M  V30 12 1 10 13
M  V30 13 1 13 14
M  V30 14 2 14 15
M  V30 15 1 14 16
M  V30 16 1 15 17
M  V30 17 2 16 18
M  V30 18 1 17 19
M  V30 19 2 17 20
M  V30 20 1 19 21
M  V30 21 1 19 22
M  V30 22 1 20 23
M  V30 23 2 21 24
M  V30 24 1 21 25
M  V30 25 1 22 26
M  V30 26 1 25 27
M  V30 27 1 25 28
M  V30 28 1 26 29
M  V30 29 1 27 30
M  V30 30 2 29 31
M  V30 31 2 30 32
M  V30 32 1 32 33
M  V30 33 1 33 34
M  V30 34 2 34 35
M  V30 35 1 34 36
M  V30 36 1 35 37
M  V30 37 2 36 38
M  V30 38 2 37 39
M  V30 39 1 39 40
M  V30 40 1 9 11
M  V30 41 1 18 20
M  V30 42 2 26 27
M  V30 43 1 31 32
M  V30 44 1 38 39
M  V30 END BOND
M  V30 END CTAB
M  END
>  <Compound ID>
222

>  <Name>
GNF-7

>  <Uniprot>
P53667

>  <Target>
LIMK1

>  <Smiles>
CC1=CC=C(NC2=NC=C3CN(C4=CC(NC(=O)C5=CC=CC(C(F)(F)F)=C5)=CC=C4C)C(=O)N(C)C3=N2)C=N1

>  <Kd (nM)>


>  <Assay (Kd)>


>  <Ki (nM)>


>  <Assay (Ki)>


>  <IC50 (nM)>


>  <Assay (IC50)>


>  <EC50 (nM)>


>  <Assay (EC50)>


>  <Article DOI>


>  <Molecular Weight>
547.541

>  <Exact Mass>
547.194357668

>  <XLogP3>
4.33

>  <Heavy Atom Count>
40

>  <Ring Count>
5

>  <Hydrogen Bond Acceptor Count>
6

>  <Hydrogen Bond Donor Count>
2

>  <Rotatable Bond Count>
5

>  <Topological Polar Surface Area>
103.35

>  <Molecular Formula>
C28H24F3N7O2

>  <InChI>
InChI=1S/C28H24F3N7O2/c1-16-7-9-21(34-25(39)18-5-4-6-20(11-18)28(29,30)31)12-23(16)38-15-19-13-33-26(36-24(19)37(3)27(38)40)35-22-10-8-17(2)32-14-22/h4-14H,15H2,1-3H3,(H,34,39)(H,33,35,36)

>  <InChI Key>
SZNYUUZOQHNEKB-UHFFFAOYSA-N

>  <BindingDB>
50323777

>  <PubChem>
11478363

>  <ChEMBL>
CHEMBL1214141

$$$$
Compound 760
Actelion Java MolfileCreator 2.0

  0  0  0  0  0  0              0 V3000
M  V30 BEGIN CTAB
M  V30 COUNTS 40 44 0 0 0
M  V30 BEGIN ATOM
M  V30 1 F 0.0 0.0 0.0 0
M  V30 2 C -1.3409 -0.6587 0.0 0
M  V30 3 F -0.6822 -1.9761 0.0 0
M  V30 4 F -2.0232 0.6822 0.0 0
M  V30 5 C -2.6819 -1.3174 0.0 0
M  V30 6 C -3.9405 -0.4822 0.0 0
M  V30 7 C -2.776 -2.7995 0.0 0
M  V30 8 C -5.2815 -1.1409 0.0 0
M  V30 9 C -4.117 -3.4582 0.0 0
M  V30 10 C -6.5401 -0.3058 0.0 0
M  V30 11 C -5.3756 -2.6231 0.0 0
M  V30 12 O -7.8811 -0.9645 0.0 0
M  V30 13 N -6.4695 1.1998 0.0 0
M  V30 14 C -7.7282 2.0349 0.0 0
M  V30 15 C -9.0691 1.3762 0.0 0
M  V30 16 C -7.6576 3.5406 0.0 0
M  V30 17 C -10.3278 2.2114 0.0 0
M  V30 18 C -8.9162 4.3757 0.0 0
M  V30 19 N -11.6687 1.5527 0.0 0
M  V30 20 C -10.2572 3.717 0.0 0
M  V30 21 C -12.9274 2.3878 0.0 0
M  V30 22 C -11.7628 0.0705 0.0 0
M  V30 23 C -11.5158 4.5522 0.0 0
M  V30 24 O -12.8568 3.8935 0.0 0
M  V30 25 N -14.2683 1.7291 0.0 0
M  V30 26 C -13.1038 -0.5881 0.0 0
M  V30 27 C -14.3624 0.247 0.0 0
M  V30 28 C -15.527 2.5643 0.0 0
M  V30 29 C -13.1979 -2.0702 0.0 0
M  V30 30 N -15.7034 -0.4117 0.0 0
M  V30 31 N -14.5389 -2.7289 0.0 0
M  V30 32 C -15.7975 -1.8938 0.0 0
M  V30 33 N -17.1385 -2.5525 0.0 0
M  V30 34 C -18.3971 -1.7173 0.0 0
M  V30 35 C -19.7381 -2.3761 0.0 0
M  V30 36 C -18.3265 -0.2117 0.0 0
M  V30 37 N -20.9967 -1.5409 0.0 0
M  V30 38 C -19.5851 0.6234 0.0 0
M  V30 39 C -20.9261 -0.0352 0.0 0
M  V30 40 C -22.1847 0.7998 0.0 0
M  V30 END ATOM
M  V30 BEGIN BOND
M  V30 1 1 1 2
M  V30 2 1 2 3
M  V30 3 1 2 4
M  V30 4 1 2 5
M  V30 5 2 5 6
M  V30 6 1 5 7
M  V30 7 1 6 8
M  V30 8 2 7 9
M  V30 9 1 8 10
M  V30 10 2 8 11
M  V30 11 2 10 12
M  V30 12 1 10 13
M  V30 13 1 13 14
M  V30 14 2 14 15
M  V30 15 1 14 16
M  V30 16 1 15 17
M  V30 17 2 16 18
M  V30 18 1 17 19
M  V30 19 2 17 20
M  V30 20 1 19 21
M  V30 21 1 19 22
M  V30 22 1 20 23
M  V30 23 2 21 24
M  V30 24 1 21 25
M  V30 25 1 22 26
M  V30 26 1 25 27
M  V30 27 1 25 28
M  V30 28 1 26 29
M  V30 29 1 27 30
M  V30 30 2 29 31
M  V30 31 2 30 32
M  V30 32 1 32 33
M  V30 33 1 33 34
M  V30 34 2 34 35
M  V30 35 1 34 36
M  V30 36 1 35 37
M  V30 37 2 36 38
M  V30 38 2 37 39
M  V30 39 1 39 40
M  V30 40 1 9 11
M  V30 41 1 18 20
M  V30 42 2 26 27
M  V30 43 1 31 32
M  V30 44 1 38 39
M  V30 END BOND
M  V30 END CTAB
M  END
>  <Compound ID>
222

>  <Name>
GNF-7

>  <Uniprot>
P53671

>  <Target>
LIMK2

>  <Smiles>
CC1=CC=C(NC2=NC=C3CN(C4=CC(NC(=O)C5=CC=CC(C(F)(F)F)=C5)=CC=C4C)C(=O)N(C)C3=N2)C=N1

>  <Kd (nM)>


>  <Assay (Kd)>


>  <Ki (nM)>


>  <Assay (Ki)>


>  <IC50 (nM)>


>  <Assay (IC50)>


>  <EC50 (nM)>


>  <Assay (EC50)>


>  <Article DOI>


>  <Molecular Weight>
547.541

>  <Exact Mass>
547.194357668

>  <XLogP3>
4.33

>  <Heavy Atom Count>
40

>  <Ring Count>
5

>  <Hydrogen Bond Acceptor Count>
6

>  <Hydrogen Bond Donor Count>
2

>  <Rotatable Bond Count>
5

>  <Topological Polar Surface Area>
103.35

>  <Molecular Formula>
C28H24F3N7O2

>  <InChI>
InChI=1S/C28H24F3N7O2/c1-16-7-9-21(34-25(39)18-5-4-6-20(11-18)28(29,30)31)12-23(16)38-15-19-13-33-26(36-24(19)37(3)27(38)40)35-22-10-8-17(2)32-14-22/h4-14H,15H2,1-3H3,(H,34,39)(H,33,35,36)

>  <InChI Key>
SZNYUUZOQHNEKB-UHFFFAOYSA-N

>  <BindingDB>
50323777

>  <PubChem>
11478363

>  <ChEMBL>
CHEMBL1214141

$$$$
Compound 761
Actelion Java MolfileCreator 2.0

  0  0  0  0  0  0              0 V3000
M  V30 BEGIN CTAB
M  V30 COUNTS 40 44 0 0 0
M  V30 BEGIN ATOM
M  V30 1 F 0.0 0.0 0.0 0
M  V30 2 C -1.3409 -0.6587 0.0 0
M  V30 3 F -0.6822 -1.9761 0.0 0
M  V30 4 F -2.0232 0.6822 0.0 0
M  V30 5 C -2.6819 -1.3174 0.0 0
M  V30 6 C -3.9405 -0.4822 0.0 0
M  V30 7 C -2.776 -2.7995 0.0 0
M  V30 8 C -5.2815 -1.1409 0.0 0
M  V30 9 C -4.117 -3.4582 0.0 0
M  V30 10 C -6.5401 -0.3058 0.0 0
M  V30 11 C -5.3756 -2.6231 0.0 0
M  V30 12 O -7.8811 -0.9645 0.0 0
M  V30 13 N -6.4695 1.1998 0.0 0
M  V30 14 C -7.7282 2.0349 0.0 0
M  V30 15 C -9.0691 1.3762 0.0 0
M  V30 16 C -7.6576 3.5406 0.0 0
M  V30 17 C -10.3278 2.2114 0.0 0
M  V30 18 C -8.9162 4.3757 0.0 0
M  V30 19 N -11.6687 1.5527 0.0 0
M  V30 20 C -10.2572 3.717 0.0 0
M  V30 21 C -12.9274 2.3878 0.0 0
M  V30 22 C -11.7628 0.0705 0.0 0
M  V30 23 C -11.5158 4.5522 0.0 0
M  V30 24 O -12.8568 3.8935 0.0 0
M  V30 25 N -14.2683 1.7291 0.0 0
M  V30 26 C -13.1038 -0.5881 0.0 0
M  V30 27 C -14.3624 0.247 0.0 0
M  V30 28 C -15.527 2.5643 0.0 0
M  V30 29 C -13.1979 -2.0702 0.0 0
M  V30 30 N -15.7034 -0.4117 0.0 0
M  V30 31 N -14.5389 -2.7289 0.0 0
M  V30 32 C -15.7975 -1.8938 0.0 0
M  V30 33 N -17.1385 -2.5525 0.0 0
M  V30 34 C -18.3971 -1.7173 0.0 0
M  V30 35 C -19.7381 -2.3761 0.0 0
M  V30 36 C -18.3265 -0.2117 0.0 0
M  V30 37 N -20.9967 -1.5409 0.0 0
M  V30 38 C -19.5851 0.6234 0.0 0
M  V30 39 C -20.9261 -0.0352 0.0 0
M  V30 40 C -22.1847 0.7998 0.0 0
M  V30 END ATOM
M  V30 BEGIN BOND
M  V30 1 1 1 2
M  V30 2 1 2 3
M  V30 3 1 2 4
M  V30 4 1 2 5
M  V30 5 2 5 6
M  V30 6 1 5 7
M  V30 7 1 6 8
M  V30 8 2 7 9
M  V30 9 1 8 10
M  V30 10 2 8 11
M  V30 11 2 10 12
M  V30 12 1 10 13
M  V30 13 1 13 14
M  V30 14 2 14 15
M  V30 15 1 14 16
M  V30 16 1 15 17
M  V30 17 2 16 18
M  V30 18 1 17 19
M  V30 19 2 17 20
M  V30 20 1 19 21
M  V30 21 1 19 22
M  V30 22 1 20 23
M  V30 23 2 21 24
M  V30 24 1 21 25
M  V30 25 1 22 26
M  V30 26 1 25 27
M  V30 27 1 25 28
M  V30 28 1 26 29
M  V30 29 1 27 30
M  V30 30 2 29 31
M  V30 31 2 30 32
M  V30 32 1 32 33
M  V30 33 1 33 34
M  V30 34 2 34 35
M  V30 35 1 34 36
M  V30 36 1 35 37
M  V30 37 2 36 38
M  V30 38 2 37 39
M  V30 39 1 39 40
M  V30 40 1 9 11
M  V30 41 1 18 20
M  V30 42 2 26 27
M  V30 43 1 31 32
M  V30 44 1 38 39
M  V30 END BOND
M  V30 END CTAB
M  END
>  <Compound ID>
222

>  <Name>
GNF-7

>  <Uniprot>
Q5S007

>  <Target>
LRRK2

>  <Smiles>
CC1=CC=C(NC2=NC=C3CN(C4=CC(NC(=O)C5=CC=CC(C(F)(F)F)=C5)=CC=C4C)C(=O)N(C)C3=N2)C=N1

>  <Kd (nM)>


>  <Assay (Kd)>


>  <Ki (nM)>


>  <Assay (Ki)>


>  <IC50 (nM)>


>  <Assay (IC50)>


>  <EC50 (nM)>


>  <Assay (EC50)>


>  <Article DOI>


>  <Molecular Weight>
547.541

>  <Exact Mass>
547.194357668

>  <XLogP3>
4.33

>  <Heavy Atom Count>
40

>  <Ring Count>
5

>  <Hydrogen Bond Acceptor Count>
6

>  <Hydrogen Bond Donor Count>
2

>  <Rotatable Bond Count>
5

>  <Topological Polar Surface Area>
103.35

>  <Molecular Formula>
C28H24F3N7O2

>  <InChI>
InChI=1S/C28H24F3N7O2/c1-16-7-9-21(34-25(39)18-5-4-6-20(11-18)28(29,30)31)12-23(16)38-15-19-13-33-26(36-24(19)37(3)27(38)40)35-22-10-8-17(2)32-14-22/h4-14H,15H2,1-3H3,(H,34,39)(H,33,35,36)

>  <InChI Key>
SZNYUUZOQHNEKB-UHFFFAOYSA-N

>  <BindingDB>
50323777

>  <PubChem>
11478363

>  <ChEMBL>
CHEMBL1214141

$$$$
Compound 762
Actelion Java MolfileCreator 2.0

  0  0  0  0  0  0              0 V3000
M  V30 BEGIN CTAB
M  V30 COUNTS 40 44 0 0 0
M  V30 BEGIN ATOM
M  V30 1 F 0.0 0.0 0.0 0
M  V30 2 C -1.3409 -0.6587 0.0 0
M  V30 3 F -0.6822 -1.9761 0.0 0
M  V30 4 F -2.0232 0.6822 0.0 0
M  V30 5 C -2.6819 -1.3174 0.0 0
M  V30 6 C -3.9405 -0.4822 0.0 0
M  V30 7 C -2.776 -2.7995 0.0 0
M  V30 8 C -5.2815 -1.1409 0.0 0
M  V30 9 C -4.117 -3.4582 0.0 0
M  V30 10 C -6.5401 -0.3058 0.0 0
M  V30 11 C -5.3756 -2.6231 0.0 0
M  V30 12 O -7.8811 -0.9645 0.0 0
M  V30 13 N -6.4695 1.1998 0.0 0
M  V30 14 C -7.7282 2.0349 0.0 0
M  V30 15 C -9.0691 1.3762 0.0 0
M  V30 16 C -7.6576 3.5406 0.0 0
M  V30 17 C -10.3278 2.2114 0.0 0
M  V30 18 C -8.9162 4.3757 0.0 0
M  V30 19 N -11.6687 1.5527 0.0 0
M  V30 20 C -10.2572 3.717 0.0 0
M  V30 21 C -12.9274 2.3878 0.0 0
M  V30 22 C -11.7628 0.0705 0.0 0
M  V30 23 C -11.5158 4.5522 0.0 0
M  V30 24 O -12.8568 3.8935 0.0 0
M  V30 25 N -14.2683 1.7291 0.0 0
M  V30 26 C -13.1038 -0.5881 0.0 0
M  V30 27 C -14.3624 0.247 0.0 0
M  V30 28 C -15.527 2.5643 0.0 0
M  V30 29 C -13.1979 -2.0702 0.0 0
M  V30 30 N -15.7034 -0.4117 0.0 0
M  V30 31 N -14.5389 -2.7289 0.0 0
M  V30 32 C -15.7975 -1.8938 0.0 0
M  V30 33 N -17.1385 -2.5525 0.0 0
M  V30 34 C -18.3971 -1.7173 0.0 0
M  V30 35 C -19.7381 -2.3761 0.0 0
M  V30 36 C -18.3265 -0.2117 0.0 0
M  V30 37 N -20.9967 -1.5409 0.0 0
M  V30 38 C -19.5851 0.6234 0.0 0
M  V30 39 C -20.9261 -0.0352 0.0 0
M  V30 40 C -22.1847 0.7998 0.0 0
M  V30 END ATOM
M  V30 BEGIN BOND
M  V30 1 1 1 2
M  V30 2 1 2 3
M  V30 3 1 2 4
M  V30 4 1 2 5
M  V30 5 2 5 6
M  V30 6 1 5 7
M  V30 7 1 6 8
M  V30 8 2 7 9
M  V30 9 1 8 10
M  V30 10 2 8 11
M  V30 11 2 10 12
M  V30 12 1 10 13
M  V30 13 1 13 14
M  V30 14 2 14 15
M  V30 15 1 14 16
M  V30 16 1 15 17
M  V30 17 2 16 18
M  V30 18 1 17 19
M  V30 19 2 17 20
M  V30 20 1 19 21
M  V30 21 1 19 22
M  V30 22 1 20 23
M  V30 23 2 21 24
M  V30 24 1 21 25
M  V30 25 1 22 26
M  V30 26 1 25 27
M  V30 27 1 25 28
M  V30 28 1 26 29
M  V30 29 1 27 30
M  V30 30 2 29 31
M  V30 31 2 30 32
M  V30 32 1 32 33
M  V30 33 1 33 34
M  V30 34 2 34 35
M  V30 35 1 34 36
M  V30 36 1 35 37
M  V30 37 2 36 38
M  V30 38 2 37 39
M  V30 39 1 39 40
M  V30 40 1 9 11
M  V30 41 1 18 20
M  V30 42 2 26 27
M  V30 43 1 31 32
M  V30 44 1 38 39
M  V30 END BOND
M  V30 END CTAB
M  END
>  <Compound ID>
222

>  <Name>
GNF-7

>  <Uniprot>
P07948

>  <Target>
LYN

>  <Smiles>
CC1=CC=C(NC2=NC=C3CN(C4=CC(NC(=O)C5=CC=CC(C(F)(F)F)=C5)=CC=C4C)C(=O)N(C)C3=N2)C=N1

>  <Kd (nM)>


>  <Assay (Kd)>


>  <Ki (nM)>


>  <Assay (Ki)>


>  <IC50 (nM)>


>  <Assay (IC50)>


>  <EC50 (nM)>


>  <Assay (EC50)>


>  <Article DOI>


>  <Molecular Weight>
547.541

>  <Exact Mass>
547.194357668

>  <XLogP3>
4.33

>  <Heavy Atom Count>
40

>  <Ring Count>
5

>  <Hydrogen Bond Acceptor Count>
6

>  <Hydrogen Bond Donor Count>
2

>  <Rotatable Bond Count>
5

>  <Topological Polar Surface Area>
103.35

>  <Molecular Formula>
C28H24F3N7O2

>  <InChI>
InChI=1S/C28H24F3N7O2/c1-16-7-9-21(34-25(39)18-5-4-6-20(11-18)28(29,30)31)12-23(16)38-15-19-13-33-26(36-24(19)37(3)27(38)40)35-22-10-8-17(2)32-14-22/h4-14H,15H2,1-3H3,(H,34,39)(H,33,35,36)

>  <InChI Key>
SZNYUUZOQHNEKB-UHFFFAOYSA-N

>  <BindingDB>
50323777

>  <PubChem>
11478363

>  <ChEMBL>
CHEMBL1214141

$$$$
Compound 763
Actelion Java MolfileCreator 2.0

  0  0  0  0  0  0              0 V3000
M  V30 BEGIN CTAB
M  V30 COUNTS 40 44 0 0 0
M  V30 BEGIN ATOM
M  V30 1 F 0.0 0.0 0.0 0
M  V30 2 C -1.3409 -0.6587 0.0 0
M  V30 3 F -0.6822 -1.9761 0.0 0
M  V30 4 F -2.0232 0.6822 0.0 0
M  V30 5 C -2.6819 -1.3174 0.0 0
M  V30 6 C -3.9405 -0.4822 0.0 0
M  V30 7 C -2.776 -2.7995 0.0 0
M  V30 8 C -5.2815 -1.1409 0.0 0
M  V30 9 C -4.117 -3.4582 0.0 0
M  V30 10 C -6.5401 -0.3058 0.0 0
M  V30 11 C -5.3756 -2.6231 0.0 0
M  V30 12 O -7.8811 -0.9645 0.0 0
M  V30 13 N -6.4695 1.1998 0.0 0
M  V30 14 C -7.7282 2.0349 0.0 0
M  V30 15 C -9.0691 1.3762 0.0 0
M  V30 16 C -7.6576 3.5406 0.0 0
M  V30 17 C -10.3278 2.2114 0.0 0
M  V30 18 C -8.9162 4.3757 0.0 0
M  V30 19 N -11.6687 1.5527 0.0 0
M  V30 20 C -10.2572 3.717 0.0 0
M  V30 21 C -12.9274 2.3878 0.0 0
M  V30 22 C -11.7628 0.0705 0.0 0
M  V30 23 C -11.5158 4.5522 0.0 0
M  V30 24 O -12.8568 3.8935 0.0 0
M  V30 25 N -14.2683 1.7291 0.0 0
M  V30 26 C -13.1038 -0.5881 0.0 0
M  V30 27 C -14.3624 0.247 0.0 0
M  V30 28 C -15.527 2.5643 0.0 0
M  V30 29 C -13.1979 -2.0702 0.0 0
M  V30 30 N -15.7034 -0.4117 0.0 0
M  V30 31 N -14.5389 -2.7289 0.0 0
M  V30 32 C -15.7975 -1.8938 0.0 0
M  V30 33 N -17.1385 -2.5525 0.0 0
M  V30 34 C -18.3971 -1.7173 0.0 0
M  V30 35 C -19.7381 -2.3761 0.0 0
M  V30 36 C -18.3265 -0.2117 0.0 0
M  V30 37 N -20.9967 -1.5409 0.0 0
M  V30 38 C -19.5851 0.6234 0.0 0
M  V30 39 C -20.9261 -0.0352 0.0 0
M  V30 40 C -22.1847 0.7998 0.0 0
M  V30 END ATOM
M  V30 BEGIN BOND
M  V30 1 1 1 2
M  V30 2 1 2 3
M  V30 3 1 2 4
M  V30 4 1 2 5
M  V30 5 2 5 6
M  V30 6 1 5 7
M  V30 7 1 6 8
M  V30 8 2 7 9
M  V30 9 1 8 10
M  V30 10 2 8 11
M  V30 11 2 10 12
M  V30 12 1 10 13
M  V30 13 1 13 14
M  V30 14 2 14 15
M  V30 15 1 14 16
M  V30 16 1 15 17
M  V30 17 2 16 18
M  V30 18 1 17 19
M  V30 19 2 17 20
M  V30 20 1 19 21
M  V30 21 1 19 22
M  V30 22 1 20 23
M  V30 23 2 21 24
M  V30 24 1 21 25
M  V30 25 1 22 26
M  V30 26 1 25 27
M  V30 27 1 25 28
M  V30 28 1 26 29
M  V30 29 1 27 30
M  V30 30 2 29 31
M  V30 31 2 30 32
M  V30 32 1 32 33
M  V30 33 1 33 34
M  V30 34 2 34 35
M  V30 35 1 34 36
M  V30 36 1 35 37
M  V30 37 2 36 38
M  V30 38 2 37 39
M  V30 39 1 39 40
M  V30 40 1 9 11
M  V30 41 1 18 20
M  V30 42 2 26 27
M  V30 43 1 31 32
M  V30 44 1 38 39
M  V30 END BOND
M  V30 END CTAB
M  END
>  <Compound ID>
222

>  <Name>
GNF-7

>  <Uniprot>
Q16584

>  <Target>
MAP3K11

>  <Smiles>
CC1=CC=C(NC2=NC=C3CN(C4=CC(NC(=O)C5=CC=CC(C(F)(F)F)=C5)=CC=C4C)C(=O)N(C)C3=N2)C=N1

>  <Kd (nM)>


>  <Assay (Kd)>


>  <Ki (nM)>


>  <Assay (Ki)>


>  <IC50 (nM)>


>  <Assay (IC50)>


>  <EC50 (nM)>


>  <Assay (EC50)>


>  <Article DOI>


>  <Molecular Weight>
547.541

>  <Exact Mass>
547.194357668

>  <XLogP3>
4.33

>  <Heavy Atom Count>
40

>  <Ring Count>
5

>  <Hydrogen Bond Acceptor Count>
6

>  <Hydrogen Bond Donor Count>
2

>  <Rotatable Bond Count>
5

>  <Topological Polar Surface Area>
103.35

>  <Molecular Formula>
C28H24F3N7O2

>  <InChI>
InChI=1S/C28H24F3N7O2/c1-16-7-9-21(34-25(39)18-5-4-6-20(11-18)28(29,30)31)12-23(16)38-15-19-13-33-26(36-24(19)37(3)27(38)40)35-22-10-8-17(2)32-14-22/h4-14H,15H2,1-3H3,(H,34,39)(H,33,35,36)

>  <InChI Key>
SZNYUUZOQHNEKB-UHFFFAOYSA-N

>  <BindingDB>
50323777

>  <PubChem>
11478363

>  <ChEMBL>
CHEMBL1214141

$$$$
Compound 764
Actelion Java MolfileCreator 2.0

  0  0  0  0  0  0              0 V3000
M  V30 BEGIN CTAB
M  V30 COUNTS 40 44 0 0 0
M  V30 BEGIN ATOM
M  V30 1 F 0.0 0.0 0.0 0
M  V30 2 C -1.3409 -0.6587 0.0 0
M  V30 3 F -0.6822 -1.9761 0.0 0
M  V30 4 F -2.0232 0.6822 0.0 0
M  V30 5 C -2.6819 -1.3174 0.0 0
M  V30 6 C -3.9405 -0.4822 0.0 0
M  V30 7 C -2.776 -2.7995 0.0 0
M  V30 8 C -5.2815 -1.1409 0.0 0
M  V30 9 C -4.117 -3.4582 0.0 0
M  V30 10 C -6.5401 -0.3058 0.0 0
M  V30 11 C -5.3756 -2.6231 0.0 0
M  V30 12 O -7.8811 -0.9645 0.0 0
M  V30 13 N -6.4695 1.1998 0.0 0
M  V30 14 C -7.7282 2.0349 0.0 0
M  V30 15 C -9.0691 1.3762 0.0 0
M  V30 16 C -7.6576 3.5406 0.0 0
M  V30 17 C -10.3278 2.2114 0.0 0
M  V30 18 C -8.9162 4.3757 0.0 0
M  V30 19 N -11.6687 1.5527 0.0 0
M  V30 20 C -10.2572 3.717 0.0 0
M  V30 21 C -12.9274 2.3878 0.0 0
M  V30 22 C -11.7628 0.0705 0.0 0
M  V30 23 C -11.5158 4.5522 0.0 0
M  V30 24 O -12.8568 3.8935 0.0 0
M  V30 25 N -14.2683 1.7291 0.0 0
M  V30 26 C -13.1038 -0.5881 0.0 0
M  V30 27 C -14.3624 0.247 0.0 0
M  V30 28 C -15.527 2.5643 0.0 0
M  V30 29 C -13.1979 -2.0702 0.0 0
M  V30 30 N -15.7034 -0.4117 0.0 0
M  V30 31 N -14.5389 -2.7289 0.0 0
M  V30 32 C -15.7975 -1.8938 0.0 0
M  V30 33 N -17.1385 -2.5525 0.0 0
M  V30 34 C -18.3971 -1.7173 0.0 0
M  V30 35 C -19.7381 -2.3761 0.0 0
M  V30 36 C -18.3265 -0.2117 0.0 0
M  V30 37 N -20.9967 -1.5409 0.0 0
M  V30 38 C -19.5851 0.6234 0.0 0
M  V30 39 C -20.9261 -0.0352 0.0 0
M  V30 40 C -22.1847 0.7998 0.0 0
M  V30 END ATOM
M  V30 BEGIN BOND
M  V30 1 1 1 2
M  V30 2 1 2 3
M  V30 3 1 2 4
M  V30 4 1 2 5
M  V30 5 2 5 6
M  V30 6 1 5 7
M  V30 7 1 6 8
M  V30 8 2 7 9
M  V30 9 1 8 10
M  V30 10 2 8 11
M  V30 11 2 10 12
M  V30 12 1 10 13
M  V30 13 1 13 14
M  V30 14 2 14 15
M  V30 15 1 14 16
M  V30 16 1 15 17
M  V30 17 2 16 18
M  V30 18 1 17 19
M  V30 19 2 17 20
M  V30 20 1 19 21
M  V30 21 1 19 22
M  V30 22 1 20 23
M  V30 23 2 21 24
M  V30 24 1 21 25
M  V30 25 1 22 26
M  V30 26 1 25 27
M  V30 27 1 25 28
M  V30 28 1 26 29
M  V30 29 1 27 30
M  V30 30 2 29 31
M  V30 31 2 30 32
M  V30 32 1 32 33
M  V30 33 1 33 34
M  V30 34 2 34 35
M  V30 35 1 34 36
M  V30 36 1 35 37
M  V30 37 2 36 38
M  V30 38 2 37 39
M  V30 39 1 39 40
M  V30 40 1 9 11
M  V30 41 1 18 20
M  V30 42 2 26 27
M  V30 43 1 31 32
M  V30 44 1 38 39
M  V30 END BOND
M  V30 END CTAB
M  END
>  <Compound ID>
222

>  <Name>
GNF-7

>  <Uniprot>
Q13233

>  <Target>
MAP3K1

>  <Smiles>
CC1=CC=C(NC2=NC=C3CN(C4=CC(NC(=O)C5=CC=CC(C(F)(F)F)=C5)=CC=C4C)C(=O)N(C)C3=N2)C=N1

>  <Kd (nM)>


>  <Assay (Kd)>


>  <Ki (nM)>


>  <Assay (Ki)>


>  <IC50 (nM)>


>  <Assay (IC50)>


>  <EC50 (nM)>


>  <Assay (EC50)>


>  <Article DOI>


>  <Molecular Weight>
547.541

>  <Exact Mass>
547.194357668

>  <XLogP3>
4.33

>  <Heavy Atom Count>
40

>  <Ring Count>
5

>  <Hydrogen Bond Acceptor Count>
6

>  <Hydrogen Bond Donor Count>
2

>  <Rotatable Bond Count>
5

>  <Topological Polar Surface Area>
103.35

>  <Molecular Formula>
C28H24F3N7O2

>  <InChI>
InChI=1S/C28H24F3N7O2/c1-16-7-9-21(34-25(39)18-5-4-6-20(11-18)28(29,30)31)12-23(16)38-15-19-13-33-26(36-24(19)37(3)27(38)40)35-22-10-8-17(2)32-14-22/h4-14H,15H2,1-3H3,(H,34,39)(H,33,35,36)

>  <InChI Key>
SZNYUUZOQHNEKB-UHFFFAOYSA-N

>  <BindingDB>
50323777

>  <PubChem>
11478363

>  <ChEMBL>
CHEMBL1214141

$$$$
Compound 765
Actelion Java MolfileCreator 2.0

  0  0  0  0  0  0              0 V3000
M  V30 BEGIN CTAB
M  V30 COUNTS 40 44 0 0 0
M  V30 BEGIN ATOM
M  V30 1 F 0.0 0.0 0.0 0
M  V30 2 C -1.3409 -0.6587 0.0 0
M  V30 3 F -0.6822 -1.9761 0.0 0
M  V30 4 F -2.0232 0.6822 0.0 0
M  V30 5 C -2.6819 -1.3174 0.0 0
M  V30 6 C -3.9405 -0.4822 0.0 0
M  V30 7 C -2.776 -2.7995 0.0 0
M  V30 8 C -5.2815 -1.1409 0.0 0
M  V30 9 C -4.117 -3.4582 0.0 0
M  V30 10 C -6.5401 -0.3058 0.0 0
M  V30 11 C -5.3756 -2.6231 0.0 0
M  V30 12 O -7.8811 -0.9645 0.0 0
M  V30 13 N -6.4695 1.1998 0.0 0
M  V30 14 C -7.7282 2.0349 0.0 0
M  V30 15 C -9.0691 1.3762 0.0 0
M  V30 16 C -7.6576 3.5406 0.0 0
M  V30 17 C -10.3278 2.2114 0.0 0
M  V30 18 C -8.9162 4.3757 0.0 0
M  V30 19 N -11.6687 1.5527 0.0 0
M  V30 20 C -10.2572 3.717 0.0 0
M  V30 21 C -12.9274 2.3878 0.0 0
M  V30 22 C -11.7628 0.0705 0.0 0
M  V30 23 C -11.5158 4.5522 0.0 0
M  V30 24 O -12.8568 3.8935 0.0 0
M  V30 25 N -14.2683 1.7291 0.0 0
M  V30 26 C -13.1038 -0.5881 0.0 0
M  V30 27 C -14.3624 0.247 0.0 0
M  V30 28 C -15.527 2.5643 0.0 0
M  V30 29 C -13.1979 -2.0702 0.0 0
M  V30 30 N -15.7034 -0.4117 0.0 0
M  V30 31 N -14.5389 -2.7289 0.0 0
M  V30 32 C -15.7975 -1.8938 0.0 0
M  V30 33 N -17.1385 -2.5525 0.0 0
M  V30 34 C -18.3971 -1.7173 0.0 0
M  V30 35 C -19.7381 -2.3761 0.0 0
M  V30 36 C -18.3265 -0.2117 0.0 0
M  V30 37 N -20.9967 -1.5409 0.0 0
M  V30 38 C -19.5851 0.6234 0.0 0
M  V30 39 C -20.9261 -0.0352 0.0 0
M  V30 40 C -22.1847 0.7998 0.0 0
M  V30 END ATOM
M  V30 BEGIN BOND
M  V30 1 1 1 2
M  V30 2 1 2 3
M  V30 3 1 2 4
M  V30 4 1 2 5
M  V30 5 2 5 6
M  V30 6 1 5 7
M  V30 7 1 6 8
M  V30 8 2 7 9
M  V30 9 1 8 10
M  V30 10 2 8 11
M  V30 11 2 10 12
M  V30 12 1 10 13
M  V30 13 1 13 14
M  V30 14 2 14 15
M  V30 15 1 14 16
M  V30 16 1 15 17
M  V30 17 2 16 18
M  V30 18 1 17 19
M  V30 19 2 17 20
M  V30 20 1 19 21
M  V30 21 1 19 22
M  V30 22 1 20 23
M  V30 23 2 21 24
M  V30 24 1 21 25
M  V30 25 1 22 26
M  V30 26 1 25 27
M  V30 27 1 25 28
M  V30 28 1 26 29
M  V30 29 1 27 30
M  V30 30 2 29 31
M  V30 31 2 30 32
M  V30 32 1 32 33
M  V30 33 1 33 34
M  V30 34 2 34 35
M  V30 35 1 34 36
M  V30 36 1 35 37
M  V30 37 2 36 38
M  V30 38 2 37 39
M  V30 39 1 39 40
M  V30 40 1 9 11
M  V30 41 1 18 20
M  V30 42 2 26 27
M  V30 43 1 31 32
M  V30 44 1 38 39
M  V30 END BOND
M  V30 END CTAB
M  END
>  <Compound ID>
222

>  <Name>
GNF-7

>  <Uniprot>
Q9NYL2

>  <Target>
MAP3K20

>  <Smiles>
CC1=CC=C(NC2=NC=C3CN(C4=CC(NC(=O)C5=CC=CC(C(F)(F)F)=C5)=CC=C4C)C(=O)N(C)C3=N2)C=N1

>  <Kd (nM)>


>  <Assay (Kd)>


>  <Ki (nM)>


>  <Assay (Ki)>


>  <IC50 (nM)>


>  <Assay (IC50)>


>  <EC50 (nM)>


>  <Assay (EC50)>


>  <Article DOI>


>  <Molecular Weight>
547.541

>  <Exact Mass>
547.194357668

>  <XLogP3>
4.33

>  <Heavy Atom Count>
40

>  <Ring Count>
5

>  <Hydrogen Bond Acceptor Count>
6

>  <Hydrogen Bond Donor Count>
2

>  <Rotatable Bond Count>
5

>  <Topological Polar Surface Area>
103.35

>  <Molecular Formula>
C28H24F3N7O2

>  <InChI>
InChI=1S/C28H24F3N7O2/c1-16-7-9-21(34-25(39)18-5-4-6-20(11-18)28(29,30)31)12-23(16)38-15-19-13-33-26(36-24(19)37(3)27(38)40)35-22-10-8-17(2)32-14-22/h4-14H,15H2,1-3H3,(H,34,39)(H,33,35,36)

>  <InChI Key>
SZNYUUZOQHNEKB-UHFFFAOYSA-N

>  <BindingDB>
50323777

>  <PubChem>
11478363

>  <ChEMBL>
CHEMBL1214141

$$$$
Compound 766
Actelion Java MolfileCreator 2.0

  0  0  0  0  0  0              0 V3000
M  V30 BEGIN CTAB
M  V30 COUNTS 40 44 0 0 0
M  V30 BEGIN ATOM
M  V30 1 F 0.0 0.0 0.0 0
M  V30 2 C -1.3409 -0.6587 0.0 0
M  V30 3 F -0.6822 -1.9761 0.0 0
M  V30 4 F -2.0232 0.6822 0.0 0
M  V30 5 C -2.6819 -1.3174 0.0 0
M  V30 6 C -3.9405 -0.4822 0.0 0
M  V30 7 C -2.776 -2.7995 0.0 0
M  V30 8 C -5.2815 -1.1409 0.0 0
M  V30 9 C -4.117 -3.4582 0.0 0
M  V30 10 C -6.5401 -0.3058 0.0 0
M  V30 11 C -5.3756 -2.6231 0.0 0
M  V30 12 O -7.8811 -0.9645 0.0 0
M  V30 13 N -6.4695 1.1998 0.0 0
M  V30 14 C -7.7282 2.0349 0.0 0
M  V30 15 C -9.0691 1.3762 0.0 0
M  V30 16 C -7.6576 3.5406 0.0 0
M  V30 17 C -10.3278 2.2114 0.0 0
M  V30 18 C -8.9162 4.3757 0.0 0
M  V30 19 N -11.6687 1.5527 0.0 0
M  V30 20 C -10.2572 3.717 0.0 0
M  V30 21 C -12.9274 2.3878 0.0 0
M  V30 22 C -11.7628 0.0705 0.0 0
M  V30 23 C -11.5158 4.5522 0.0 0
M  V30 24 O -12.8568 3.8935 0.0 0
M  V30 25 N -14.2683 1.7291 0.0 0
M  V30 26 C -13.1038 -0.5881 0.0 0
M  V30 27 C -14.3624 0.247 0.0 0
M  V30 28 C -15.527 2.5643 0.0 0
M  V30 29 C -13.1979 -2.0702 0.0 0
M  V30 30 N -15.7034 -0.4117 0.0 0
M  V30 31 N -14.5389 -2.7289 0.0 0
M  V30 32 C -15.7975 -1.8938 0.0 0
M  V30 33 N -17.1385 -2.5525 0.0 0
M  V30 34 C -18.3971 -1.7173 0.0 0
M  V30 35 C -19.7381 -2.3761 0.0 0
M  V30 36 C -18.3265 -0.2117 0.0 0
M  V30 37 N -20.9967 -1.5409 0.0 0
M  V30 38 C -19.5851 0.6234 0.0 0
M  V30 39 C -20.9261 -0.0352 0.0 0
M  V30 40 C -22.1847 0.7998 0.0 0
M  V30 END ATOM
M  V30 BEGIN BOND
M  V30 1 1 1 2
M  V30 2 1 2 3
M  V30 3 1 2 4
M  V30 4 1 2 5
M  V30 5 2 5 6
M  V30 6 1 5 7
M  V30 7 1 6 8
M  V30 8 2 7 9
M  V30 9 1 8 10
M  V30 10 2 8 11
M  V30 11 2 10 12
M  V30 12 1 10 13
M  V30 13 1 13 14
M  V30 14 2 14 15
M  V30 15 1 14 16
M  V30 16 1 15 17
M  V30 17 2 16 18
M  V30 18 1 17 19
M  V30 19 2 17 20
M  V30 20 1 19 21
M  V30 21 1 19 22
M  V30 22 1 20 23
M  V30 23 2 21 24
M  V30 24 1 21 25
M  V30 25 1 22 26
M  V30 26 1 25 27
M  V30 27 1 25 28
M  V30 28 1 26 29
M  V30 29 1 27 30
M  V30 30 2 29 31
M  V30 31 2 30 32
M  V30 32 1 32 33
M  V30 33 1 33 34
M  V30 34 2 34 35
M  V30 35 1 34 36
M  V30 36 1 35 37
M  V30 37 2 36 38
M  V30 38 2 37 39
M  V30 39 1 39 40
M  V30 40 1 9 11
M  V30 41 1 18 20
M  V30 42 2 26 27
M  V30 43 1 31 32
M  V30 44 1 38 39
M  V30 END BOND
M  V30 END CTAB
M  END
>  <Compound ID>
222

>  <Name>
GNF-7

>  <Uniprot>
O43318

>  <Target>
MAP3K7

>  <Smiles>
CC1=CC=C(NC2=NC=C3CN(C4=CC(NC(=O)C5=CC=CC(C(F)(F)F)=C5)=CC=C4C)C(=O)N(C)C3=N2)C=N1

>  <Kd (nM)>


>  <Assay (Kd)>


>  <Ki (nM)>


>  <Assay (Ki)>


>  <IC50 (nM)>


>  <Assay (IC50)>


>  <EC50 (nM)>


>  <Assay (EC50)>


>  <Article DOI>


>  <Molecular Weight>
547.541

>  <Exact Mass>
547.194357668

>  <XLogP3>
4.33

>  <Heavy Atom Count>
40

>  <Ring Count>
5

>  <Hydrogen Bond Acceptor Count>
6

>  <Hydrogen Bond Donor Count>
2

>  <Rotatable Bond Count>
5

>  <Topological Polar Surface Area>
103.35

>  <Molecular Formula>
C28H24F3N7O2

>  <InChI>
InChI=1S/C28H24F3N7O2/c1-16-7-9-21(34-25(39)18-5-4-6-20(11-18)28(29,30)31)12-23(16)38-15-19-13-33-26(36-24(19)37(3)27(38)40)35-22-10-8-17(2)32-14-22/h4-14H,15H2,1-3H3,(H,34,39)(H,33,35,36)

>  <InChI Key>
SZNYUUZOQHNEKB-UHFFFAOYSA-N

>  <BindingDB>
50323777

>  <PubChem>
11478363

>  <ChEMBL>
CHEMBL1214141

$$$$
Compound 767
Actelion Java MolfileCreator 2.0

  0  0  0  0  0  0              0 V3000
M  V30 BEGIN CTAB
M  V30 COUNTS 40 44 0 0 0
M  V30 BEGIN ATOM
M  V30 1 F 0.0 0.0 0.0 0
M  V30 2 C -1.3409 -0.6587 0.0 0
M  V30 3 F -0.6822 -1.9761 0.0 0
M  V30 4 F -2.0232 0.6822 0.0 0
M  V30 5 C -2.6819 -1.3174 0.0 0
M  V30 6 C -3.9405 -0.4822 0.0 0
M  V30 7 C -2.776 -2.7995 0.0 0
M  V30 8 C -5.2815 -1.1409 0.0 0
M  V30 9 C -4.117 -3.4582 0.0 0
M  V30 10 C -6.5401 -0.3058 0.0 0
M  V30 11 C -5.3756 -2.6231 0.0 0
M  V30 12 O -7.8811 -0.9645 0.0 0
M  V30 13 N -6.4695 1.1998 0.0 0
M  V30 14 C -7.7282 2.0349 0.0 0
M  V30 15 C -9.0691 1.3762 0.0 0
M  V30 16 C -7.6576 3.5406 0.0 0
M  V30 17 C -10.3278 2.2114 0.0 0
M  V30 18 C -8.9162 4.3757 0.0 0
M  V30 19 N -11.6687 1.5527 0.0 0
M  V30 20 C -10.2572 3.717 0.0 0
M  V30 21 C -12.9274 2.3878 0.0 0
M  V30 22 C -11.7628 0.0705 0.0 0
M  V30 23 C -11.5158 4.5522 0.0 0
M  V30 24 O -12.8568 3.8935 0.0 0
M  V30 25 N -14.2683 1.7291 0.0 0
M  V30 26 C -13.1038 -0.5881 0.0 0
M  V30 27 C -14.3624 0.247 0.0 0
M  V30 28 C -15.527 2.5643 0.0 0
M  V30 29 C -13.1979 -2.0702 0.0 0
M  V30 30 N -15.7034 -0.4117 0.0 0
M  V30 31 N -14.5389 -2.7289 0.0 0
M  V30 32 C -15.7975 -1.8938 0.0 0
M  V30 33 N -17.1385 -2.5525 0.0 0
M  V30 34 C -18.3971 -1.7173 0.0 0
M  V30 35 C -19.7381 -2.3761 0.0 0
M  V30 36 C -18.3265 -0.2117 0.0 0
M  V30 37 N -20.9967 -1.5409 0.0 0
M  V30 38 C -19.5851 0.6234 0.0 0
M  V30 39 C -20.9261 -0.0352 0.0 0
M  V30 40 C -22.1847 0.7998 0.0 0
M  V30 END ATOM
M  V30 BEGIN BOND
M  V30 1 1 1 2
M  V30 2 1 2 3
M  V30 3 1 2 4
M  V30 4 1 2 5
M  V30 5 2 5 6
M  V30 6 1 5 7
M  V30 7 1 6 8
M  V30 8 2 7 9
M  V30 9 1 8 10
M  V30 10 2 8 11
M  V30 11 2 10 12
M  V30 12 1 10 13
M  V30 13 1 13 14
M  V30 14 2 14 15
M  V30 15 1 14 16
M  V30 16 1 15 17
M  V30 17 2 16 18
M  V30 18 1 17 19
M  V30 19 2 17 20
M  V30 20 1 19 21
M  V30 21 1 19 22
M  V30 22 1 20 23
M  V30 23 2 21 24
M  V30 24 1 21 25
M  V30 25 1 22 26
M  V30 26 1 25 27
M  V30 27 1 25 28
M  V30 28 1 26 29
M  V30 29 1 27 30
M  V30 30 2 29 31
M  V30 31 2 30 32
M  V30 32 1 32 33
M  V30 33 1 33 34
M  V30 34 2 34 35
M  V30 35 1 34 36
M  V30 36 1 35 37
M  V30 37 2 36 38
M  V30 38 2 37 39
M  V30 39 1 39 40
M  V30 40 1 9 11
M  V30 41 1 18 20
M  V30 42 2 26 27
M  V30 43 1 31 32
M  V30 44 1 38 39
M  V30 END BOND
M  V30 END CTAB
M  END
>  <Compound ID>
222

>  <Name>
GNF-7

>  <Uniprot>
Q92918

>  <Target>
MAP4K1

>  <Smiles>
CC1=CC=C(NC2=NC=C3CN(C4=CC(NC(=O)C5=CC=CC(C(F)(F)F)=C5)=CC=C4C)C(=O)N(C)C3=N2)C=N1

>  <Kd (nM)>


>  <Assay (Kd)>


>  <Ki (nM)>


>  <Assay (Ki)>


>  <IC50 (nM)>


>  <Assay (IC50)>


>  <EC50 (nM)>


>  <Assay (EC50)>


>  <Article DOI>


>  <Molecular Weight>
547.541

>  <Exact Mass>
547.194357668

>  <XLogP3>
4.33

>  <Heavy Atom Count>
40

>  <Ring Count>
5

>  <Hydrogen Bond Acceptor Count>
6

>  <Hydrogen Bond Donor Count>
2

>  <Rotatable Bond Count>
5

>  <Topological Polar Surface Area>
103.35

>  <Molecular Formula>
C28H24F3N7O2

>  <InChI>
InChI=1S/C28H24F3N7O2/c1-16-7-9-21(34-25(39)18-5-4-6-20(11-18)28(29,30)31)12-23(16)38-15-19-13-33-26(36-24(19)37(3)27(38)40)35-22-10-8-17(2)32-14-22/h4-14H,15H2,1-3H3,(H,34,39)(H,33,35,36)

>  <InChI Key>
SZNYUUZOQHNEKB-UHFFFAOYSA-N

>  <BindingDB>
50323777

>  <PubChem>
11478363

>  <ChEMBL>
CHEMBL1214141

$$$$
Compound 768
Actelion Java MolfileCreator 2.0

  0  0  0  0  0  0              0 V3000
M  V30 BEGIN CTAB
M  V30 COUNTS 40 44 0 0 0
M  V30 BEGIN ATOM
M  V30 1 F 0.0 0.0 0.0 0
M  V30 2 C -1.3409 -0.6587 0.0 0
M  V30 3 F -0.6822 -1.9761 0.0 0
M  V30 4 F -2.0232 0.6822 0.0 0
M  V30 5 C -2.6819 -1.3174 0.0 0
M  V30 6 C -3.9405 -0.4822 0.0 0
M  V30 7 C -2.776 -2.7995 0.0 0
M  V30 8 C -5.2815 -1.1409 0.0 0
M  V30 9 C -4.117 -3.4582 0.0 0
M  V30 10 C -6.5401 -0.3058 0.0 0
M  V30 11 C -5.3756 -2.6231 0.0 0
M  V30 12 O -7.8811 -0.9645 0.0 0
M  V30 13 N -6.4695 1.1998 0.0 0
M  V30 14 C -7.7282 2.0349 0.0 0
M  V30 15 C -9.0691 1.3762 0.0 0
M  V30 16 C -7.6576 3.5406 0.0 0
M  V30 17 C -10.3278 2.2114 0.0 0
M  V30 18 C -8.9162 4.3757 0.0 0
M  V30 19 N -11.6687 1.5527 0.0 0
M  V30 20 C -10.2572 3.717 0.0 0
M  V30 21 C -12.9274 2.3878 0.0 0
M  V30 22 C -11.7628 0.0705 0.0 0
M  V30 23 C -11.5158 4.5522 0.0 0
M  V30 24 O -12.8568 3.8935 0.0 0
M  V30 25 N -14.2683 1.7291 0.0 0
M  V30 26 C -13.1038 -0.5881 0.0 0
M  V30 27 C -14.3624 0.247 0.0 0
M  V30 28 C -15.527 2.5643 0.0 0
M  V30 29 C -13.1979 -2.0702 0.0 0
M  V30 30 N -15.7034 -0.4117 0.0 0
M  V30 31 N -14.5389 -2.7289 0.0 0
M  V30 32 C -15.7975 -1.8938 0.0 0
M  V30 33 N -17.1385 -2.5525 0.0 0
M  V30 34 C -18.3971 -1.7173 0.0 0
M  V30 35 C -19.7381 -2.3761 0.0 0
M  V30 36 C -18.3265 -0.2117 0.0 0
M  V30 37 N -20.9967 -1.5409 0.0 0
M  V30 38 C -19.5851 0.6234 0.0 0
M  V30 39 C -20.9261 -0.0352 0.0 0
M  V30 40 C -22.1847 0.7998 0.0 0
M  V30 END ATOM
M  V30 BEGIN BOND
M  V30 1 1 1 2
M  V30 2 1 2 3
M  V30 3 1 2 4
M  V30 4 1 2 5
M  V30 5 2 5 6
M  V30 6 1 5 7
M  V30 7 1 6 8
M  V30 8 2 7 9
M  V30 9 1 8 10
M  V30 10 2 8 11
M  V30 11 2 10 12
M  V30 12 1 10 13
M  V30 13 1 13 14
M  V30 14 2 14 15
M  V30 15 1 14 16
M  V30 16 1 15 17
M  V30 17 2 16 18
M  V30 18 1 17 19
M  V30 19 2 17 20
M  V30 20 1 19 21
M  V30 21 1 19 22
M  V30 22 1 20 23
M  V30 23 2 21 24
M  V30 24 1 21 25
M  V30 25 1 22 26
M  V30 26 1 25 27
M  V30 27 1 25 28
M  V30 28 1 26 29
M  V30 29 1 27 30
M  V30 30 2 29 31
M  V30 31 2 30 32
M  V30 32 1 32 33
M  V30 33 1 33 34
M  V30 34 2 34 35
M  V30 35 1 34 36
M  V30 36 1 35 37
M  V30 37 2 36 38
M  V30 38 2 37 39
M  V30 39 1 39 40
M  V30 40 1 9 11
M  V30 41 1 18 20
M  V30 42 2 26 27
M  V30 43 1 31 32
M  V30 44 1 38 39
M  V30 END BOND
M  V30 END CTAB
M  END
>  <Compound ID>
222

>  <Name>
GNF-7

>  <Uniprot>
Q12851

>  <Target>
MAP4K2

>  <Smiles>
CC1=CC=C(NC2=NC=C3CN(C4=CC(NC(=O)C5=CC=CC(C(F)(F)F)=C5)=CC=C4C)C(=O)N(C)C3=N2)C=N1

>  <Kd (nM)>


>  <Assay (Kd)>


>  <Ki (nM)>


>  <Assay (Ki)>


>  <IC50 (nM)>


>  <Assay (IC50)>


>  <EC50 (nM)>


>  <Assay (EC50)>


>  <Article DOI>


>  <Molecular Weight>
547.541

>  <Exact Mass>
547.194357668

>  <XLogP3>
4.33

>  <Heavy Atom Count>
40

>  <Ring Count>
5

>  <Hydrogen Bond Acceptor Count>
6

>  <Hydrogen Bond Donor Count>
2

>  <Rotatable Bond Count>
5

>  <Topological Polar Surface Area>
103.35

>  <Molecular Formula>
C28H24F3N7O2

>  <InChI>
InChI=1S/C28H24F3N7O2/c1-16-7-9-21(34-25(39)18-5-4-6-20(11-18)28(29,30)31)12-23(16)38-15-19-13-33-26(36-24(19)37(3)27(38)40)35-22-10-8-17(2)32-14-22/h4-14H,15H2,1-3H3,(H,34,39)(H,33,35,36)

>  <InChI Key>
SZNYUUZOQHNEKB-UHFFFAOYSA-N

>  <BindingDB>
50323777

>  <PubChem>
11478363

>  <ChEMBL>
CHEMBL1214141

$$$$
Compound 769
Actelion Java MolfileCreator 2.0

  0  0  0  0  0  0              0 V3000
M  V30 BEGIN CTAB
M  V30 COUNTS 40 44 0 0 0
M  V30 BEGIN ATOM
M  V30 1 F 0.0 0.0 0.0 0
M  V30 2 C -1.3409 -0.6587 0.0 0
M  V30 3 F -0.6822 -1.9761 0.0 0
M  V30 4 F -2.0232 0.6822 0.0 0
M  V30 5 C -2.6819 -1.3174 0.0 0
M  V30 6 C -3.9405 -0.4822 0.0 0
M  V30 7 C -2.776 -2.7995 0.0 0
M  V30 8 C -5.2815 -1.1409 0.0 0
M  V30 9 C -4.117 -3.4582 0.0 0
M  V30 10 C -6.5401 -0.3058 0.0 0
M  V30 11 C -5.3756 -2.6231 0.0 0
M  V30 12 O -7.8811 -0.9645 0.0 0
M  V30 13 N -6.4695 1.1998 0.0 0
M  V30 14 C -7.7282 2.0349 0.0 0
M  V30 15 C -9.0691 1.3762 0.0 0
M  V30 16 C -7.6576 3.5406 0.0 0
M  V30 17 C -10.3278 2.2114 0.0 0
M  V30 18 C -8.9162 4.3757 0.0 0
M  V30 19 N -11.6687 1.5527 0.0 0
M  V30 20 C -10.2572 3.717 0.0 0
M  V30 21 C -12.9274 2.3878 0.0 0
M  V30 22 C -11.7628 0.0705 0.0 0
M  V30 23 C -11.5158 4.5522 0.0 0
M  V30 24 O -12.8568 3.8935 0.0 0
M  V30 25 N -14.2683 1.7291 0.0 0
M  V30 26 C -13.1038 -0.5881 0.0 0
M  V30 27 C -14.3624 0.247 0.0 0
M  V30 28 C -15.527 2.5643 0.0 0
M  V30 29 C -13.1979 -2.0702 0.0 0
M  V30 30 N -15.7034 -0.4117 0.0 0
M  V30 31 N -14.5389 -2.7289 0.0 0
M  V30 32 C -15.7975 -1.8938 0.0 0
M  V30 33 N -17.1385 -2.5525 0.0 0
M  V30 34 C -18.3971 -1.7173 0.0 0
M  V30 35 C -19.7381 -2.3761 0.0 0
M  V30 36 C -18.3265 -0.2117 0.0 0
M  V30 37 N -20.9967 -1.5409 0.0 0
M  V30 38 C -19.5851 0.6234 0.0 0
M  V30 39 C -20.9261 -0.0352 0.0 0
M  V30 40 C -22.1847 0.7998 0.0 0
M  V30 END ATOM
M  V30 BEGIN BOND
M  V30 1 1 1 2
M  V30 2 1 2 3
M  V30 3 1 2 4
M  V30 4 1 2 5
M  V30 5 2 5 6
M  V30 6 1 5 7
M  V30 7 1 6 8
M  V30 8 2 7 9
M  V30 9 1 8 10
M  V30 10 2 8 11
M  V30 11 2 10 12
M  V30 12 1 10 13
M  V30 13 1 13 14
M  V30 14 2 14 15
M  V30 15 1 14 16
M  V30 16 1 15 17
M  V30 17 2 16 18
M  V30 18 1 17 19
M  V30 19 2 17 20
M  V30 20 1 19 21
M  V30 21 1 19 22
M  V30 22 1 20 23
M  V30 23 2 21 24
M  V30 24 1 21 25
M  V30 25 1 22 26
M  V30 26 1 25 27
M  V30 27 1 25 28
M  V30 28 1 26 29
M  V30 29 1 27 30
M  V30 30 2 29 31
M  V30 31 2 30 32
M  V30 32 1 32 33
M  V30 33 1 33 34
M  V30 34 2 34 35
M  V30 35 1 34 36
M  V30 36 1 35 37
M  V30 37 2 36 38
M  V30 38 2 37 39
M  V30 39 1 39 40
M  V30 40 1 9 11
M  V30 41 1 18 20
M  V30 42 2 26 27
M  V30 43 1 31 32
M  V30 44 1 38 39
M  V30 END BOND
M  V30 END CTAB
M  END
>  <Compound ID>
222

>  <Name>
GNF-7

>  <Uniprot>
Q8IVH8

>  <Target>
MAP4K3

>  <Smiles>
CC1=CC=C(NC2=NC=C3CN(C4=CC(NC(=O)C5=CC=CC(C(F)(F)F)=C5)=CC=C4C)C(=O)N(C)C3=N2)C=N1

>  <Kd (nM)>


>  <Assay (Kd)>


>  <Ki (nM)>


>  <Assay (Ki)>


>  <IC50 (nM)>


>  <Assay (IC50)>


>  <EC50 (nM)>


>  <Assay (EC50)>


>  <Article DOI>


>  <Molecular Weight>
547.541

>  <Exact Mass>
547.194357668

>  <XLogP3>
4.33

>  <Heavy Atom Count>
40

>  <Ring Count>
5

>  <Hydrogen Bond Acceptor Count>
6

>  <Hydrogen Bond Donor Count>
2

>  <Rotatable Bond Count>
5

>  <Topological Polar Surface Area>
103.35

>  <Molecular Formula>
C28H24F3N7O2

>  <InChI>
InChI=1S/C28H24F3N7O2/c1-16-7-9-21(34-25(39)18-5-4-6-20(11-18)28(29,30)31)12-23(16)38-15-19-13-33-26(36-24(19)37(3)27(38)40)35-22-10-8-17(2)32-14-22/h4-14H,15H2,1-3H3,(H,34,39)(H,33,35,36)

>  <InChI Key>
SZNYUUZOQHNEKB-UHFFFAOYSA-N

>  <BindingDB>
50323777

>  <PubChem>
11478363

>  <ChEMBL>
CHEMBL1214141

$$$$
Compound 770
Actelion Java MolfileCreator 2.0

  0  0  0  0  0  0              0 V3000
M  V30 BEGIN CTAB
M  V30 COUNTS 40 44 0 0 0
M  V30 BEGIN ATOM
M  V30 1 F 0.0 0.0 0.0 0
M  V30 2 C -1.3409 -0.6587 0.0 0
M  V30 3 F -0.6822 -1.9761 0.0 0
M  V30 4 F -2.0232 0.6822 0.0 0
M  V30 5 C -2.6819 -1.3174 0.0 0
M  V30 6 C -3.9405 -0.4822 0.0 0
M  V30 7 C -2.776 -2.7995 0.0 0
M  V30 8 C -5.2815 -1.1409 0.0 0
M  V30 9 C -4.117 -3.4582 0.0 0
M  V30 10 C -6.5401 -0.3058 0.0 0
M  V30 11 C -5.3756 -2.6231 0.0 0
M  V30 12 O -7.8811 -0.9645 0.0 0
M  V30 13 N -6.4695 1.1998 0.0 0
M  V30 14 C -7.7282 2.0349 0.0 0
M  V30 15 C -9.0691 1.3762 0.0 0
M  V30 16 C -7.6576 3.5406 0.0 0
M  V30 17 C -10.3278 2.2114 0.0 0
M  V30 18 C -8.9162 4.3757 0.0 0
M  V30 19 N -11.6687 1.5527 0.0 0
M  V30 20 C -10.2572 3.717 0.0 0
M  V30 21 C -12.9274 2.3878 0.0 0
M  V30 22 C -11.7628 0.0705 0.0 0
M  V30 23 C -11.5158 4.5522 0.0 0
M  V30 24 O -12.8568 3.8935 0.0 0
M  V30 25 N -14.2683 1.7291 0.0 0
M  V30 26 C -13.1038 -0.5881 0.0 0
M  V30 27 C -14.3624 0.247 0.0 0
M  V30 28 C -15.527 2.5643 0.0 0
M  V30 29 C -13.1979 -2.0702 0.0 0
M  V30 30 N -15.7034 -0.4117 0.0 0
M  V30 31 N -14.5389 -2.7289 0.0 0
M  V30 32 C -15.7975 -1.8938 0.0 0
M  V30 33 N -17.1385 -2.5525 0.0 0
M  V30 34 C -18.3971 -1.7173 0.0 0
M  V30 35 C -19.7381 -2.3761 0.0 0
M  V30 36 C -18.3265 -0.2117 0.0 0
M  V30 37 N -20.9967 -1.5409 0.0 0
M  V30 38 C -19.5851 0.6234 0.0 0
M  V30 39 C -20.9261 -0.0352 0.0 0
M  V30 40 C -22.1847 0.7998 0.0 0
M  V30 END ATOM
M  V30 BEGIN BOND
M  V30 1 1 1 2
M  V30 2 1 2 3
M  V30 3 1 2 4
M  V30 4 1 2 5
M  V30 5 2 5 6
M  V30 6 1 5 7
M  V30 7 1 6 8
M  V30 8 2 7 9
M  V30 9 1 8 10
M  V30 10 2 8 11
M  V30 11 2 10 12
M  V30 12 1 10 13
M  V30 13 1 13 14
M  V30 14 2 14 15
M  V30 15 1 14 16
M  V30 16 1 15 17
M  V30 17 2 16 18
M  V30 18 1 17 19
M  V30 19 2 17 20
M  V30 20 1 19 21
M  V30 21 1 19 22
M  V30 22 1 20 23
M  V30 23 2 21 24
M  V30 24 1 21 25
M  V30 25 1 22 26
M  V30 26 1 25 27
M  V30 27 1 25 28
M  V30 28 1 26 29
M  V30 29 1 27 30
M  V30 30 2 29 31
M  V30 31 2 30 32
M  V30 32 1 32 33
M  V30 33 1 33 34
M  V30 34 2 34 35
M  V30 35 1 34 36
M  V30 36 1 35 37
M  V30 37 2 36 38
M  V30 38 2 37 39
M  V30 39 1 39 40
M  V30 40 1 9 11
M  V30 41 1 18 20
M  V30 42 2 26 27
M  V30 43 1 31 32
M  V30 44 1 38 39
M  V30 END BOND
M  V30 END CTAB
M  END
>  <Compound ID>
222

>  <Name>
GNF-7

>  <Uniprot>
Q9Y4K4

>  <Target>
MAP4K5

>  <Smiles>
CC1=CC=C(NC2=NC=C3CN(C4=CC(NC(=O)C5=CC=CC(C(F)(F)F)=C5)=CC=C4C)C(=O)N(C)C3=N2)C=N1

>  <Kd (nM)>


>  <Assay (Kd)>


>  <Ki (nM)>


>  <Assay (Ki)>


>  <IC50 (nM)>


>  <Assay (IC50)>


>  <EC50 (nM)>


>  <Assay (EC50)>


>  <Article DOI>


>  <Molecular Weight>
547.541

>  <Exact Mass>
547.194357668

>  <XLogP3>
4.33

>  <Heavy Atom Count>
40

>  <Ring Count>
5

>  <Hydrogen Bond Acceptor Count>
6

>  <Hydrogen Bond Donor Count>
2

>  <Rotatable Bond Count>
5

>  <Topological Polar Surface Area>
103.35

>  <Molecular Formula>
C28H24F3N7O2

>  <InChI>
InChI=1S/C28H24F3N7O2/c1-16-7-9-21(34-25(39)18-5-4-6-20(11-18)28(29,30)31)12-23(16)38-15-19-13-33-26(36-24(19)37(3)27(38)40)35-22-10-8-17(2)32-14-22/h4-14H,15H2,1-3H3,(H,34,39)(H,33,35,36)

>  <InChI Key>
SZNYUUZOQHNEKB-UHFFFAOYSA-N

>  <BindingDB>
50323777

>  <PubChem>
11478363

>  <ChEMBL>
CHEMBL1214141

$$$$
Compound 771
Actelion Java MolfileCreator 2.0

  0  0  0  0  0  0              0 V3000
M  V30 BEGIN CTAB
M  V30 COUNTS 40 44 0 0 0
M  V30 BEGIN ATOM
M  V30 1 F 0.0 0.0 0.0 0
M  V30 2 C -1.3409 -0.6587 0.0 0
M  V30 3 F -0.6822 -1.9761 0.0 0
M  V30 4 F -2.0232 0.6822 0.0 0
M  V30 5 C -2.6819 -1.3174 0.0 0
M  V30 6 C -3.9405 -0.4822 0.0 0
M  V30 7 C -2.776 -2.7995 0.0 0
M  V30 8 C -5.2815 -1.1409 0.0 0
M  V30 9 C -4.117 -3.4582 0.0 0
M  V30 10 C -6.5401 -0.3058 0.0 0
M  V30 11 C -5.3756 -2.6231 0.0 0
M  V30 12 O -7.8811 -0.9645 0.0 0
M  V30 13 N -6.4695 1.1998 0.0 0
M  V30 14 C -7.7282 2.0349 0.0 0
M  V30 15 C -9.0691 1.3762 0.0 0
M  V30 16 C -7.6576 3.5406 0.0 0
M  V30 17 C -10.3278 2.2114 0.0 0
M  V30 18 C -8.9162 4.3757 0.0 0
M  V30 19 N -11.6687 1.5527 0.0 0
M  V30 20 C -10.2572 3.717 0.0 0
M  V30 21 C -12.9274 2.3878 0.0 0
M  V30 22 C -11.7628 0.0705 0.0 0
M  V30 23 C -11.5158 4.5522 0.0 0
M  V30 24 O -12.8568 3.8935 0.0 0
M  V30 25 N -14.2683 1.7291 0.0 0
M  V30 26 C -13.1038 -0.5881 0.0 0
M  V30 27 C -14.3624 0.247 0.0 0
M  V30 28 C -15.527 2.5643 0.0 0
M  V30 29 C -13.1979 -2.0702 0.0 0
M  V30 30 N -15.7034 -0.4117 0.0 0
M  V30 31 N -14.5389 -2.7289 0.0 0
M  V30 32 C -15.7975 -1.8938 0.0 0
M  V30 33 N -17.1385 -2.5525 0.0 0
M  V30 34 C -18.3971 -1.7173 0.0 0
M  V30 35 C -19.7381 -2.3761 0.0 0
M  V30 36 C -18.3265 -0.2117 0.0 0
M  V30 37 N -20.9967 -1.5409 0.0 0
M  V30 38 C -19.5851 0.6234 0.0 0
M  V30 39 C -20.9261 -0.0352 0.0 0
M  V30 40 C -22.1847 0.7998 0.0 0
M  V30 END ATOM
M  V30 BEGIN BOND
M  V30 1 1 1 2
M  V30 2 1 2 3
M  V30 3 1 2 4
M  V30 4 1 2 5
M  V30 5 2 5 6
M  V30 6 1 5 7
M  V30 7 1 6 8
M  V30 8 2 7 9
M  V30 9 1 8 10
M  V30 10 2 8 11
M  V30 11 2 10 12
M  V30 12 1 10 13
M  V30 13 1 13 14
M  V30 14 2 14 15
M  V30 15 1 14 16
M  V30 16 1 15 17
M  V30 17 2 16 18
M  V30 18 1 17 19
M  V30 19 2 17 20
M  V30 20 1 19 21
M  V30 21 1 19 22
M  V30 22 1 20 23
M  V30 23 2 21 24
M  V30 24 1 21 25
M  V30 25 1 22 26
M  V30 26 1 25 27
M  V30 27 1 25 28
M  V30 28 1 26 29
M  V30 29 1 27 30
M  V30 30 2 29 31
M  V30 31 2 30 32
M  V30 32 1 32 33
M  V30 33 1 33 34
M  V30 34 2 34 35
M  V30 35 1 34 36
M  V30 36 1 35 37
M  V30 37 2 36 38
M  V30 38 2 37 39
M  V30 39 1 39 40
M  V30 40 1 9 11
M  V30 41 1 18 20
M  V30 42 2 26 27
M  V30 43 1 31 32
M  V30 44 1 38 39
M  V30 END BOND
M  V30 END CTAB
M  END
>  <Compound ID>
222

>  <Name>
GNF-7

>  <Uniprot>
P53778

>  <Target>
MAPK12

>  <Smiles>
CC1=CC=C(NC2=NC=C3CN(C4=CC(NC(=O)C5=CC=CC(C(F)(F)F)=C5)=CC=C4C)C(=O)N(C)C3=N2)C=N1

>  <Kd (nM)>


>  <Assay (Kd)>


>  <Ki (nM)>


>  <Assay (Ki)>


>  <IC50 (nM)>


>  <Assay (IC50)>


>  <EC50 (nM)>


>  <Assay (EC50)>


>  <Article DOI>


>  <Molecular Weight>
547.541

>  <Exact Mass>
547.194357668

>  <XLogP3>
4.33

>  <Heavy Atom Count>
40

>  <Ring Count>
5

>  <Hydrogen Bond Acceptor Count>
6

>  <Hydrogen Bond Donor Count>
2

>  <Rotatable Bond Count>
5

>  <Topological Polar Surface Area>
103.35

>  <Molecular Formula>
C28H24F3N7O2

>  <InChI>
InChI=1S/C28H24F3N7O2/c1-16-7-9-21(34-25(39)18-5-4-6-20(11-18)28(29,30)31)12-23(16)38-15-19-13-33-26(36-24(19)37(3)27(38)40)35-22-10-8-17(2)32-14-22/h4-14H,15H2,1-3H3,(H,34,39)(H,33,35,36)

>  <InChI Key>
SZNYUUZOQHNEKB-UHFFFAOYSA-N

>  <BindingDB>
50323777

>  <PubChem>
11478363

>  <ChEMBL>
CHEMBL1214141

$$$$
Compound 772
Actelion Java MolfileCreator 2.0

  0  0  0  0  0  0              0 V3000
M  V30 BEGIN CTAB
M  V30 COUNTS 40 44 0 0 0
M  V30 BEGIN ATOM
M  V30 1 F 0.0 0.0 0.0 0
M  V30 2 C -1.3409 -0.6587 0.0 0
M  V30 3 F -0.6822 -1.9761 0.0 0
M  V30 4 F -2.0232 0.6822 0.0 0
M  V30 5 C -2.6819 -1.3174 0.0 0
M  V30 6 C -3.9405 -0.4822 0.0 0
M  V30 7 C -2.776 -2.7995 0.0 0
M  V30 8 C -5.2815 -1.1409 0.0 0
M  V30 9 C -4.117 -3.4582 0.0 0
M  V30 10 C -6.5401 -0.3058 0.0 0
M  V30 11 C -5.3756 -2.6231 0.0 0
M  V30 12 O -7.8811 -0.9645 0.0 0
M  V30 13 N -6.4695 1.1998 0.0 0
M  V30 14 C -7.7282 2.0349 0.0 0
M  V30 15 C -9.0691 1.3762 0.0 0
M  V30 16 C -7.6576 3.5406 0.0 0
M  V30 17 C -10.3278 2.2114 0.0 0
M  V30 18 C -8.9162 4.3757 0.0 0
M  V30 19 N -11.6687 1.5527 0.0 0
M  V30 20 C -10.2572 3.717 0.0 0
M  V30 21 C -12.9274 2.3878 0.0 0
M  V30 22 C -11.7628 0.0705 0.0 0
M  V30 23 C -11.5158 4.5522 0.0 0
M  V30 24 O -12.8568 3.8935 0.0 0
M  V30 25 N -14.2683 1.7291 0.0 0
M  V30 26 C -13.1038 -0.5881 0.0 0
M  V30 27 C -14.3624 0.247 0.0 0
M  V30 28 C -15.527 2.5643 0.0 0
M  V30 29 C -13.1979 -2.0702 0.0 0
M  V30 30 N -15.7034 -0.4117 0.0 0
M  V30 31 N -14.5389 -2.7289 0.0 0
M  V30 32 C -15.7975 -1.8938 0.0 0
M  V30 33 N -17.1385 -2.5525 0.0 0
M  V30 34 C -18.3971 -1.7173 0.0 0
M  V30 35 C -19.7381 -2.3761 0.0 0
M  V30 36 C -18.3265 -0.2117 0.0 0
M  V30 37 N -20.9967 -1.5409 0.0 0
M  V30 38 C -19.5851 0.6234 0.0 0
M  V30 39 C -20.9261 -0.0352 0.0 0
M  V30 40 C -22.1847 0.7998 0.0 0
M  V30 END ATOM
M  V30 BEGIN BOND
M  V30 1 1 1 2
M  V30 2 1 2 3
M  V30 3 1 2 4
M  V30 4 1 2 5
M  V30 5 2 5 6
M  V30 6 1 5 7
M  V30 7 1 6 8
M  V30 8 2 7 9
M  V30 9 1 8 10
M  V30 10 2 8 11
M  V30 11 2 10 12
M  V30 12 1 10 13
M  V30 13 1 13 14
M  V30 14 2 14 15
M  V30 15 1 14 16
M  V30 16 1 15 17
M  V30 17 2 16 18
M  V30 18 1 17 19
M  V30 19 2 17 20
M  V30 20 1 19 21
M  V30 21 1 19 22
M  V30 22 1 20 23
M  V30 23 2 21 24
M  V30 24 1 21 25
M  V30 25 1 22 26
M  V30 26 1 25 27
M  V30 27 1 25 28
M  V30 28 1 26 29
M  V30 29 1 27 30
M  V30 30 2 29 31
M  V30 31 2 30 32
M  V30 32 1 32 33
M  V30 33 1 33 34
M  V30 34 2 34 35
M  V30 35 1 34 36
M  V30 36 1 35 37
M  V30 37 2 36 38
M  V30 38 2 37 39
M  V30 39 1 39 40
M  V30 40 1 9 11
M  V30 41 1 18 20
M  V30 42 2 26 27
M  V30 43 1 31 32
M  V30 44 1 38 39
M  V30 END BOND
M  V30 END CTAB
M  END
>  <Compound ID>
222

>  <Name>
GNF-7

>  <Uniprot>
Q13164

>  <Target>
MAPK7

>  <Smiles>
CC1=CC=C(NC2=NC=C3CN(C4=CC(NC(=O)C5=CC=CC(C(F)(F)F)=C5)=CC=C4C)C(=O)N(C)C3=N2)C=N1

>  <Kd (nM)>


>  <Assay (Kd)>


>  <Ki (nM)>


>  <Assay (Ki)>


>  <IC50 (nM)>


>  <Assay (IC50)>


>  <EC50 (nM)>


>  <Assay (EC50)>


>  <Article DOI>


>  <Molecular Weight>
547.541

>  <Exact Mass>
547.194357668

>  <XLogP3>
4.33

>  <Heavy Atom Count>
40

>  <Ring Count>
5

>  <Hydrogen Bond Acceptor Count>
6

>  <Hydrogen Bond Donor Count>
2

>  <Rotatable Bond Count>
5

>  <Topological Polar Surface Area>
103.35

>  <Molecular Formula>
C28H24F3N7O2

>  <InChI>
InChI=1S/C28H24F3N7O2/c1-16-7-9-21(34-25(39)18-5-4-6-20(11-18)28(29,30)31)12-23(16)38-15-19-13-33-26(36-24(19)37(3)27(38)40)35-22-10-8-17(2)32-14-22/h4-14H,15H2,1-3H3,(H,34,39)(H,33,35,36)

>  <InChI Key>
SZNYUUZOQHNEKB-UHFFFAOYSA-N

>  <BindingDB>
50323777

>  <PubChem>
11478363

>  <ChEMBL>
CHEMBL1214141

$$$$
Compound 773
Actelion Java MolfileCreator 2.0

  0  0  0  0  0  0              0 V3000
M  V30 BEGIN CTAB
M  V30 COUNTS 40 44 0 0 0
M  V30 BEGIN ATOM
M  V30 1 F 0.0 0.0 0.0 0
M  V30 2 C -1.3409 -0.6587 0.0 0
M  V30 3 F -0.6822 -1.9761 0.0 0
M  V30 4 F -2.0232 0.6822 0.0 0
M  V30 5 C -2.6819 -1.3174 0.0 0
M  V30 6 C -3.9405 -0.4822 0.0 0
M  V30 7 C -2.776 -2.7995 0.0 0
M  V30 8 C -5.2815 -1.1409 0.0 0
M  V30 9 C -4.117 -3.4582 0.0 0
M  V30 10 C -6.5401 -0.3058 0.0 0
M  V30 11 C -5.3756 -2.6231 0.0 0
M  V30 12 O -7.8811 -0.9645 0.0 0
M  V30 13 N -6.4695 1.1998 0.0 0
M  V30 14 C -7.7282 2.0349 0.0 0
M  V30 15 C -9.0691 1.3762 0.0 0
M  V30 16 C -7.6576 3.5406 0.0 0
M  V30 17 C -10.3278 2.2114 0.0 0
M  V30 18 C -8.9162 4.3757 0.0 0
M  V30 19 N -11.6687 1.5527 0.0 0
M  V30 20 C -10.2572 3.717 0.0 0
M  V30 21 C -12.9274 2.3878 0.0 0
M  V30 22 C -11.7628 0.0705 0.0 0
M  V30 23 C -11.5158 4.5522 0.0 0
M  V30 24 O -12.8568 3.8935 0.0 0
M  V30 25 N -14.2683 1.7291 0.0 0
M  V30 26 C -13.1038 -0.5881 0.0 0
M  V30 27 C -14.3624 0.247 0.0 0
M  V30 28 C -15.527 2.5643 0.0 0
M  V30 29 C -13.1979 -2.0702 0.0 0
M  V30 30 N -15.7034 -0.4117 0.0 0
M  V30 31 N -14.5389 -2.7289 0.0 0
M  V30 32 C -15.7975 -1.8938 0.0 0
M  V30 33 N -17.1385 -2.5525 0.0 0
M  V30 34 C -18.3971 -1.7173 0.0 0
M  V30 35 C -19.7381 -2.3761 0.0 0
M  V30 36 C -18.3265 -0.2117 0.0 0
M  V30 37 N -20.9967 -1.5409 0.0 0
M  V30 38 C -19.5851 0.6234 0.0 0
M  V30 39 C -20.9261 -0.0352 0.0 0
M  V30 40 C -22.1847 0.7998 0.0 0
M  V30 END ATOM
M  V30 BEGIN BOND
M  V30 1 1 1 2
M  V30 2 1 2 3
M  V30 3 1 2 4
M  V30 4 1 2 5
M  V30 5 2 5 6
M  V30 6 1 5 7
M  V30 7 1 6 8
M  V30 8 2 7 9
M  V30 9 1 8 10
M  V30 10 2 8 11
M  V30 11 2 10 12
M  V30 12 1 10 13
M  V30 13 1 13 14
M  V30 14 2 14 15
M  V30 15 1 14 16
M  V30 16 1 15 17
M  V30 17 2 16 18
M  V30 18 1 17 19
M  V30 19 2 17 20
M  V30 20 1 19 21
M  V30 21 1 19 22
M  V30 22 1 20 23
M  V30 23 2 21 24
M  V30 24 1 21 25
M  V30 25 1 22 26
M  V30 26 1 25 27
M  V30 27 1 25 28
M  V30 28 1 26 29
M  V30 29 1 27 30
M  V30 30 2 29 31
M  V30 31 2 30 32
M  V30 32 1 32 33
M  V30 33 1 33 34
M  V30 34 2 34 35
M  V30 35 1 34 36
M  V30 36 1 35 37
M  V30 37 2 36 38
M  V30 38 2 37 39
M  V30 39 1 39 40
M  V30 40 1 9 11
M  V30 41 1 18 20
M  V30 42 2 26 27
M  V30 43 1 31 32
M  V30 44 1 38 39
M  V30 END BOND
M  V30 END CTAB
M  END
>  <Compound ID>
222

>  <Name>
GNF-7

>  <Uniprot>
P45983

>  <Target>
MAPK8

>  <Smiles>
CC1=CC=C(NC2=NC=C3CN(C4=CC(NC(=O)C5=CC=CC(C(F)(F)F)=C5)=CC=C4C)C(=O)N(C)C3=N2)C=N1

>  <Kd (nM)>


>  <Assay (Kd)>


>  <Ki (nM)>


>  <Assay (Ki)>


>  <IC50 (nM)>


>  <Assay (IC50)>


>  <EC50 (nM)>


>  <Assay (EC50)>


>  <Article DOI>


>  <Molecular Weight>
547.541

>  <Exact Mass>
547.194357668

>  <XLogP3>
4.33

>  <Heavy Atom Count>
40

>  <Ring Count>
5

>  <Hydrogen Bond Acceptor Count>
6

>  <Hydrogen Bond Donor Count>
2

>  <Rotatable Bond Count>
5

>  <Topological Polar Surface Area>
103.35

>  <Molecular Formula>
C28H24F3N7O2

>  <InChI>
InChI=1S/C28H24F3N7O2/c1-16-7-9-21(34-25(39)18-5-4-6-20(11-18)28(29,30)31)12-23(16)38-15-19-13-33-26(36-24(19)37(3)27(38)40)35-22-10-8-17(2)32-14-22/h4-14H,15H2,1-3H3,(H,34,39)(H,33,35,36)

>  <InChI Key>
SZNYUUZOQHNEKB-UHFFFAOYSA-N

>  <BindingDB>
50323777

>  <PubChem>
11478363

>  <ChEMBL>
CHEMBL1214141

$$$$
Compound 774
Actelion Java MolfileCreator 2.0

  0  0  0  0  0  0              0 V3000
M  V30 BEGIN CTAB
M  V30 COUNTS 40 44 0 0 0
M  V30 BEGIN ATOM
M  V30 1 F 0.0 0.0 0.0 0
M  V30 2 C -1.3409 -0.6587 0.0 0
M  V30 3 F -0.6822 -1.9761 0.0 0
M  V30 4 F -2.0232 0.6822 0.0 0
M  V30 5 C -2.6819 -1.3174 0.0 0
M  V30 6 C -3.9405 -0.4822 0.0 0
M  V30 7 C -2.776 -2.7995 0.0 0
M  V30 8 C -5.2815 -1.1409 0.0 0
M  V30 9 C -4.117 -3.4582 0.0 0
M  V30 10 C -6.5401 -0.3058 0.0 0
M  V30 11 C -5.3756 -2.6231 0.0 0
M  V30 12 O -7.8811 -0.9645 0.0 0
M  V30 13 N -6.4695 1.1998 0.0 0
M  V30 14 C -7.7282 2.0349 0.0 0
M  V30 15 C -9.0691 1.3762 0.0 0
M  V30 16 C -7.6576 3.5406 0.0 0
M  V30 17 C -10.3278 2.2114 0.0 0
M  V30 18 C -8.9162 4.3757 0.0 0
M  V30 19 N -11.6687 1.5527 0.0 0
M  V30 20 C -10.2572 3.717 0.0 0
M  V30 21 C -12.9274 2.3878 0.0 0
M  V30 22 C -11.7628 0.0705 0.0 0
M  V30 23 C -11.5158 4.5522 0.0 0
M  V30 24 O -12.8568 3.8935 0.0 0
M  V30 25 N -14.2683 1.7291 0.0 0
M  V30 26 C -13.1038 -0.5881 0.0 0
M  V30 27 C -14.3624 0.247 0.0 0
M  V30 28 C -15.527 2.5643 0.0 0
M  V30 29 C -13.1979 -2.0702 0.0 0
M  V30 30 N -15.7034 -0.4117 0.0 0
M  V30 31 N -14.5389 -2.7289 0.0 0
M  V30 32 C -15.7975 -1.8938 0.0 0
M  V30 33 N -17.1385 -2.5525 0.0 0
M  V30 34 C -18.3971 -1.7173 0.0 0
M  V30 35 C -19.7381 -2.3761 0.0 0
M  V30 36 C -18.3265 -0.2117 0.0 0
M  V30 37 N -20.9967 -1.5409 0.0 0
M  V30 38 C -19.5851 0.6234 0.0 0
M  V30 39 C -20.9261 -0.0352 0.0 0
M  V30 40 C -22.1847 0.7998 0.0 0
M  V30 END ATOM
M  V30 BEGIN BOND
M  V30 1 1 1 2
M  V30 2 1 2 3
M  V30 3 1 2 4
M  V30 4 1 2 5
M  V30 5 2 5 6
M  V30 6 1 5 7
M  V30 7 1 6 8
M  V30 8 2 7 9
M  V30 9 1 8 10
M  V30 10 2 8 11
M  V30 11 2 10 12
M  V30 12 1 10 13
M  V30 13 1 13 14
M  V30 14 2 14 15
M  V30 15 1 14 16
M  V30 16 1 15 17
M  V30 17 2 16 18
M  V30 18 1 17 19
M  V30 19 2 17 20
M  V30 20 1 19 21
M  V30 21 1 19 22
M  V30 22 1 20 23
M  V30 23 2 21 24
M  V30 24 1 21 25
M  V30 25 1 22 26
M  V30 26 1 25 27
M  V30 27 1 25 28
M  V30 28 1 26 29
M  V30 29 1 27 30
M  V30 30 2 29 31
M  V30 31 2 30 32
M  V30 32 1 32 33
M  V30 33 1 33 34
M  V30 34 2 34 35
M  V30 35 1 34 36
M  V30 36 1 35 37
M  V30 37 2 36 38
M  V30 38 2 37 39
M  V30 39 1 39 40
M  V30 40 1 9 11
M  V30 41 1 18 20
M  V30 42 2 26 27
M  V30 43 1 31 32
M  V30 44 1 38 39
M  V30 END BOND
M  V30 END CTAB
M  END
>  <Compound ID>
222

>  <Name>
GNF-7

>  <Uniprot>
P45984

>  <Target>
MAPK9

>  <Smiles>
CC1=CC=C(NC2=NC=C3CN(C4=CC(NC(=O)C5=CC=CC(C(F)(F)F)=C5)=CC=C4C)C(=O)N(C)C3=N2)C=N1

>  <Kd (nM)>


>  <Assay (Kd)>


>  <Ki (nM)>


>  <Assay (Ki)>


>  <IC50 (nM)>


>  <Assay (IC50)>


>  <EC50 (nM)>


>  <Assay (EC50)>


>  <Article DOI>


>  <Molecular Weight>
547.541

>  <Exact Mass>
547.194357668

>  <XLogP3>
4.33

>  <Heavy Atom Count>
40

>  <Ring Count>
5

>  <Hydrogen Bond Acceptor Count>
6

>  <Hydrogen Bond Donor Count>
2

>  <Rotatable Bond Count>
5

>  <Topological Polar Surface Area>
103.35

>  <Molecular Formula>
C28H24F3N7O2

>  <InChI>
InChI=1S/C28H24F3N7O2/c1-16-7-9-21(34-25(39)18-5-4-6-20(11-18)28(29,30)31)12-23(16)38-15-19-13-33-26(36-24(19)37(3)27(38)40)35-22-10-8-17(2)32-14-22/h4-14H,15H2,1-3H3,(H,34,39)(H,33,35,36)

>  <InChI Key>
SZNYUUZOQHNEKB-UHFFFAOYSA-N

>  <BindingDB>
50323777

>  <PubChem>
11478363

>  <ChEMBL>
CHEMBL1214141

$$$$
Compound 775
Actelion Java MolfileCreator 2.0

  0  0  0  0  0  0              0 V3000
M  V30 BEGIN CTAB
M  V30 COUNTS 40 44 0 0 0
M  V30 BEGIN ATOM
M  V30 1 F 0.0 0.0 0.0 0
M  V30 2 C -1.3409 -0.6587 0.0 0
M  V30 3 F -0.6822 -1.9761 0.0 0
M  V30 4 F -2.0232 0.6822 0.0 0
M  V30 5 C -2.6819 -1.3174 0.0 0
M  V30 6 C -3.9405 -0.4822 0.0 0
M  V30 7 C -2.776 -2.7995 0.0 0
M  V30 8 C -5.2815 -1.1409 0.0 0
M  V30 9 C -4.117 -3.4582 0.0 0
M  V30 10 C -6.5401 -0.3058 0.0 0
M  V30 11 C -5.3756 -2.6231 0.0 0
M  V30 12 O -7.8811 -0.9645 0.0 0
M  V30 13 N -6.4695 1.1998 0.0 0
M  V30 14 C -7.7282 2.0349 0.0 0
M  V30 15 C -9.0691 1.3762 0.0 0
M  V30 16 C -7.6576 3.5406 0.0 0
M  V30 17 C -10.3278 2.2114 0.0 0
M  V30 18 C -8.9162 4.3757 0.0 0
M  V30 19 N -11.6687 1.5527 0.0 0
M  V30 20 C -10.2572 3.717 0.0 0
M  V30 21 C -12.9274 2.3878 0.0 0
M  V30 22 C -11.7628 0.0705 0.0 0
M  V30 23 C -11.5158 4.5522 0.0 0
M  V30 24 O -12.8568 3.8935 0.0 0
M  V30 25 N -14.2683 1.7291 0.0 0
M  V30 26 C -13.1038 -0.5881 0.0 0
M  V30 27 C -14.3624 0.247 0.0 0
M  V30 28 C -15.527 2.5643 0.0 0
M  V30 29 C -13.1979 -2.0702 0.0 0
M  V30 30 N -15.7034 -0.4117 0.0 0
M  V30 31 N -14.5389 -2.7289 0.0 0
M  V30 32 C -15.7975 -1.8938 0.0 0
M  V30 33 N -17.1385 -2.5525 0.0 0
M  V30 34 C -18.3971 -1.7173 0.0 0
M  V30 35 C -19.7381 -2.3761 0.0 0
M  V30 36 C -18.3265 -0.2117 0.0 0
M  V30 37 N -20.9967 -1.5409 0.0 0
M  V30 38 C -19.5851 0.6234 0.0 0
M  V30 39 C -20.9261 -0.0352 0.0 0
M  V30 40 C -22.1847 0.7998 0.0 0
M  V30 END ATOM
M  V30 BEGIN BOND
M  V30 1 1 1 2
M  V30 2 1 2 3
M  V30 3 1 2 4
M  V30 4 1 2 5
M  V30 5 2 5 6
M  V30 6 1 5 7
M  V30 7 1 6 8
M  V30 8 2 7 9
M  V30 9 1 8 10
M  V30 10 2 8 11
M  V30 11 2 10 12
M  V30 12 1 10 13
M  V30 13 1 13 14
M  V30 14 2 14 15
M  V30 15 1 14 16
M  V30 16 1 15 17
M  V30 17 2 16 18
M  V30 18 1 17 19
M  V30 19 2 17 20
M  V30 20 1 19 21
M  V30 21 1 19 22
M  V30 22 1 20 23
M  V30 23 2 21 24
M  V30 24 1 21 25
M  V30 25 1 22 26
M  V30 26 1 25 27
M  V30 27 1 25 28
M  V30 28 1 26 29
M  V30 29 1 27 30
M  V30 30 2 29 31
M  V30 31 2 30 32
M  V30 32 1 32 33
M  V30 33 1 33 34
M  V30 34 2 34 35
M  V30 35 1 34 36
M  V30 36 1 35 37
M  V30 37 2 36 38
M  V30 38 2 37 39
M  V30 39 1 39 40
M  V30 40 1 9 11
M  V30 41 1 18 20
M  V30 42 2 26 27
M  V30 43 1 31 32
M  V30 44 1 38 39
M  V30 END BOND
M  V30 END CTAB
M  END
>  <Compound ID>
222

>  <Name>
GNF-7

>  <Uniprot>
P49137

>  <Target>
MAPKAPK2

>  <Smiles>
CC1=CC=C(NC2=NC=C3CN(C4=CC(NC(=O)C5=CC=CC(C(F)(F)F)=C5)=CC=C4C)C(=O)N(C)C3=N2)C=N1

>  <Kd (nM)>


>  <Assay (Kd)>


>  <Ki (nM)>


>  <Assay (Ki)>


>  <IC50 (nM)>


>  <Assay (IC50)>


>  <EC50 (nM)>


>  <Assay (EC50)>


>  <Article DOI>


>  <Molecular Weight>
547.541

>  <Exact Mass>
547.194357668

>  <XLogP3>
4.33

>  <Heavy Atom Count>
40

>  <Ring Count>
5

>  <Hydrogen Bond Acceptor Count>
6

>  <Hydrogen Bond Donor Count>
2

>  <Rotatable Bond Count>
5

>  <Topological Polar Surface Area>
103.35

>  <Molecular Formula>
C28H24F3N7O2

>  <InChI>
InChI=1S/C28H24F3N7O2/c1-16-7-9-21(34-25(39)18-5-4-6-20(11-18)28(29,30)31)12-23(16)38-15-19-13-33-26(36-24(19)37(3)27(38)40)35-22-10-8-17(2)32-14-22/h4-14H,15H2,1-3H3,(H,34,39)(H,33,35,36)

>  <InChI Key>
SZNYUUZOQHNEKB-UHFFFAOYSA-N

>  <BindingDB>
50323777

>  <PubChem>
11478363

>  <ChEMBL>
CHEMBL1214141

$$$$
Compound 776
Actelion Java MolfileCreator 2.0

  0  0  0  0  0  0              0 V3000
M  V30 BEGIN CTAB
M  V30 COUNTS 40 44 0 0 0
M  V30 BEGIN ATOM
M  V30 1 F 0.0 0.0 0.0 0
M  V30 2 C -1.3409 -0.6587 0.0 0
M  V30 3 F -0.6822 -1.9761 0.0 0
M  V30 4 F -2.0232 0.6822 0.0 0
M  V30 5 C -2.6819 -1.3174 0.0 0
M  V30 6 C -3.9405 -0.4822 0.0 0
M  V30 7 C -2.776 -2.7995 0.0 0
M  V30 8 C -5.2815 -1.1409 0.0 0
M  V30 9 C -4.117 -3.4582 0.0 0
M  V30 10 C -6.5401 -0.3058 0.0 0
M  V30 11 C -5.3756 -2.6231 0.0 0
M  V30 12 O -7.8811 -0.9645 0.0 0
M  V30 13 N -6.4695 1.1998 0.0 0
M  V30 14 C -7.7282 2.0349 0.0 0
M  V30 15 C -9.0691 1.3762 0.0 0
M  V30 16 C -7.6576 3.5406 0.0 0
M  V30 17 C -10.3278 2.2114 0.0 0
M  V30 18 C -8.9162 4.3757 0.0 0
M  V30 19 N -11.6687 1.5527 0.0 0
M  V30 20 C -10.2572 3.717 0.0 0
M  V30 21 C -12.9274 2.3878 0.0 0
M  V30 22 C -11.7628 0.0705 0.0 0
M  V30 23 C -11.5158 4.5522 0.0 0
M  V30 24 O -12.8568 3.8935 0.0 0
M  V30 25 N -14.2683 1.7291 0.0 0
M  V30 26 C -13.1038 -0.5881 0.0 0
M  V30 27 C -14.3624 0.247 0.0 0
M  V30 28 C -15.527 2.5643 0.0 0
M  V30 29 C -13.1979 -2.0702 0.0 0
M  V30 30 N -15.7034 -0.4117 0.0 0
M  V30 31 N -14.5389 -2.7289 0.0 0
M  V30 32 C -15.7975 -1.8938 0.0 0
M  V30 33 N -17.1385 -2.5525 0.0 0
M  V30 34 C -18.3971 -1.7173 0.0 0
M  V30 35 C -19.7381 -2.3761 0.0 0
M  V30 36 C -18.3265 -0.2117 0.0 0
M  V30 37 N -20.9967 -1.5409 0.0 0
M  V30 38 C -19.5851 0.6234 0.0 0
M  V30 39 C -20.9261 -0.0352 0.0 0
M  V30 40 C -22.1847 0.7998 0.0 0
M  V30 END ATOM
M  V30 BEGIN BOND
M  V30 1 1 1 2
M  V30 2 1 2 3
M  V30 3 1 2 4
M  V30 4 1 2 5
M  V30 5 2 5 6
M  V30 6 1 5 7
M  V30 7 1 6 8
M  V30 8 2 7 9
M  V30 9 1 8 10
M  V30 10 2 8 11
M  V30 11 2 10 12
M  V30 12 1 10 13
M  V30 13 1 13 14
M  V30 14 2 14 15
M  V30 15 1 14 16
M  V30 16 1 15 17
M  V30 17 2 16 18
M  V30 18 1 17 19
M  V30 19 2 17 20
M  V30 20 1 19 21
M  V30 21 1 19 22
M  V30 22 1 20 23
M  V30 23 2 21 24
M  V30 24 1 21 25
M  V30 25 1 22 26
M  V30 26 1 25 27
M  V30 27 1 25 28
M  V30 28 1 26 29
M  V30 29 1 27 30
M  V30 30 2 29 31
M  V30 31 2 30 32
M  V30 32 1 32 33
M  V30 33 1 33 34
M  V30 34 2 34 35
M  V30 35 1 34 36
M  V30 36 1 35 37
M  V30 37 2 36 38
M  V30 38 2 37 39
M  V30 39 1 39 40
M  V30 40 1 9 11
M  V30 41 1 18 20
M  V30 42 2 26 27
M  V30 43 1 31 32
M  V30 44 1 38 39
M  V30 END BOND
M  V30 END CTAB
M  END
>  <Compound ID>
222

>  <Name>
GNF-7

>  <Uniprot>
Q16644

>  <Target>
MAPKAPK3

>  <Smiles>
CC1=CC=C(NC2=NC=C3CN(C4=CC(NC(=O)C5=CC=CC(C(F)(F)F)=C5)=CC=C4C)C(=O)N(C)C3=N2)C=N1

>  <Kd (nM)>


>  <Assay (Kd)>


>  <Ki (nM)>


>  <Assay (Ki)>


>  <IC50 (nM)>


>  <Assay (IC50)>


>  <EC50 (nM)>


>  <Assay (EC50)>


>  <Article DOI>


>  <Molecular Weight>
547.541

>  <Exact Mass>
547.194357668

>  <XLogP3>
4.33

>  <Heavy Atom Count>
40

>  <Ring Count>
5

>  <Hydrogen Bond Acceptor Count>
6

>  <Hydrogen Bond Donor Count>
2

>  <Rotatable Bond Count>
5

>  <Topological Polar Surface Area>
103.35

>  <Molecular Formula>
C28H24F3N7O2

>  <InChI>
InChI=1S/C28H24F3N7O2/c1-16-7-9-21(34-25(39)18-5-4-6-20(11-18)28(29,30)31)12-23(16)38-15-19-13-33-26(36-24(19)37(3)27(38)40)35-22-10-8-17(2)32-14-22/h4-14H,15H2,1-3H3,(H,34,39)(H,33,35,36)

>  <InChI Key>
SZNYUUZOQHNEKB-UHFFFAOYSA-N

>  <BindingDB>
50323777

>  <PubChem>
11478363

>  <ChEMBL>
CHEMBL1214141

$$$$
Compound 777
Actelion Java MolfileCreator 2.0

  0  0  0  0  0  0              0 V3000
M  V30 BEGIN CTAB
M  V30 COUNTS 40 44 0 0 0
M  V30 BEGIN ATOM
M  V30 1 F 0.0 0.0 0.0 0
M  V30 2 C -1.3409 -0.6587 0.0 0
M  V30 3 F -0.6822 -1.9761 0.0 0
M  V30 4 F -2.0232 0.6822 0.0 0
M  V30 5 C -2.6819 -1.3174 0.0 0
M  V30 6 C -3.9405 -0.4822 0.0 0
M  V30 7 C -2.776 -2.7995 0.0 0
M  V30 8 C -5.2815 -1.1409 0.0 0
M  V30 9 C -4.117 -3.4582 0.0 0
M  V30 10 C -6.5401 -0.3058 0.0 0
M  V30 11 C -5.3756 -2.6231 0.0 0
M  V30 12 O -7.8811 -0.9645 0.0 0
M  V30 13 N -6.4695 1.1998 0.0 0
M  V30 14 C -7.7282 2.0349 0.0 0
M  V30 15 C -9.0691 1.3762 0.0 0
M  V30 16 C -7.6576 3.5406 0.0 0
M  V30 17 C -10.3278 2.2114 0.0 0
M  V30 18 C -8.9162 4.3757 0.0 0
M  V30 19 N -11.6687 1.5527 0.0 0
M  V30 20 C -10.2572 3.717 0.0 0
M  V30 21 C -12.9274 2.3878 0.0 0
M  V30 22 C -11.7628 0.0705 0.0 0
M  V30 23 C -11.5158 4.5522 0.0 0
M  V30 24 O -12.8568 3.8935 0.0 0
M  V30 25 N -14.2683 1.7291 0.0 0
M  V30 26 C -13.1038 -0.5881 0.0 0
M  V30 27 C -14.3624 0.247 0.0 0
M  V30 28 C -15.527 2.5643 0.0 0
M  V30 29 C -13.1979 -2.0702 0.0 0
M  V30 30 N -15.7034 -0.4117 0.0 0
M  V30 31 N -14.5389 -2.7289 0.0 0
M  V30 32 C -15.7975 -1.8938 0.0 0
M  V30 33 N -17.1385 -2.5525 0.0 0
M  V30 34 C -18.3971 -1.7173 0.0 0
M  V30 35 C -19.7381 -2.3761 0.0 0
M  V30 36 C -18.3265 -0.2117 0.0 0
M  V30 37 N -20.9967 -1.5409 0.0 0
M  V30 38 C -19.5851 0.6234 0.0 0
M  V30 39 C -20.9261 -0.0352 0.0 0
M  V30 40 C -22.1847 0.7998 0.0 0
M  V30 END ATOM
M  V30 BEGIN BOND
M  V30 1 1 1 2
M  V30 2 1 2 3
M  V30 3 1 2 4
M  V30 4 1 2 5
M  V30 5 2 5 6
M  V30 6 1 5 7
M  V30 7 1 6 8
M  V30 8 2 7 9
M  V30 9 1 8 10
M  V30 10 2 8 11
M  V30 11 2 10 12
M  V30 12 1 10 13
M  V30 13 1 13 14
M  V30 14 2 14 15
M  V30 15 1 14 16
M  V30 16 1 15 17
M  V30 17 2 16 18
M  V30 18 1 17 19
M  V30 19 2 17 20
M  V30 20 1 19 21
M  V30 21 1 19 22
M  V30 22 1 20 23
M  V30 23 2 21 24
M  V30 24 1 21 25
M  V30 25 1 22 26
M  V30 26 1 25 27
M  V30 27 1 25 28
M  V30 28 1 26 29
M  V30 29 1 27 30
M  V30 30 2 29 31
M  V30 31 2 30 32
M  V30 32 1 32 33
M  V30 33 1 33 34
M  V30 34 2 34 35
M  V30 35 1 34 36
M  V30 36 1 35 37
M  V30 37 2 36 38
M  V30 38 2 37 39
M  V30 39 1 39 40
M  V30 40 1 9 11
M  V30 41 1 18 20
M  V30 42 2 26 27
M  V30 43 1 31 32
M  V30 44 1 38 39
M  V30 END BOND
M  V30 END CTAB
M  END
>  <Compound ID>
222

>  <Name>
GNF-7

>  <Uniprot>
Q9HBH9

>  <Target>
MKNK2

>  <Smiles>
CC1=CC=C(NC2=NC=C3CN(C4=CC(NC(=O)C5=CC=CC(C(F)(F)F)=C5)=CC=C4C)C(=O)N(C)C3=N2)C=N1

>  <Kd (nM)>


>  <Assay (Kd)>


>  <Ki (nM)>


>  <Assay (Ki)>


>  <IC50 (nM)>


>  <Assay (IC50)>


>  <EC50 (nM)>


>  <Assay (EC50)>


>  <Article DOI>


>  <Molecular Weight>
547.541

>  <Exact Mass>
547.194357668

>  <XLogP3>
4.33

>  <Heavy Atom Count>
40

>  <Ring Count>
5

>  <Hydrogen Bond Acceptor Count>
6

>  <Hydrogen Bond Donor Count>
2

>  <Rotatable Bond Count>
5

>  <Topological Polar Surface Area>
103.35

>  <Molecular Formula>
C28H24F3N7O2

>  <InChI>
InChI=1S/C28H24F3N7O2/c1-16-7-9-21(34-25(39)18-5-4-6-20(11-18)28(29,30)31)12-23(16)38-15-19-13-33-26(36-24(19)37(3)27(38)40)35-22-10-8-17(2)32-14-22/h4-14H,15H2,1-3H3,(H,34,39)(H,33,35,36)

>  <InChI Key>
SZNYUUZOQHNEKB-UHFFFAOYSA-N

>  <BindingDB>
50323777

>  <PubChem>
11478363

>  <ChEMBL>
CHEMBL1214141

$$$$
Compound 778
Actelion Java MolfileCreator 2.0

  0  0  0  0  0  0              0 V3000
M  V30 BEGIN CTAB
M  V30 COUNTS 40 44 0 0 0
M  V30 BEGIN ATOM
M  V30 1 F 0.0 0.0 0.0 0
M  V30 2 C -1.3409 -0.6587 0.0 0
M  V30 3 F -0.6822 -1.9761 0.0 0
M  V30 4 F -2.0232 0.6822 0.0 0
M  V30 5 C -2.6819 -1.3174 0.0 0
M  V30 6 C -3.9405 -0.4822 0.0 0
M  V30 7 C -2.776 -2.7995 0.0 0
M  V30 8 C -5.2815 -1.1409 0.0 0
M  V30 9 C -4.117 -3.4582 0.0 0
M  V30 10 C -6.5401 -0.3058 0.0 0
M  V30 11 C -5.3756 -2.6231 0.0 0
M  V30 12 O -7.8811 -0.9645 0.0 0
M  V30 13 N -6.4695 1.1998 0.0 0
M  V30 14 C -7.7282 2.0349 0.0 0
M  V30 15 C -9.0691 1.3762 0.0 0
M  V30 16 C -7.6576 3.5406 0.0 0
M  V30 17 C -10.3278 2.2114 0.0 0
M  V30 18 C -8.9162 4.3757 0.0 0
M  V30 19 N -11.6687 1.5527 0.0 0
M  V30 20 C -10.2572 3.717 0.0 0
M  V30 21 C -12.9274 2.3878 0.0 0
M  V30 22 C -11.7628 0.0705 0.0 0
M  V30 23 C -11.5158 4.5522 0.0 0
M  V30 24 O -12.8568 3.8935 0.0 0
M  V30 25 N -14.2683 1.7291 0.0 0
M  V30 26 C -13.1038 -0.5881 0.0 0
M  V30 27 C -14.3624 0.247 0.0 0
M  V30 28 C -15.527 2.5643 0.0 0
M  V30 29 C -13.1979 -2.0702 0.0 0
M  V30 30 N -15.7034 -0.4117 0.0 0
M  V30 31 N -14.5389 -2.7289 0.0 0
M  V30 32 C -15.7975 -1.8938 0.0 0
M  V30 33 N -17.1385 -2.5525 0.0 0
M  V30 34 C -18.3971 -1.7173 0.0 0
M  V30 35 C -19.7381 -2.3761 0.0 0
M  V30 36 C -18.3265 -0.2117 0.0 0
M  V30 37 N -20.9967 -1.5409 0.0 0
M  V30 38 C -19.5851 0.6234 0.0 0
M  V30 39 C -20.9261 -0.0352 0.0 0
M  V30 40 C -22.1847 0.7998 0.0 0
M  V30 END ATOM
M  V30 BEGIN BOND
M  V30 1 1 1 2
M  V30 2 1 2 3
M  V30 3 1 2 4
M  V30 4 1 2 5
M  V30 5 2 5 6
M  V30 6 1 5 7
M  V30 7 1 6 8
M  V30 8 2 7 9
M  V30 9 1 8 10
M  V30 10 2 8 11
M  V30 11 2 10 12
M  V30 12 1 10 13
M  V30 13 1 13 14
M  V30 14 2 14 15
M  V30 15 1 14 16
M  V30 16 1 15 17
M  V30 17 2 16 18
M  V30 18 1 17 19
M  V30 19 2 17 20
M  V30 20 1 19 21
M  V30 21 1 19 22
M  V30 22 1 20 23
M  V30 23 2 21 24
M  V30 24 1 21 25
M  V30 25 1 22 26
M  V30 26 1 25 27
M  V30 27 1 25 28
M  V30 28 1 26 29
M  V30 29 1 27 30
M  V30 30 2 29 31
M  V30 31 2 30 32
M  V30 32 1 32 33
M  V30 33 1 33 34
M  V30 34 2 34 35
M  V30 35 1 34 36
M  V30 36 1 35 37
M  V30 37 2 36 38
M  V30 38 2 37 39
M  V30 39 1 39 40
M  V30 40 1 9 11
M  V30 41 1 18 20
M  V30 42 2 26 27
M  V30 43 1 31 32
M  V30 44 1 38 39
M  V30 END BOND
M  V30 END CTAB
M  END
>  <Compound ID>
222

>  <Name>
GNF-7

>  <Uniprot>
Q9UBE8

>  <Target>
NLK

>  <Smiles>
CC1=CC=C(NC2=NC=C3CN(C4=CC(NC(=O)C5=CC=CC(C(F)(F)F)=C5)=CC=C4C)C(=O)N(C)C3=N2)C=N1

>  <Kd (nM)>


>  <Assay (Kd)>


>  <Ki (nM)>


>  <Assay (Ki)>


>  <IC50 (nM)>


>  <Assay (IC50)>


>  <EC50 (nM)>


>  <Assay (EC50)>


>  <Article DOI>


>  <Molecular Weight>
547.541

>  <Exact Mass>
547.194357668

>  <XLogP3>
4.33

>  <Heavy Atom Count>
40

>  <Ring Count>
5

>  <Hydrogen Bond Acceptor Count>
6

>  <Hydrogen Bond Donor Count>
2

>  <Rotatable Bond Count>
5

>  <Topological Polar Surface Area>
103.35

>  <Molecular Formula>
C28H24F3N7O2

>  <InChI>
InChI=1S/C28H24F3N7O2/c1-16-7-9-21(34-25(39)18-5-4-6-20(11-18)28(29,30)31)12-23(16)38-15-19-13-33-26(36-24(19)37(3)27(38)40)35-22-10-8-17(2)32-14-22/h4-14H,15H2,1-3H3,(H,34,39)(H,33,35,36)

>  <InChI Key>
SZNYUUZOQHNEKB-UHFFFAOYSA-N

>  <BindingDB>
50323777

>  <PubChem>
11478363

>  <ChEMBL>
CHEMBL1214141

$$$$
Compound 779
Actelion Java MolfileCreator 2.0

  0  0  0  0  0  0              0 V3000
M  V30 BEGIN CTAB
M  V30 COUNTS 40 44 0 0 0
M  V30 BEGIN ATOM
M  V30 1 F 0.0 0.0 0.0 0
M  V30 2 C -1.3409 -0.6587 0.0 0
M  V30 3 F -0.6822 -1.9761 0.0 0
M  V30 4 F -2.0232 0.6822 0.0 0
M  V30 5 C -2.6819 -1.3174 0.0 0
M  V30 6 C -3.9405 -0.4822 0.0 0
M  V30 7 C -2.776 -2.7995 0.0 0
M  V30 8 C -5.2815 -1.1409 0.0 0
M  V30 9 C -4.117 -3.4582 0.0 0
M  V30 10 C -6.5401 -0.3058 0.0 0
M  V30 11 C -5.3756 -2.6231 0.0 0
M  V30 12 O -7.8811 -0.9645 0.0 0
M  V30 13 N -6.4695 1.1998 0.0 0
M  V30 14 C -7.7282 2.0349 0.0 0
M  V30 15 C -9.0691 1.3762 0.0 0
M  V30 16 C -7.6576 3.5406 0.0 0
M  V30 17 C -10.3278 2.2114 0.0 0
M  V30 18 C -8.9162 4.3757 0.0 0
M  V30 19 N -11.6687 1.5527 0.0 0
M  V30 20 C -10.2572 3.717 0.0 0
M  V30 21 C -12.9274 2.3878 0.0 0
M  V30 22 C -11.7628 0.0705 0.0 0
M  V30 23 C -11.5158 4.5522 0.0 0
M  V30 24 O -12.8568 3.8935 0.0 0
M  V30 25 N -14.2683 1.7291 0.0 0
M  V30 26 C -13.1038 -0.5881 0.0 0
M  V30 27 C -14.3624 0.247 0.0 0
M  V30 28 C -15.527 2.5643 0.0 0
M  V30 29 C -13.1979 -2.0702 0.0 0
M  V30 30 N -15.7034 -0.4117 0.0 0
M  V30 31 N -14.5389 -2.7289 0.0 0
M  V30 32 C -15.7975 -1.8938 0.0 0
M  V30 33 N -17.1385 -2.5525 0.0 0
M  V30 34 C -18.3971 -1.7173 0.0 0
M  V30 35 C -19.7381 -2.3761 0.0 0
M  V30 36 C -18.3265 -0.2117 0.0 0
M  V30 37 N -20.9967 -1.5409 0.0 0
M  V30 38 C -19.5851 0.6234 0.0 0
M  V30 39 C -20.9261 -0.0352 0.0 0
M  V30 40 C -22.1847 0.7998 0.0 0
M  V30 END ATOM
M  V30 BEGIN BOND
M  V30 1 1 1 2
M  V30 2 1 2 3
M  V30 3 1 2 4
M  V30 4 1 2 5
M  V30 5 2 5 6
M  V30 6 1 5 7
M  V30 7 1 6 8
M  V30 8 2 7 9
M  V30 9 1 8 10
M  V30 10 2 8 11
M  V30 11 2 10 12
M  V30 12 1 10 13
M  V30 13 1 13 14
M  V30 14 2 14 15
M  V30 15 1 14 16
M  V30 16 1 15 17
M  V30 17 2 16 18
M  V30 18 1 17 19
M  V30 19 2 17 20
M  V30 20 1 19 21
M  V30 21 1 19 22
M  V30 22 1 20 23
M  V30 23 2 21 24
M  V30 24 1 21 25
M  V30 25 1 22 26
M  V30 26 1 25 27
M  V30 27 1 25 28
M  V30 28 1 26 29
M  V30 29 1 27 30
M  V30 30 2 29 31
M  V30 31 2 30 32
M  V30 32 1 32 33
M  V30 33 1 33 34
M  V30 34 2 34 35
M  V30 35 1 34 36
M  V30 36 1 35 37
M  V30 37 2 36 38
M  V30 38 2 37 39
M  V30 39 1 39 40
M  V30 40 1 9 11
M  V30 41 1 18 20
M  V30 42 2 26 27
M  V30 43 1 31 32
M  V30 44 1 38 39
M  V30 END BOND
M  V30 END CTAB
M  END
>  <Compound ID>
222

>  <Name>
GNF-7

>  <Uniprot>
Q16539

>  <Target>
p38alpha

>  <Smiles>
CC1=CC=C(NC2=NC=C3CN(C4=CC(NC(=O)C5=CC=CC(C(F)(F)F)=C5)=CC=C4C)C(=O)N(C)C3=N2)C=N1

>  <Kd (nM)>


>  <Assay (Kd)>


>  <Ki (nM)>


>  <Assay (Ki)>


>  <IC50 (nM)>


>  <Assay (IC50)>


>  <EC50 (nM)>


>  <Assay (EC50)>


>  <Article DOI>


>  <Molecular Weight>
547.541

>  <Exact Mass>
547.194357668

>  <XLogP3>
4.33

>  <Heavy Atom Count>
40

>  <Ring Count>
5

>  <Hydrogen Bond Acceptor Count>
6

>  <Hydrogen Bond Donor Count>
2

>  <Rotatable Bond Count>
5

>  <Topological Polar Surface Area>
103.35

>  <Molecular Formula>
C28H24F3N7O2

>  <InChI>
InChI=1S/C28H24F3N7O2/c1-16-7-9-21(34-25(39)18-5-4-6-20(11-18)28(29,30)31)12-23(16)38-15-19-13-33-26(36-24(19)37(3)27(38)40)35-22-10-8-17(2)32-14-22/h4-14H,15H2,1-3H3,(H,34,39)(H,33,35,36)

>  <InChI Key>
SZNYUUZOQHNEKB-UHFFFAOYSA-N

>  <BindingDB>
50323777

>  <PubChem>
11478363

>  <ChEMBL>
CHEMBL1214141

$$$$
Compound 780
Actelion Java MolfileCreator 2.0

  0  0  0  0  0  0              0 V3000
M  V30 BEGIN CTAB
M  V30 COUNTS 40 44 0 0 0
M  V30 BEGIN ATOM
M  V30 1 F 0.0 0.0 0.0 0
M  V30 2 C -1.3409 -0.6587 0.0 0
M  V30 3 F -0.6822 -1.9761 0.0 0
M  V30 4 F -2.0232 0.6822 0.0 0
M  V30 5 C -2.6819 -1.3174 0.0 0
M  V30 6 C -3.9405 -0.4822 0.0 0
M  V30 7 C -2.776 -2.7995 0.0 0
M  V30 8 C -5.2815 -1.1409 0.0 0
M  V30 9 C -4.117 -3.4582 0.0 0
M  V30 10 C -6.5401 -0.3058 0.0 0
M  V30 11 C -5.3756 -2.6231 0.0 0
M  V30 12 O -7.8811 -0.9645 0.0 0
M  V30 13 N -6.4695 1.1998 0.0 0
M  V30 14 C -7.7282 2.0349 0.0 0
M  V30 15 C -9.0691 1.3762 0.0 0
M  V30 16 C -7.6576 3.5406 0.0 0
M  V30 17 C -10.3278 2.2114 0.0 0
M  V30 18 C -8.9162 4.3757 0.0 0
M  V30 19 N -11.6687 1.5527 0.0 0
M  V30 20 C -10.2572 3.717 0.0 0
M  V30 21 C -12.9274 2.3878 0.0 0
M  V30 22 C -11.7628 0.0705 0.0 0
M  V30 23 C -11.5158 4.5522 0.0 0
M  V30 24 O -12.8568 3.8935 0.0 0
M  V30 25 N -14.2683 1.7291 0.0 0
M  V30 26 C -13.1038 -0.5881 0.0 0
M  V30 27 C -14.3624 0.247 0.0 0
M  V30 28 C -15.527 2.5643 0.0 0
M  V30 29 C -13.1979 -2.0702 0.0 0
M  V30 30 N -15.7034 -0.4117 0.0 0
M  V30 31 N -14.5389 -2.7289 0.0 0
M  V30 32 C -15.7975 -1.8938 0.0 0
M  V30 33 N -17.1385 -2.5525 0.0 0
M  V30 34 C -18.3971 -1.7173 0.0 0
M  V30 35 C -19.7381 -2.3761 0.0 0
M  V30 36 C -18.3265 -0.2117 0.0 0
M  V30 37 N -20.9967 -1.5409 0.0 0
M  V30 38 C -19.5851 0.6234 0.0 0
M  V30 39 C -20.9261 -0.0352 0.0 0
M  V30 40 C -22.1847 0.7998 0.0 0
M  V30 END ATOM
M  V30 BEGIN BOND
M  V30 1 1 1 2
M  V30 2 1 2 3
M  V30 3 1 2 4
M  V30 4 1 2 5
M  V30 5 2 5 6
M  V30 6 1 5 7
M  V30 7 1 6 8
M  V30 8 2 7 9
M  V30 9 1 8 10
M  V30 10 2 8 11
M  V30 11 2 10 12
M  V30 12 1 10 13
M  V30 13 1 13 14
M  V30 14 2 14 15
M  V30 15 1 14 16
M  V30 16 1 15 17
M  V30 17 2 16 18
M  V30 18 1 17 19
M  V30 19 2 17 20
M  V30 20 1 19 21
M  V30 21 1 19 22
M  V30 22 1 20 23
M  V30 23 2 21 24
M  V30 24 1 21 25
M  V30 25 1 22 26
M  V30 26 1 25 27
M  V30 27 1 25 28
M  V30 28 1 26 29
M  V30 29 1 27 30
M  V30 30 2 29 31
M  V30 31 2 30 32
M  V30 32 1 32 33
M  V30 33 1 33 34
M  V30 34 2 34 35
M  V30 35 1 34 36
M  V30 36 1 35 37
M  V30 37 2 36 38
M  V30 38 2 37 39
M  V30 39 1 39 40
M  V30 40 1 9 11
M  V30 41 1 18 20
M  V30 42 2 26 27
M  V30 43 1 31 32
M  V30 44 1 38 39
M  V30 END BOND
M  V30 END CTAB
M  END
>  <Compound ID>
222

>  <Name>
GNF-7

>  <Uniprot>
Q15759

>  <Target>
p38beta

>  <Smiles>
CC1=CC=C(NC2=NC=C3CN(C4=CC(NC(=O)C5=CC=CC(C(F)(F)F)=C5)=CC=C4C)C(=O)N(C)C3=N2)C=N1

>  <Kd (nM)>


>  <Assay (Kd)>


>  <Ki (nM)>


>  <Assay (Ki)>


>  <IC50 (nM)>


>  <Assay (IC50)>


>  <EC50 (nM)>


>  <Assay (EC50)>


>  <Article DOI>


>  <Molecular Weight>
547.541

>  <Exact Mass>
547.194357668

>  <XLogP3>
4.33

>  <Heavy Atom Count>
40

>  <Ring Count>
5

>  <Hydrogen Bond Acceptor Count>
6

>  <Hydrogen Bond Donor Count>
2

>  <Rotatable Bond Count>
5

>  <Topological Polar Surface Area>
103.35

>  <Molecular Formula>
C28H24F3N7O2

>  <InChI>
InChI=1S/C28H24F3N7O2/c1-16-7-9-21(34-25(39)18-5-4-6-20(11-18)28(29,30)31)12-23(16)38-15-19-13-33-26(36-24(19)37(3)27(38)40)35-22-10-8-17(2)32-14-22/h4-14H,15H2,1-3H3,(H,34,39)(H,33,35,36)

>  <InChI Key>
SZNYUUZOQHNEKB-UHFFFAOYSA-N

>  <BindingDB>
50323777

>  <PubChem>
11478363

>  <ChEMBL>
CHEMBL1214141

$$$$
Compound 781
Actelion Java MolfileCreator 2.0

  0  0  0  0  0  0              0 V3000
M  V30 BEGIN CTAB
M  V30 COUNTS 40 44 0 0 0
M  V30 BEGIN ATOM
M  V30 1 F 0.0 0.0 0.0 0
M  V30 2 C -1.3409 -0.6587 0.0 0
M  V30 3 F -0.6822 -1.9761 0.0 0
M  V30 4 F -2.0232 0.6822 0.0 0
M  V30 5 C -2.6819 -1.3174 0.0 0
M  V30 6 C -3.9405 -0.4822 0.0 0
M  V30 7 C -2.776 -2.7995 0.0 0
M  V30 8 C -5.2815 -1.1409 0.0 0
M  V30 9 C -4.117 -3.4582 0.0 0
M  V30 10 C -6.5401 -0.3058 0.0 0
M  V30 11 C -5.3756 -2.6231 0.0 0
M  V30 12 O -7.8811 -0.9645 0.0 0
M  V30 13 N -6.4695 1.1998 0.0 0
M  V30 14 C -7.7282 2.0349 0.0 0
M  V30 15 C -9.0691 1.3762 0.0 0
M  V30 16 C -7.6576 3.5406 0.0 0
M  V30 17 C -10.3278 2.2114 0.0 0
M  V30 18 C -8.9162 4.3757 0.0 0
M  V30 19 N -11.6687 1.5527 0.0 0
M  V30 20 C -10.2572 3.717 0.0 0
M  V30 21 C -12.9274 2.3878 0.0 0
M  V30 22 C -11.7628 0.0705 0.0 0
M  V30 23 C -11.5158 4.5522 0.0 0
M  V30 24 O -12.8568 3.8935 0.0 0
M  V30 25 N -14.2683 1.7291 0.0 0
M  V30 26 C -13.1038 -0.5881 0.0 0
M  V30 27 C -14.3624 0.247 0.0 0
M  V30 28 C -15.527 2.5643 0.0 0
M  V30 29 C -13.1979 -2.0702 0.0 0
M  V30 30 N -15.7034 -0.4117 0.0 0
M  V30 31 N -14.5389 -2.7289 0.0 0
M  V30 32 C -15.7975 -1.8938 0.0 0
M  V30 33 N -17.1385 -2.5525 0.0 0
M  V30 34 C -18.3971 -1.7173 0.0 0
M  V30 35 C -19.7381 -2.3761 0.0 0
M  V30 36 C -18.3265 -0.2117 0.0 0
M  V30 37 N -20.9967 -1.5409 0.0 0
M  V30 38 C -19.5851 0.6234 0.0 0
M  V30 39 C -20.9261 -0.0352 0.0 0
M  V30 40 C -22.1847 0.7998 0.0 0
M  V30 END ATOM
M  V30 BEGIN BOND
M  V30 1 1 1 2
M  V30 2 1 2 3
M  V30 3 1 2 4
M  V30 4 1 2 5
M  V30 5 2 5 6
M  V30 6 1 5 7
M  V30 7 1 6 8
M  V30 8 2 7 9
M  V30 9 1 8 10
M  V30 10 2 8 11
M  V30 11 2 10 12
M  V30 12 1 10 13
M  V30 13 1 13 14
M  V30 14 2 14 15
M  V30 15 1 14 16
M  V30 16 1 15 17
M  V30 17 2 16 18
M  V30 18 1 17 19
M  V30 19 2 17 20
M  V30 20 1 19 21
M  V30 21 1 19 22
M  V30 22 1 20 23
M  V30 23 2 21 24
M  V30 24 1 21 25
M  V30 25 1 22 26
M  V30 26 1 25 27
M  V30 27 1 25 28
M  V30 28 1 26 29
M  V30 29 1 27 30
M  V30 30 2 29 31
M  V30 31 2 30 32
M  V30 32 1 32 33
M  V30 33 1 33 34
M  V30 34 2 34 35
M  V30 35 1 34 36
M  V30 36 1 35 37
M  V30 37 2 36 38
M  V30 38 2 37 39
M  V30 39 1 39 40
M  V30 40 1 9 11
M  V30 41 1 18 20
M  V30 42 2 26 27
M  V30 43 1 31 32
M  V30 44 1 38 39
M  V30 END BOND
M  V30 END CTAB
M  END
>  <Compound ID>
222

>  <Name>
GNF-7

>  <Uniprot>
O96013

>  <Target>
PAK4

>  <Smiles>
CC1=CC=C(NC2=NC=C3CN(C4=CC(NC(=O)C5=CC=CC(C(F)(F)F)=C5)=CC=C4C)C(=O)N(C)C3=N2)C=N1

>  <Kd (nM)>


>  <Assay (Kd)>


>  <Ki (nM)>


>  <Assay (Ki)>


>  <IC50 (nM)>


>  <Assay (IC50)>


>  <EC50 (nM)>


>  <Assay (EC50)>


>  <Article DOI>


>  <Molecular Weight>
547.541

>  <Exact Mass>
547.194357668

>  <XLogP3>
4.33

>  <Heavy Atom Count>
40

>  <Ring Count>
5

>  <Hydrogen Bond Acceptor Count>
6

>  <Hydrogen Bond Donor Count>
2

>  <Rotatable Bond Count>
5

>  <Topological Polar Surface Area>
103.35

>  <Molecular Formula>
C28H24F3N7O2

>  <InChI>
InChI=1S/C28H24F3N7O2/c1-16-7-9-21(34-25(39)18-5-4-6-20(11-18)28(29,30)31)12-23(16)38-15-19-13-33-26(36-24(19)37(3)27(38)40)35-22-10-8-17(2)32-14-22/h4-14H,15H2,1-3H3,(H,34,39)(H,33,35,36)

>  <InChI Key>
SZNYUUZOQHNEKB-UHFFFAOYSA-N

>  <BindingDB>
50323777

>  <PubChem>
11478363

>  <ChEMBL>
CHEMBL1214141

$$$$
Compound 782
Actelion Java MolfileCreator 2.0

  0  0  0  0  0  0              0 V3000
M  V30 BEGIN CTAB
M  V30 COUNTS 40 44 0 0 0
M  V30 BEGIN ATOM
M  V30 1 F 0.0 0.0 0.0 0
M  V30 2 C -1.3409 -0.6587 0.0 0
M  V30 3 F -0.6822 -1.9761 0.0 0
M  V30 4 F -2.0232 0.6822 0.0 0
M  V30 5 C -2.6819 -1.3174 0.0 0
M  V30 6 C -3.9405 -0.4822 0.0 0
M  V30 7 C -2.776 -2.7995 0.0 0
M  V30 8 C -5.2815 -1.1409 0.0 0
M  V30 9 C -4.117 -3.4582 0.0 0
M  V30 10 C -6.5401 -0.3058 0.0 0
M  V30 11 C -5.3756 -2.6231 0.0 0
M  V30 12 O -7.8811 -0.9645 0.0 0
M  V30 13 N -6.4695 1.1998 0.0 0
M  V30 14 C -7.7282 2.0349 0.0 0
M  V30 15 C -9.0691 1.3762 0.0 0
M  V30 16 C -7.6576 3.5406 0.0 0
M  V30 17 C -10.3278 2.2114 0.0 0
M  V30 18 C -8.9162 4.3757 0.0 0
M  V30 19 N -11.6687 1.5527 0.0 0
M  V30 20 C -10.2572 3.717 0.0 0
M  V30 21 C -12.9274 2.3878 0.0 0
M  V30 22 C -11.7628 0.0705 0.0 0
M  V30 23 C -11.5158 4.5522 0.0 0
M  V30 24 O -12.8568 3.8935 0.0 0
M  V30 25 N -14.2683 1.7291 0.0 0
M  V30 26 C -13.1038 -0.5881 0.0 0
M  V30 27 C -14.3624 0.247 0.0 0
M  V30 28 C -15.527 2.5643 0.0 0
M  V30 29 C -13.1979 -2.0702 0.0 0
M  V30 30 N -15.7034 -0.4117 0.0 0
M  V30 31 N -14.5389 -2.7289 0.0 0
M  V30 32 C -15.7975 -1.8938 0.0 0
M  V30 33 N -17.1385 -2.5525 0.0 0
M  V30 34 C -18.3971 -1.7173 0.0 0
M  V30 35 C -19.7381 -2.3761 0.0 0
M  V30 36 C -18.3265 -0.2117 0.0 0
M  V30 37 N -20.9967 -1.5409 0.0 0
M  V30 38 C -19.5851 0.6234 0.0 0
M  V30 39 C -20.9261 -0.0352 0.0 0
M  V30 40 C -22.1847 0.7998 0.0 0
M  V30 END ATOM
M  V30 BEGIN BOND
M  V30 1 1 1 2
M  V30 2 1 2 3
M  V30 3 1 2 4
M  V30 4 1 2 5
M  V30 5 2 5 6
M  V30 6 1 5 7
M  V30 7 1 6 8
M  V30 8 2 7 9
M  V30 9 1 8 10
M  V30 10 2 8 11
M  V30 11 2 10 12
M  V30 12 1 10 13
M  V30 13 1 13 14
M  V30 14 2 14 15
M  V30 15 1 14 16
M  V30 16 1 15 17
M  V30 17 2 16 18
M  V30 18 1 17 19
M  V30 19 2 17 20
M  V30 20 1 19 21
M  V30 21 1 19 22
M  V30 22 1 20 23
M  V30 23 2 21 24
M  V30 24 1 21 25
M  V30 25 1 22 26
M  V30 26 1 25 27
M  V30 27 1 25 28
M  V30 28 1 26 29
M  V30 29 1 27 30
M  V30 30 2 29 31
M  V30 31 2 30 32
M  V30 32 1 32 33
M  V30 33 1 33 34
M  V30 34 2 34 35
M  V30 35 1 34 36
M  V30 36 1 35 37
M  V30 37 2 36 38
M  V30 38 2 37 39
M  V30 39 1 39 40
M  V30 40 1 9 11
M  V30 41 1 18 20
M  V30 42 2 26 27
M  V30 43 1 31 32
M  V30 44 1 38 39
M  V30 END BOND
M  V30 END CTAB
M  END
>  <Compound ID>
222

>  <Name>
GNF-7

>  <Uniprot>
Q8N165

>  <Target>
PDIK1L

>  <Smiles>
CC1=CC=C(NC2=NC=C3CN(C4=CC(NC(=O)C5=CC=CC(C(F)(F)F)=C5)=CC=C4C)C(=O)N(C)C3=N2)C=N1

>  <Kd (nM)>


>  <Assay (Kd)>


>  <Ki (nM)>


>  <Assay (Ki)>


>  <IC50 (nM)>


>  <Assay (IC50)>


>  <EC50 (nM)>


>  <Assay (EC50)>


>  <Article DOI>


>  <Molecular Weight>
547.541

>  <Exact Mass>
547.194357668

>  <XLogP3>
4.33

>  <Heavy Atom Count>
40

>  <Ring Count>
5

>  <Hydrogen Bond Acceptor Count>
6

>  <Hydrogen Bond Donor Count>
2

>  <Rotatable Bond Count>
5

>  <Topological Polar Surface Area>
103.35

>  <Molecular Formula>
C28H24F3N7O2

>  <InChI>
InChI=1S/C28H24F3N7O2/c1-16-7-9-21(34-25(39)18-5-4-6-20(11-18)28(29,30)31)12-23(16)38-15-19-13-33-26(36-24(19)37(3)27(38)40)35-22-10-8-17(2)32-14-22/h4-14H,15H2,1-3H3,(H,34,39)(H,33,35,36)

>  <InChI Key>
SZNYUUZOQHNEKB-UHFFFAOYSA-N

>  <BindingDB>
50323777

>  <PubChem>
11478363

>  <ChEMBL>
CHEMBL1214141

$$$$
Compound 783
Actelion Java MolfileCreator 2.0

  0  0  0  0  0  0              0 V3000
M  V30 BEGIN CTAB
M  V30 COUNTS 40 44 0 0 0
M  V30 BEGIN ATOM
M  V30 1 F 0.0 0.0 0.0 0
M  V30 2 C -1.3409 -0.6587 0.0 0
M  V30 3 F -0.6822 -1.9761 0.0 0
M  V30 4 F -2.0232 0.6822 0.0 0
M  V30 5 C -2.6819 -1.3174 0.0 0
M  V30 6 C -3.9405 -0.4822 0.0 0
M  V30 7 C -2.776 -2.7995 0.0 0
M  V30 8 C -5.2815 -1.1409 0.0 0
M  V30 9 C -4.117 -3.4582 0.0 0
M  V30 10 C -6.5401 -0.3058 0.0 0
M  V30 11 C -5.3756 -2.6231 0.0 0
M  V30 12 O -7.8811 -0.9645 0.0 0
M  V30 13 N -6.4695 1.1998 0.0 0
M  V30 14 C -7.7282 2.0349 0.0 0
M  V30 15 C -9.0691 1.3762 0.0 0
M  V30 16 C -7.6576 3.5406 0.0 0
M  V30 17 C -10.3278 2.2114 0.0 0
M  V30 18 C -8.9162 4.3757 0.0 0
M  V30 19 N -11.6687 1.5527 0.0 0
M  V30 20 C -10.2572 3.717 0.0 0
M  V30 21 C -12.9274 2.3878 0.0 0
M  V30 22 C -11.7628 0.0705 0.0 0
M  V30 23 C -11.5158 4.5522 0.0 0
M  V30 24 O -12.8568 3.8935 0.0 0
M  V30 25 N -14.2683 1.7291 0.0 0
M  V30 26 C -13.1038 -0.5881 0.0 0
M  V30 27 C -14.3624 0.247 0.0 0
M  V30 28 C -15.527 2.5643 0.0 0
M  V30 29 C -13.1979 -2.0702 0.0 0
M  V30 30 N -15.7034 -0.4117 0.0 0
M  V30 31 N -14.5389 -2.7289 0.0 0
M  V30 32 C -15.7975 -1.8938 0.0 0
M  V30 33 N -17.1385 -2.5525 0.0 0
M  V30 34 C -18.3971 -1.7173 0.0 0
M  V30 35 C -19.7381 -2.3761 0.0 0
M  V30 36 C -18.3265 -0.2117 0.0 0
M  V30 37 N -20.9967 -1.5409 0.0 0
M  V30 38 C -19.5851 0.6234 0.0 0
M  V30 39 C -20.9261 -0.0352 0.0 0
M  V30 40 C -22.1847 0.7998 0.0 0
M  V30 END ATOM
M  V30 BEGIN BOND
M  V30 1 1 1 2
M  V30 2 1 2 3
M  V30 3 1 2 4
M  V30 4 1 2 5
M  V30 5 2 5 6
M  V30 6 1 5 7
M  V30 7 1 6 8
M  V30 8 2 7 9
M  V30 9 1 8 10
M  V30 10 2 8 11
M  V30 11 2 10 12
M  V30 12 1 10 13
M  V30 13 1 13 14
M  V30 14 2 14 15
M  V30 15 1 14 16
M  V30 16 1 15 17
M  V30 17 2 16 18
M  V30 18 1 17 19
M  V30 19 2 17 20
M  V30 20 1 19 21
M  V30 21 1 19 22
M  V30 22 1 20 23
M  V30 23 2 21 24
M  V30 24 1 21 25
M  V30 25 1 22 26
M  V30 26 1 25 27
M  V30 27 1 25 28
M  V30 28 1 26 29
M  V30 29 1 27 30
M  V30 30 2 29 31
M  V30 31 2 30 32
M  V30 32 1 32 33
M  V30 33 1 33 34
M  V30 34 2 34 35
M  V30 35 1 34 36
M  V30 36 1 35 37
M  V30 37 2 36 38
M  V30 38 2 37 39
M  V30 39 1 39 40
M  V30 40 1 9 11
M  V30 41 1 18 20
M  V30 42 2 26 27
M  V30 43 1 31 32
M  V30 44 1 38 39
M  V30 END BOND
M  V30 END CTAB
M  END
>  <Compound ID>
222

>  <Name>
GNF-7

>  <Uniprot>
P53350

>  <Target>
PLK1

>  <Smiles>
CC1=CC=C(NC2=NC=C3CN(C4=CC(NC(=O)C5=CC=CC(C(F)(F)F)=C5)=CC=C4C)C(=O)N(C)C3=N2)C=N1

>  <Kd (nM)>


>  <Assay (Kd)>


>  <Ki (nM)>


>  <Assay (Ki)>


>  <IC50 (nM)>


>  <Assay (IC50)>


>  <EC50 (nM)>


>  <Assay (EC50)>


>  <Article DOI>


>  <Molecular Weight>
547.541

>  <Exact Mass>
547.194357668

>  <XLogP3>
4.33

>  <Heavy Atom Count>
40

>  <Ring Count>
5

>  <Hydrogen Bond Acceptor Count>
6

>  <Hydrogen Bond Donor Count>
2

>  <Rotatable Bond Count>
5

>  <Topological Polar Surface Area>
103.35

>  <Molecular Formula>
C28H24F3N7O2

>  <InChI>
InChI=1S/C28H24F3N7O2/c1-16-7-9-21(34-25(39)18-5-4-6-20(11-18)28(29,30)31)12-23(16)38-15-19-13-33-26(36-24(19)37(3)27(38)40)35-22-10-8-17(2)32-14-22/h4-14H,15H2,1-3H3,(H,34,39)(H,33,35,36)

>  <InChI Key>
SZNYUUZOQHNEKB-UHFFFAOYSA-N

>  <BindingDB>
50323777

>  <PubChem>
11478363

>  <ChEMBL>
CHEMBL1214141

$$$$
Compound 784
Actelion Java MolfileCreator 2.0

  0  0  0  0  0  0              0 V3000
M  V30 BEGIN CTAB
M  V30 COUNTS 40 44 0 0 0
M  V30 BEGIN ATOM
M  V30 1 F 0.0 0.0 0.0 0
M  V30 2 C -1.3409 -0.6587 0.0 0
M  V30 3 F -0.6822 -1.9761 0.0 0
M  V30 4 F -2.0232 0.6822 0.0 0
M  V30 5 C -2.6819 -1.3174 0.0 0
M  V30 6 C -3.9405 -0.4822 0.0 0
M  V30 7 C -2.776 -2.7995 0.0 0
M  V30 8 C -5.2815 -1.1409 0.0 0
M  V30 9 C -4.117 -3.4582 0.0 0
M  V30 10 C -6.5401 -0.3058 0.0 0
M  V30 11 C -5.3756 -2.6231 0.0 0
M  V30 12 O -7.8811 -0.9645 0.0 0
M  V30 13 N -6.4695 1.1998 0.0 0
M  V30 14 C -7.7282 2.0349 0.0 0
M  V30 15 C -9.0691 1.3762 0.0 0
M  V30 16 C -7.6576 3.5406 0.0 0
M  V30 17 C -10.3278 2.2114 0.0 0
M  V30 18 C -8.9162 4.3757 0.0 0
M  V30 19 N -11.6687 1.5527 0.0 0
M  V30 20 C -10.2572 3.717 0.0 0
M  V30 21 C -12.9274 2.3878 0.0 0
M  V30 22 C -11.7628 0.0705 0.0 0
M  V30 23 C -11.5158 4.5522 0.0 0
M  V30 24 O -12.8568 3.8935 0.0 0
M  V30 25 N -14.2683 1.7291 0.0 0
M  V30 26 C -13.1038 -0.5881 0.0 0
M  V30 27 C -14.3624 0.247 0.0 0
M  V30 28 C -15.527 2.5643 0.0 0
M  V30 29 C -13.1979 -2.0702 0.0 0
M  V30 30 N -15.7034 -0.4117 0.0 0
M  V30 31 N -14.5389 -2.7289 0.0 0
M  V30 32 C -15.7975 -1.8938 0.0 0
M  V30 33 N -17.1385 -2.5525 0.0 0
M  V30 34 C -18.3971 -1.7173 0.0 0
M  V30 35 C -19.7381 -2.3761 0.0 0
M  V30 36 C -18.3265 -0.2117 0.0 0
M  V30 37 N -20.9967 -1.5409 0.0 0
M  V30 38 C -19.5851 0.6234 0.0 0
M  V30 39 C -20.9261 -0.0352 0.0 0
M  V30 40 C -22.1847 0.7998 0.0 0
M  V30 END ATOM
M  V30 BEGIN BOND
M  V30 1 1 1 2
M  V30 2 1 2 3
M  V30 3 1 2 4
M  V30 4 1 2 5
M  V30 5 2 5 6
M  V30 6 1 5 7
M  V30 7 1 6 8
M  V30 8 2 7 9
M  V30 9 1 8 10
M  V30 10 2 8 11
M  V30 11 2 10 12
M  V30 12 1 10 13
M  V30 13 1 13 14
M  V30 14 2 14 15
M  V30 15 1 14 16
M  V30 16 1 15 17
M  V30 17 2 16 18
M  V30 18 1 17 19
M  V30 19 2 17 20
M  V30 20 1 19 21
M  V30 21 1 19 22
M  V30 22 1 20 23
M  V30 23 2 21 24
M  V30 24 1 21 25
M  V30 25 1 22 26
M  V30 26 1 25 27
M  V30 27 1 25 28
M  V30 28 1 26 29
M  V30 29 1 27 30
M  V30 30 2 29 31
M  V30 31 2 30 32
M  V30 32 1 32 33
M  V30 33 1 33 34
M  V30 34 2 34 35
M  V30 35 1 34 36
M  V30 36 1 35 37
M  V30 37 2 36 38
M  V30 38 2 37 39
M  V30 39 1 39 40
M  V30 40 1 9 11
M  V30 41 1 18 20
M  V30 42 2 26 27
M  V30 43 1 31 32
M  V30 44 1 38 39
M  V30 END BOND
M  V30 END CTAB
M  END
>  <Compound ID>
222

>  <Name>
GNF-7

>  <Uniprot>
Q14289

>  <Target>
PTK2B

>  <Smiles>
CC1=CC=C(NC2=NC=C3CN(C4=CC(NC(=O)C5=CC=CC(C(F)(F)F)=C5)=CC=C4C)C(=O)N(C)C3=N2)C=N1

>  <Kd (nM)>


>  <Assay (Kd)>


>  <Ki (nM)>


>  <Assay (Ki)>


>  <IC50 (nM)>


>  <Assay (IC50)>


>  <EC50 (nM)>


>  <Assay (EC50)>


>  <Article DOI>


>  <Molecular Weight>
547.541

>  <Exact Mass>
547.194357668

>  <XLogP3>
4.33

>  <Heavy Atom Count>
40

>  <Ring Count>
5

>  <Hydrogen Bond Acceptor Count>
6

>  <Hydrogen Bond Donor Count>
2

>  <Rotatable Bond Count>
5

>  <Topological Polar Surface Area>
103.35

>  <Molecular Formula>
C28H24F3N7O2

>  <InChI>
InChI=1S/C28H24F3N7O2/c1-16-7-9-21(34-25(39)18-5-4-6-20(11-18)28(29,30)31)12-23(16)38-15-19-13-33-26(36-24(19)37(3)27(38)40)35-22-10-8-17(2)32-14-22/h4-14H,15H2,1-3H3,(H,34,39)(H,33,35,36)

>  <InChI Key>
SZNYUUZOQHNEKB-UHFFFAOYSA-N

>  <BindingDB>
50323777

>  <PubChem>
11478363

>  <ChEMBL>
CHEMBL1214141

$$$$
Compound 785
Actelion Java MolfileCreator 2.0

  0  0  0  0  0  0              0 V3000
M  V30 BEGIN CTAB
M  V30 COUNTS 40 44 0 0 0
M  V30 BEGIN ATOM
M  V30 1 F 0.0 0.0 0.0 0
M  V30 2 C -1.3409 -0.6587 0.0 0
M  V30 3 F -0.6822 -1.9761 0.0 0
M  V30 4 F -2.0232 0.6822 0.0 0
M  V30 5 C -2.6819 -1.3174 0.0 0
M  V30 6 C -3.9405 -0.4822 0.0 0
M  V30 7 C -2.776 -2.7995 0.0 0
M  V30 8 C -5.2815 -1.1409 0.0 0
M  V30 9 C -4.117 -3.4582 0.0 0
M  V30 10 C -6.5401 -0.3058 0.0 0
M  V30 11 C -5.3756 -2.6231 0.0 0
M  V30 12 O -7.8811 -0.9645 0.0 0
M  V30 13 N -6.4695 1.1998 0.0 0
M  V30 14 C -7.7282 2.0349 0.0 0
M  V30 15 C -9.0691 1.3762 0.0 0
M  V30 16 C -7.6576 3.5406 0.0 0
M  V30 17 C -10.3278 2.2114 0.0 0
M  V30 18 C -8.9162 4.3757 0.0 0
M  V30 19 N -11.6687 1.5527 0.0 0
M  V30 20 C -10.2572 3.717 0.0 0
M  V30 21 C -12.9274 2.3878 0.0 0
M  V30 22 C -11.7628 0.0705 0.0 0
M  V30 23 C -11.5158 4.5522 0.0 0
M  V30 24 O -12.8568 3.8935 0.0 0
M  V30 25 N -14.2683 1.7291 0.0 0
M  V30 26 C -13.1038 -0.5881 0.0 0
M  V30 27 C -14.3624 0.247 0.0 0
M  V30 28 C -15.527 2.5643 0.0 0
M  V30 29 C -13.1979 -2.0702 0.0 0
M  V30 30 N -15.7034 -0.4117 0.0 0
M  V30 31 N -14.5389 -2.7289 0.0 0
M  V30 32 C -15.7975 -1.8938 0.0 0
M  V30 33 N -17.1385 -2.5525 0.0 0
M  V30 34 C -18.3971 -1.7173 0.0 0
M  V30 35 C -19.7381 -2.3761 0.0 0
M  V30 36 C -18.3265 -0.2117 0.0 0
M  V30 37 N -20.9967 -1.5409 0.0 0
M  V30 38 C -19.5851 0.6234 0.0 0
M  V30 39 C -20.9261 -0.0352 0.0 0
M  V30 40 C -22.1847 0.7998 0.0 0
M  V30 END ATOM
M  V30 BEGIN BOND
M  V30 1 1 1 2
M  V30 2 1 2 3
M  V30 3 1 2 4
M  V30 4 1 2 5
M  V30 5 2 5 6
M  V30 6 1 5 7
M  V30 7 1 6 8
M  V30 8 2 7 9
M  V30 9 1 8 10
M  V30 10 2 8 11
M  V30 11 2 10 12
M  V30 12 1 10 13
M  V30 13 1 13 14
M  V30 14 2 14 15
M  V30 15 1 14 16
M  V30 16 1 15 17
M  V30 17 2 16 18
M  V30 18 1 17 19
M  V30 19 2 17 20
M  V30 20 1 19 21
M  V30 21 1 19 22
M  V30 22 1 20 23
M  V30 23 2 21 24
M  V30 24 1 21 25
M  V30 25 1 22 26
M  V30 26 1 25 27
M  V30 27 1 25 28
M  V30 28 1 26 29
M  V30 29 1 27 30
M  V30 30 2 29 31
M  V30 31 2 30 32
M  V30 32 1 32 33
M  V30 33 1 33 34
M  V30 34 2 34 35
M  V30 35 1 34 36
M  V30 36 1 35 37
M  V30 37 2 36 38
M  V30 38 2 37 39
M  V30 39 1 39 40
M  V30 40 1 9 11
M  V30 41 1 18 20
M  V30 42 2 26 27
M  V30 43 1 31 32
M  V30 44 1 38 39
M  V30 END BOND
M  V30 END CTAB
M  END
>  <Compound ID>
222

>  <Name>
GNF-7

>  <Uniprot>
Q13546

>  <Target>
RIPK1

>  <Smiles>
CC1=CC=C(NC2=NC=C3CN(C4=CC(NC(=O)C5=CC=CC(C(F)(F)F)=C5)=CC=C4C)C(=O)N(C)C3=N2)C=N1

>  <Kd (nM)>


>  <Assay (Kd)>


>  <Ki (nM)>


>  <Assay (Ki)>


>  <IC50 (nM)>


>  <Assay (IC50)>


>  <EC50 (nM)>


>  <Assay (EC50)>


>  <Article DOI>


>  <Molecular Weight>
547.541

>  <Exact Mass>
547.194357668

>  <XLogP3>
4.33

>  <Heavy Atom Count>
40

>  <Ring Count>
5

>  <Hydrogen Bond Acceptor Count>
6

>  <Hydrogen Bond Donor Count>
2

>  <Rotatable Bond Count>
5

>  <Topological Polar Surface Area>
103.35

>  <Molecular Formula>
C28H24F3N7O2

>  <InChI>
InChI=1S/C28H24F3N7O2/c1-16-7-9-21(34-25(39)18-5-4-6-20(11-18)28(29,30)31)12-23(16)38-15-19-13-33-26(36-24(19)37(3)27(38)40)35-22-10-8-17(2)32-14-22/h4-14H,15H2,1-3H3,(H,34,39)(H,33,35,36)

>  <InChI Key>
SZNYUUZOQHNEKB-UHFFFAOYSA-N

>  <BindingDB>
50323777

>  <PubChem>
11478363

>  <ChEMBL>
CHEMBL1214141

$$$$
Compound 786
Actelion Java MolfileCreator 2.0

  0  0  0  0  0  0              0 V3000
M  V30 BEGIN CTAB
M  V30 COUNTS 40 44 0 0 0
M  V30 BEGIN ATOM
M  V30 1 F 0.0 0.0 0.0 0
M  V30 2 C -1.3409 -0.6587 0.0 0
M  V30 3 F -0.6822 -1.9761 0.0 0
M  V30 4 F -2.0232 0.6822 0.0 0
M  V30 5 C -2.6819 -1.3174 0.0 0
M  V30 6 C -3.9405 -0.4822 0.0 0
M  V30 7 C -2.776 -2.7995 0.0 0
M  V30 8 C -5.2815 -1.1409 0.0 0
M  V30 9 C -4.117 -3.4582 0.0 0
M  V30 10 C -6.5401 -0.3058 0.0 0
M  V30 11 C -5.3756 -2.6231 0.0 0
M  V30 12 O -7.8811 -0.9645 0.0 0
M  V30 13 N -6.4695 1.1998 0.0 0
M  V30 14 C -7.7282 2.0349 0.0 0
M  V30 15 C -9.0691 1.3762 0.0 0
M  V30 16 C -7.6576 3.5406 0.0 0
M  V30 17 C -10.3278 2.2114 0.0 0
M  V30 18 C -8.9162 4.3757 0.0 0
M  V30 19 N -11.6687 1.5527 0.0 0
M  V30 20 C -10.2572 3.717 0.0 0
M  V30 21 C -12.9274 2.3878 0.0 0
M  V30 22 C -11.7628 0.0705 0.0 0
M  V30 23 C -11.5158 4.5522 0.0 0
M  V30 24 O -12.8568 3.8935 0.0 0
M  V30 25 N -14.2683 1.7291 0.0 0
M  V30 26 C -13.1038 -0.5881 0.0 0
M  V30 27 C -14.3624 0.247 0.0 0
M  V30 28 C -15.527 2.5643 0.0 0
M  V30 29 C -13.1979 -2.0702 0.0 0
M  V30 30 N -15.7034 -0.4117 0.0 0
M  V30 31 N -14.5389 -2.7289 0.0 0
M  V30 32 C -15.7975 -1.8938 0.0 0
M  V30 33 N -17.1385 -2.5525 0.0 0
M  V30 34 C -18.3971 -1.7173 0.0 0
M  V30 35 C -19.7381 -2.3761 0.0 0
M  V30 36 C -18.3265 -0.2117 0.0 0
M  V30 37 N -20.9967 -1.5409 0.0 0
M  V30 38 C -19.5851 0.6234 0.0 0
M  V30 39 C -20.9261 -0.0352 0.0 0
M  V30 40 C -22.1847 0.7998 0.0 0
M  V30 END ATOM
M  V30 BEGIN BOND
M  V30 1 1 1 2
M  V30 2 1 2 3
M  V30 3 1 2 4
M  V30 4 1 2 5
M  V30 5 2 5 6
M  V30 6 1 5 7
M  V30 7 1 6 8
M  V30 8 2 7 9
M  V30 9 1 8 10
M  V30 10 2 8 11
M  V30 11 2 10 12
M  V30 12 1 10 13
M  V30 13 1 13 14
M  V30 14 2 14 15
M  V30 15 1 14 16
M  V30 16 1 15 17
M  V30 17 2 16 18
M  V30 18 1 17 19
M  V30 19 2 17 20
M  V30 20 1 19 21
M  V30 21 1 19 22
M  V30 22 1 20 23
M  V30 23 2 21 24
M  V30 24 1 21 25
M  V30 25 1 22 26
M  V30 26 1 25 27
M  V30 27 1 25 28
M  V30 28 1 26 29
M  V30 29 1 27 30
M  V30 30 2 29 31
M  V30 31 2 30 32
M  V30 32 1 32 33
M  V30 33 1 33 34
M  V30 34 2 34 35
M  V30 35 1 34 36
M  V30 36 1 35 37
M  V30 37 2 36 38
M  V30 38 2 37 39
M  V30 39 1 39 40
M  V30 40 1 9 11
M  V30 41 1 18 20
M  V30 42 2 26 27
M  V30 43 1 31 32
M  V30 44 1 38 39
M  V30 END BOND
M  V30 END CTAB
M  END
>  <Compound ID>
222

>  <Name>
GNF-7

>  <Uniprot>
O43353

>  <Target>
RIPK2

>  <Smiles>
CC1=CC=C(NC2=NC=C3CN(C4=CC(NC(=O)C5=CC=CC(C(F)(F)F)=C5)=CC=C4C)C(=O)N(C)C3=N2)C=N1

>  <Kd (nM)>


>  <Assay (Kd)>


>  <Ki (nM)>


>  <Assay (Ki)>


>  <IC50 (nM)>


>  <Assay (IC50)>


>  <EC50 (nM)>


>  <Assay (EC50)>


>  <Article DOI>


>  <Molecular Weight>
547.541

>  <Exact Mass>
547.194357668

>  <XLogP3>
4.33

>  <Heavy Atom Count>
40

>  <Ring Count>
5

>  <Hydrogen Bond Acceptor Count>
6

>  <Hydrogen Bond Donor Count>
2

>  <Rotatable Bond Count>
5

>  <Topological Polar Surface Area>
103.35

>  <Molecular Formula>
C28H24F3N7O2

>  <InChI>
InChI=1S/C28H24F3N7O2/c1-16-7-9-21(34-25(39)18-5-4-6-20(11-18)28(29,30)31)12-23(16)38-15-19-13-33-26(36-24(19)37(3)27(38)40)35-22-10-8-17(2)32-14-22/h4-14H,15H2,1-3H3,(H,34,39)(H,33,35,36)

>  <InChI Key>
SZNYUUZOQHNEKB-UHFFFAOYSA-N

>  <BindingDB>
50323777

>  <PubChem>
11478363

>  <ChEMBL>
CHEMBL1214141

$$$$
Compound 787
Actelion Java MolfileCreator 2.0

  0  0  0  0  0  0              0 V3000
M  V30 BEGIN CTAB
M  V30 COUNTS 40 44 0 0 0
M  V30 BEGIN ATOM
M  V30 1 F 0.0 0.0 0.0 0
M  V30 2 C -1.3409 -0.6587 0.0 0
M  V30 3 F -0.6822 -1.9761 0.0 0
M  V30 4 F -2.0232 0.6822 0.0 0
M  V30 5 C -2.6819 -1.3174 0.0 0
M  V30 6 C -3.9405 -0.4822 0.0 0
M  V30 7 C -2.776 -2.7995 0.0 0
M  V30 8 C -5.2815 -1.1409 0.0 0
M  V30 9 C -4.117 -3.4582 0.0 0
M  V30 10 C -6.5401 -0.3058 0.0 0
M  V30 11 C -5.3756 -2.6231 0.0 0
M  V30 12 O -7.8811 -0.9645 0.0 0
M  V30 13 N -6.4695 1.1998 0.0 0
M  V30 14 C -7.7282 2.0349 0.0 0
M  V30 15 C -9.0691 1.3762 0.0 0
M  V30 16 C -7.6576 3.5406 0.0 0
M  V30 17 C -10.3278 2.2114 0.0 0
M  V30 18 C -8.9162 4.3757 0.0 0
M  V30 19 N -11.6687 1.5527 0.0 0
M  V30 20 C -10.2572 3.717 0.0 0
M  V30 21 C -12.9274 2.3878 0.0 0
M  V30 22 C -11.7628 0.0705 0.0 0
M  V30 23 C -11.5158 4.5522 0.0 0
M  V30 24 O -12.8568 3.8935 0.0 0
M  V30 25 N -14.2683 1.7291 0.0 0
M  V30 26 C -13.1038 -0.5881 0.0 0
M  V30 27 C -14.3624 0.247 0.0 0
M  V30 28 C -15.527 2.5643 0.0 0
M  V30 29 C -13.1979 -2.0702 0.0 0
M  V30 30 N -15.7034 -0.4117 0.0 0
M  V30 31 N -14.5389 -2.7289 0.0 0
M  V30 32 C -15.7975 -1.8938 0.0 0
M  V30 33 N -17.1385 -2.5525 0.0 0
M  V30 34 C -18.3971 -1.7173 0.0 0
M  V30 35 C -19.7381 -2.3761 0.0 0
M  V30 36 C -18.3265 -0.2117 0.0 0
M  V30 37 N -20.9967 -1.5409 0.0 0
M  V30 38 C -19.5851 0.6234 0.0 0
M  V30 39 C -20.9261 -0.0352 0.0 0
M  V30 40 C -22.1847 0.7998 0.0 0
M  V30 END ATOM
M  V30 BEGIN BOND
M  V30 1 1 1 2
M  V30 2 1 2 3
M  V30 3 1 2 4
M  V30 4 1 2 5
M  V30 5 2 5 6
M  V30 6 1 5 7
M  V30 7 1 6 8
M  V30 8 2 7 9
M  V30 9 1 8 10
M  V30 10 2 8 11
M  V30 11 2 10 12
M  V30 12 1 10 13
M  V30 13 1 13 14
M  V30 14 2 14 15
M  V30 15 1 14 16
M  V30 16 1 15 17
M  V30 17 2 16 18
M  V30 18 1 17 19
M  V30 19 2 17 20
M  V30 20 1 19 21
M  V30 21 1 19 22
M  V30 22 1 20 23
M  V30 23 2 21 24
M  V30 24 1 21 25
M  V30 25 1 22 26
M  V30 26 1 25 27
M  V30 27 1 25 28
M  V30 28 1 26 29
M  V30 29 1 27 30
M  V30 30 2 29 31
M  V30 31 2 30 32
M  V30 32 1 32 33
M  V30 33 1 33 34
M  V30 34 2 34 35
M  V30 35 1 34 36
M  V30 36 1 35 37
M  V30 37 2 36 38
M  V30 38 2 37 39
M  V30 39 1 39 40
M  V30 40 1 9 11
M  V30 41 1 18 20
M  V30 42 2 26 27
M  V30 43 1 31 32
M  V30 44 1 38 39
M  V30 END BOND
M  V30 END CTAB
M  END
>  <Compound ID>
222

>  <Name>
GNF-7

>  <Uniprot>
Q15418

>  <Target>
RPS6KA1

>  <Smiles>
CC1=CC=C(NC2=NC=C3CN(C4=CC(NC(=O)C5=CC=CC(C(F)(F)F)=C5)=CC=C4C)C(=O)N(C)C3=N2)C=N1

>  <Kd (nM)>


>  <Assay (Kd)>


>  <Ki (nM)>


>  <Assay (Ki)>


>  <IC50 (nM)>


>  <Assay (IC50)>


>  <EC50 (nM)>


>  <Assay (EC50)>


>  <Article DOI>


>  <Molecular Weight>
547.541

>  <Exact Mass>
547.194357668

>  <XLogP3>
4.33

>  <Heavy Atom Count>
40

>  <Ring Count>
5

>  <Hydrogen Bond Acceptor Count>
6

>  <Hydrogen Bond Donor Count>
2

>  <Rotatable Bond Count>
5

>  <Topological Polar Surface Area>
103.35

>  <Molecular Formula>
C28H24F3N7O2

>  <InChI>
InChI=1S/C28H24F3N7O2/c1-16-7-9-21(34-25(39)18-5-4-6-20(11-18)28(29,30)31)12-23(16)38-15-19-13-33-26(36-24(19)37(3)27(38)40)35-22-10-8-17(2)32-14-22/h4-14H,15H2,1-3H3,(H,34,39)(H,33,35,36)

>  <InChI Key>
SZNYUUZOQHNEKB-UHFFFAOYSA-N

>  <BindingDB>
50323777

>  <PubChem>
11478363

>  <ChEMBL>
CHEMBL1214141

$$$$
Compound 788
Actelion Java MolfileCreator 2.0

  0  0  0  0  0  0              0 V3000
M  V30 BEGIN CTAB
M  V30 COUNTS 40 44 0 0 0
M  V30 BEGIN ATOM
M  V30 1 F 0.0 0.0 0.0 0
M  V30 2 C -1.3409 -0.6587 0.0 0
M  V30 3 F -0.6822 -1.9761 0.0 0
M  V30 4 F -2.0232 0.6822 0.0 0
M  V30 5 C -2.6819 -1.3174 0.0 0
M  V30 6 C -3.9405 -0.4822 0.0 0
M  V30 7 C -2.776 -2.7995 0.0 0
M  V30 8 C -5.2815 -1.1409 0.0 0
M  V30 9 C -4.117 -3.4582 0.0 0
M  V30 10 C -6.5401 -0.3058 0.0 0
M  V30 11 C -5.3756 -2.6231 0.0 0
M  V30 12 O -7.8811 -0.9645 0.0 0
M  V30 13 N -6.4695 1.1998 0.0 0
M  V30 14 C -7.7282 2.0349 0.0 0
M  V30 15 C -9.0691 1.3762 0.0 0
M  V30 16 C -7.6576 3.5406 0.0 0
M  V30 17 C -10.3278 2.2114 0.0 0
M  V30 18 C -8.9162 4.3757 0.0 0
M  V30 19 N -11.6687 1.5527 0.0 0
M  V30 20 C -10.2572 3.717 0.0 0
M  V30 21 C -12.9274 2.3878 0.0 0
M  V30 22 C -11.7628 0.0705 0.0 0
M  V30 23 C -11.5158 4.5522 0.0 0
M  V30 24 O -12.8568 3.8935 0.0 0
M  V30 25 N -14.2683 1.7291 0.0 0
M  V30 26 C -13.1038 -0.5881 0.0 0
M  V30 27 C -14.3624 0.247 0.0 0
M  V30 28 C -15.527 2.5643 0.0 0
M  V30 29 C -13.1979 -2.0702 0.0 0
M  V30 30 N -15.7034 -0.4117 0.0 0
M  V30 31 N -14.5389 -2.7289 0.0 0
M  V30 32 C -15.7975 -1.8938 0.0 0
M  V30 33 N -17.1385 -2.5525 0.0 0
M  V30 34 C -18.3971 -1.7173 0.0 0
M  V30 35 C -19.7381 -2.3761 0.0 0
M  V30 36 C -18.3265 -0.2117 0.0 0
M  V30 37 N -20.9967 -1.5409 0.0 0
M  V30 38 C -19.5851 0.6234 0.0 0
M  V30 39 C -20.9261 -0.0352 0.0 0
M  V30 40 C -22.1847 0.7998 0.0 0
M  V30 END ATOM
M  V30 BEGIN BOND
M  V30 1 1 1 2
M  V30 2 1 2 3
M  V30 3 1 2 4
M  V30 4 1 2 5
M  V30 5 2 5 6
M  V30 6 1 5 7
M  V30 7 1 6 8
M  V30 8 2 7 9
M  V30 9 1 8 10
M  V30 10 2 8 11
M  V30 11 2 10 12
M  V30 12 1 10 13
M  V30 13 1 13 14
M  V30 14 2 14 15
M  V30 15 1 14 16
M  V30 16 1 15 17
M  V30 17 2 16 18
M  V30 18 1 17 19
M  V30 19 2 17 20
M  V30 20 1 19 21
M  V30 21 1 19 22
M  V30 22 1 20 23
M  V30 23 2 21 24
M  V30 24 1 21 25
M  V30 25 1 22 26
M  V30 26 1 25 27
M  V30 27 1 25 28
M  V30 28 1 26 29
M  V30 29 1 27 30
M  V30 30 2 29 31
M  V30 31 2 30 32
M  V30 32 1 32 33
M  V30 33 1 33 34
M  V30 34 2 34 35
M  V30 35 1 34 36
M  V30 36 1 35 37
M  V30 37 2 36 38
M  V30 38 2 37 39
M  V30 39 1 39 40
M  V30 40 1 9 11
M  V30 41 1 18 20
M  V30 42 2 26 27
M  V30 43 1 31 32
M  V30 44 1 38 39
M  V30 END BOND
M  V30 END CTAB
M  END
>  <Compound ID>
222

>  <Name>
GNF-7

>  <Uniprot>
P51812

>  <Target>
RPS6KA3

>  <Smiles>
CC1=CC=C(NC2=NC=C3CN(C4=CC(NC(=O)C5=CC=CC(C(F)(F)F)=C5)=CC=C4C)C(=O)N(C)C3=N2)C=N1

>  <Kd (nM)>


>  <Assay (Kd)>


>  <Ki (nM)>


>  <Assay (Ki)>


>  <IC50 (nM)>


>  <Assay (IC50)>


>  <EC50 (nM)>


>  <Assay (EC50)>


>  <Article DOI>


>  <Molecular Weight>
547.541

>  <Exact Mass>
547.194357668

>  <XLogP3>
4.33

>  <Heavy Atom Count>
40

>  <Ring Count>
5

>  <Hydrogen Bond Acceptor Count>
6

>  <Hydrogen Bond Donor Count>
2

>  <Rotatable Bond Count>
5

>  <Topological Polar Surface Area>
103.35

>  <Molecular Formula>
C28H24F3N7O2

>  <InChI>
InChI=1S/C28H24F3N7O2/c1-16-7-9-21(34-25(39)18-5-4-6-20(11-18)28(29,30)31)12-23(16)38-15-19-13-33-26(36-24(19)37(3)27(38)40)35-22-10-8-17(2)32-14-22/h4-14H,15H2,1-3H3,(H,34,39)(H,33,35,36)

>  <InChI Key>
SZNYUUZOQHNEKB-UHFFFAOYSA-N

>  <BindingDB>
50323777

>  <PubChem>
11478363

>  <ChEMBL>
CHEMBL1214141

$$$$
Compound 789
Actelion Java MolfileCreator 2.0

  0  0  0  0  0  0              0 V3000
M  V30 BEGIN CTAB
M  V30 COUNTS 40 44 0 0 0
M  V30 BEGIN ATOM
M  V30 1 F 0.0 0.0 0.0 0
M  V30 2 C -1.3409 -0.6587 0.0 0
M  V30 3 F -0.6822 -1.9761 0.0 0
M  V30 4 F -2.0232 0.6822 0.0 0
M  V30 5 C -2.6819 -1.3174 0.0 0
M  V30 6 C -3.9405 -0.4822 0.0 0
M  V30 7 C -2.776 -2.7995 0.0 0
M  V30 8 C -5.2815 -1.1409 0.0 0
M  V30 9 C -4.117 -3.4582 0.0 0
M  V30 10 C -6.5401 -0.3058 0.0 0
M  V30 11 C -5.3756 -2.6231 0.0 0
M  V30 12 O -7.8811 -0.9645 0.0 0
M  V30 13 N -6.4695 1.1998 0.0 0
M  V30 14 C -7.7282 2.0349 0.0 0
M  V30 15 C -9.0691 1.3762 0.0 0
M  V30 16 C -7.6576 3.5406 0.0 0
M  V30 17 C -10.3278 2.2114 0.0 0
M  V30 18 C -8.9162 4.3757 0.0 0
M  V30 19 N -11.6687 1.5527 0.0 0
M  V30 20 C -10.2572 3.717 0.0 0
M  V30 21 C -12.9274 2.3878 0.0 0
M  V30 22 C -11.7628 0.0705 0.0 0
M  V30 23 C -11.5158 4.5522 0.0 0
M  V30 24 O -12.8568 3.8935 0.0 0
M  V30 25 N -14.2683 1.7291 0.0 0
M  V30 26 C -13.1038 -0.5881 0.0 0
M  V30 27 C -14.3624 0.247 0.0 0
M  V30 28 C -15.527 2.5643 0.0 0
M  V30 29 C -13.1979 -2.0702 0.0 0
M  V30 30 N -15.7034 -0.4117 0.0 0
M  V30 31 N -14.5389 -2.7289 0.0 0
M  V30 32 C -15.7975 -1.8938 0.0 0
M  V30 33 N -17.1385 -2.5525 0.0 0
M  V30 34 C -18.3971 -1.7173 0.0 0
M  V30 35 C -19.7381 -2.3761 0.0 0
M  V30 36 C -18.3265 -0.2117 0.0 0
M  V30 37 N -20.9967 -1.5409 0.0 0
M  V30 38 C -19.5851 0.6234 0.0 0
M  V30 39 C -20.9261 -0.0352 0.0 0
M  V30 40 C -22.1847 0.7998 0.0 0
M  V30 END ATOM
M  V30 BEGIN BOND
M  V30 1 1 1 2
M  V30 2 1 2 3
M  V30 3 1 2 4
M  V30 4 1 2 5
M  V30 5 2 5 6
M  V30 6 1 5 7
M  V30 7 1 6 8
M  V30 8 2 7 9
M  V30 9 1 8 10
M  V30 10 2 8 11
M  V30 11 2 10 12
M  V30 12 1 10 13
M  V30 13 1 13 14
M  V30 14 2 14 15
M  V30 15 1 14 16
M  V30 16 1 15 17
M  V30 17 2 16 18
M  V30 18 1 17 19
M  V30 19 2 17 20
M  V30 20 1 19 21
M  V30 21 1 19 22
M  V30 22 1 20 23
M  V30 23 2 21 24
M  V30 24 1 21 25
M  V30 25 1 22 26
M  V30 26 1 25 27
M  V30 27 1 25 28
M  V30 28 1 26 29
M  V30 29 1 27 30
M  V30 30 2 29 31
M  V30 31 2 30 32
M  V30 32 1 32 33
M  V30 33 1 33 34
M  V30 34 2 34 35
M  V30 35 1 34 36
M  V30 36 1 35 37
M  V30 37 2 36 38
M  V30 38 2 37 39
M  V30 39 1 39 40
M  V30 40 1 9 11
M  V30 41 1 18 20
M  V30 42 2 26 27
M  V30 43 1 31 32
M  V30 44 1 38 39
M  V30 END BOND
M  V30 END CTAB
M  END
>  <Compound ID>
222

>  <Name>
GNF-7

>  <Uniprot>
Q9H0K1

>  <Target>
SIK2

>  <Smiles>
CC1=CC=C(NC2=NC=C3CN(C4=CC(NC(=O)C5=CC=CC(C(F)(F)F)=C5)=CC=C4C)C(=O)N(C)C3=N2)C=N1

>  <Kd (nM)>


>  <Assay (Kd)>


>  <Ki (nM)>


>  <Assay (Ki)>


>  <IC50 (nM)>


>  <Assay (IC50)>


>  <EC50 (nM)>


>  <Assay (EC50)>


>  <Article DOI>


>  <Molecular Weight>
547.541

>  <Exact Mass>
547.194357668

>  <XLogP3>
4.33

>  <Heavy Atom Count>
40

>  <Ring Count>
5

>  <Hydrogen Bond Acceptor Count>
6

>  <Hydrogen Bond Donor Count>
2

>  <Rotatable Bond Count>
5

>  <Topological Polar Surface Area>
103.35

>  <Molecular Formula>
C28H24F3N7O2

>  <InChI>
InChI=1S/C28H24F3N7O2/c1-16-7-9-21(34-25(39)18-5-4-6-20(11-18)28(29,30)31)12-23(16)38-15-19-13-33-26(36-24(19)37(3)27(38)40)35-22-10-8-17(2)32-14-22/h4-14H,15H2,1-3H3,(H,34,39)(H,33,35,36)

>  <InChI Key>
SZNYUUZOQHNEKB-UHFFFAOYSA-N

>  <BindingDB>
50323777

>  <PubChem>
11478363

>  <ChEMBL>
CHEMBL1214141

$$$$
Compound 790
Actelion Java MolfileCreator 2.0

  0  0  0  0  0  0              0 V3000
M  V30 BEGIN CTAB
M  V30 COUNTS 40 44 0 0 0
M  V30 BEGIN ATOM
M  V30 1 F 0.0 0.0 0.0 0
M  V30 2 C -1.3409 -0.6587 0.0 0
M  V30 3 F -0.6822 -1.9761 0.0 0
M  V30 4 F -2.0232 0.6822 0.0 0
M  V30 5 C -2.6819 -1.3174 0.0 0
M  V30 6 C -3.9405 -0.4822 0.0 0
M  V30 7 C -2.776 -2.7995 0.0 0
M  V30 8 C -5.2815 -1.1409 0.0 0
M  V30 9 C -4.117 -3.4582 0.0 0
M  V30 10 C -6.5401 -0.3058 0.0 0
M  V30 11 C -5.3756 -2.6231 0.0 0
M  V30 12 O -7.8811 -0.9645 0.0 0
M  V30 13 N -6.4695 1.1998 0.0 0
M  V30 14 C -7.7282 2.0349 0.0 0
M  V30 15 C -9.0691 1.3762 0.0 0
M  V30 16 C -7.6576 3.5406 0.0 0
M  V30 17 C -10.3278 2.2114 0.0 0
M  V30 18 C -8.9162 4.3757 0.0 0
M  V30 19 N -11.6687 1.5527 0.0 0
M  V30 20 C -10.2572 3.717 0.0 0
M  V30 21 C -12.9274 2.3878 0.0 0
M  V30 22 C -11.7628 0.0705 0.0 0
M  V30 23 C -11.5158 4.5522 0.0 0
M  V30 24 O -12.8568 3.8935 0.0 0
M  V30 25 N -14.2683 1.7291 0.0 0
M  V30 26 C -13.1038 -0.5881 0.0 0
M  V30 27 C -14.3624 0.247 0.0 0
M  V30 28 C -15.527 2.5643 0.0 0
M  V30 29 C -13.1979 -2.0702 0.0 0
M  V30 30 N -15.7034 -0.4117 0.0 0
M  V30 31 N -14.5389 -2.7289 0.0 0
M  V30 32 C -15.7975 -1.8938 0.0 0
M  V30 33 N -17.1385 -2.5525 0.0 0
M  V30 34 C -18.3971 -1.7173 0.0 0
M  V30 35 C -19.7381 -2.3761 0.0 0
M  V30 36 C -18.3265 -0.2117 0.0 0
M  V30 37 N -20.9967 -1.5409 0.0 0
M  V30 38 C -19.5851 0.6234 0.0 0
M  V30 39 C -20.9261 -0.0352 0.0 0
M  V30 40 C -22.1847 0.7998 0.0 0
M  V30 END ATOM
M  V30 BEGIN BOND
M  V30 1 1 1 2
M  V30 2 1 2 3
M  V30 3 1 2 4
M  V30 4 1 2 5
M  V30 5 2 5 6
M  V30 6 1 5 7
M  V30 7 1 6 8
M  V30 8 2 7 9
M  V30 9 1 8 10
M  V30 10 2 8 11
M  V30 11 2 10 12
M  V30 12 1 10 13
M  V30 13 1 13 14
M  V30 14 2 14 15
M  V30 15 1 14 16
M  V30 16 1 15 17
M  V30 17 2 16 18
M  V30 18 1 17 19
M  V30 19 2 17 20
M  V30 20 1 19 21
M  V30 21 1 19 22
M  V30 22 1 20 23
M  V30 23 2 21 24
M  V30 24 1 21 25
M  V30 25 1 22 26
M  V30 26 1 25 27
M  V30 27 1 25 28
M  V30 28 1 26 29
M  V30 29 1 27 30
M  V30 30 2 29 31
M  V30 31 2 30 32
M  V30 32 1 32 33
M  V30 33 1 33 34
M  V30 34 2 34 35
M  V30 35 1 34 36
M  V30 36 1 35 37
M  V30 37 2 36 38
M  V30 38 2 37 39
M  V30 39 1 39 40
M  V30 40 1 9 11
M  V30 41 1 18 20
M  V30 42 2 26 27
M  V30 43 1 31 32
M  V30 44 1 38 39
M  V30 END BOND
M  V30 END CTAB
M  END
>  <Compound ID>
222

>  <Name>
GNF-7

>  <Uniprot>
Q9Y2K2

>  <Target>
SIK3

>  <Smiles>
CC1=CC=C(NC2=NC=C3CN(C4=CC(NC(=O)C5=CC=CC(C(F)(F)F)=C5)=CC=C4C)C(=O)N(C)C3=N2)C=N1

>  <Kd (nM)>


>  <Assay (Kd)>


>  <Ki (nM)>


>  <Assay (Ki)>


>  <IC50 (nM)>


>  <Assay (IC50)>


>  <EC50 (nM)>


>  <Assay (EC50)>


>  <Article DOI>


>  <Molecular Weight>
547.541

>  <Exact Mass>
547.194357668

>  <XLogP3>
4.33

>  <Heavy Atom Count>
40

>  <Ring Count>
5

>  <Hydrogen Bond Acceptor Count>
6

>  <Hydrogen Bond Donor Count>
2

>  <Rotatable Bond Count>
5

>  <Topological Polar Surface Area>
103.35

>  <Molecular Formula>
C28H24F3N7O2

>  <InChI>
InChI=1S/C28H24F3N7O2/c1-16-7-9-21(34-25(39)18-5-4-6-20(11-18)28(29,30)31)12-23(16)38-15-19-13-33-26(36-24(19)37(3)27(38)40)35-22-10-8-17(2)32-14-22/h4-14H,15H2,1-3H3,(H,34,39)(H,33,35,36)

>  <InChI Key>
SZNYUUZOQHNEKB-UHFFFAOYSA-N

>  <BindingDB>
50323777

>  <PubChem>
11478363

>  <ChEMBL>
CHEMBL1214141

$$$$
Compound 791
Actelion Java MolfileCreator 2.0

  0  0  0  0  0  0              0 V3000
M  V30 BEGIN CTAB
M  V30 COUNTS 40 44 0 0 0
M  V30 BEGIN ATOM
M  V30 1 F 0.0 0.0 0.0 0
M  V30 2 C -1.3409 -0.6587 0.0 0
M  V30 3 F -0.6822 -1.9761 0.0 0
M  V30 4 F -2.0232 0.6822 0.0 0
M  V30 5 C -2.6819 -1.3174 0.0 0
M  V30 6 C -3.9405 -0.4822 0.0 0
M  V30 7 C -2.776 -2.7995 0.0 0
M  V30 8 C -5.2815 -1.1409 0.0 0
M  V30 9 C -4.117 -3.4582 0.0 0
M  V30 10 C -6.5401 -0.3058 0.0 0
M  V30 11 C -5.3756 -2.6231 0.0 0
M  V30 12 O -7.8811 -0.9645 0.0 0
M  V30 13 N -6.4695 1.1998 0.0 0
M  V30 14 C -7.7282 2.0349 0.0 0
M  V30 15 C -9.0691 1.3762 0.0 0
M  V30 16 C -7.6576 3.5406 0.0 0
M  V30 17 C -10.3278 2.2114 0.0 0
M  V30 18 C -8.9162 4.3757 0.0 0
M  V30 19 N -11.6687 1.5527 0.0 0
M  V30 20 C -10.2572 3.717 0.0 0
M  V30 21 C -12.9274 2.3878 0.0 0
M  V30 22 C -11.7628 0.0705 0.0 0
M  V30 23 C -11.5158 4.5522 0.0 0
M  V30 24 O -12.8568 3.8935 0.0 0
M  V30 25 N -14.2683 1.7291 0.0 0
M  V30 26 C -13.1038 -0.5881 0.0 0
M  V30 27 C -14.3624 0.247 0.0 0
M  V30 28 C -15.527 2.5643 0.0 0
M  V30 29 C -13.1979 -2.0702 0.0 0
M  V30 30 N -15.7034 -0.4117 0.0 0
M  V30 31 N -14.5389 -2.7289 0.0 0
M  V30 32 C -15.7975 -1.8938 0.0 0
M  V30 33 N -17.1385 -2.5525 0.0 0
M  V30 34 C -18.3971 -1.7173 0.0 0
M  V30 35 C -19.7381 -2.3761 0.0 0
M  V30 36 C -18.3265 -0.2117 0.0 0
M  V30 37 N -20.9967 -1.5409 0.0 0
M  V30 38 C -19.5851 0.6234 0.0 0
M  V30 39 C -20.9261 -0.0352 0.0 0
M  V30 40 C -22.1847 0.7998 0.0 0
M  V30 END ATOM
M  V30 BEGIN BOND
M  V30 1 1 1 2
M  V30 2 1 2 3
M  V30 3 1 2 4
M  V30 4 1 2 5
M  V30 5 2 5 6
M  V30 6 1 5 7
M  V30 7 1 6 8
M  V30 8 2 7 9
M  V30 9 1 8 10
M  V30 10 2 8 11
M  V30 11 2 10 12
M  V30 12 1 10 13
M  V30 13 1 13 14
M  V30 14 2 14 15
M  V30 15 1 14 16
M  V30 16 1 15 17
M  V30 17 2 16 18
M  V30 18 1 17 19
M  V30 19 2 17 20
M  V30 20 1 19 21
M  V30 21 1 19 22
M  V30 22 1 20 23
M  V30 23 2 21 24
M  V30 24 1 21 25
M  V30 25 1 22 26
M  V30 26 1 25 27
M  V30 27 1 25 28
M  V30 28 1 26 29
M  V30 29 1 27 30
M  V30 30 2 29 31
M  V30 31 2 30 32
M  V30 32 1 32 33
M  V30 33 1 33 34
M  V30 34 2 34 35
M  V30 35 1 34 36
M  V30 36 1 35 37
M  V30 37 2 36 38
M  V30 38 2 37 39
M  V30 39 1 39 40
M  V30 40 1 9 11
M  V30 41 1 18 20
M  V30 42 2 26 27
M  V30 43 1 31 32
M  V30 44 1 38 39
M  V30 END BOND
M  V30 END CTAB
M  END
>  <Compound ID>
222

>  <Name>
GNF-7

>  <Uniprot>
P12931

>  <Target>
Src

>  <Smiles>
CC1=CC=C(NC2=NC=C3CN(C4=CC(NC(=O)C5=CC=CC(C(F)(F)F)=C5)=CC=C4C)C(=O)N(C)C3=N2)C=N1

>  <Kd (nM)>


>  <Assay (Kd)>


>  <Ki (nM)>


>  <Assay (Ki)>


>  <IC50 (nM)>


>  <Assay (IC50)>


>  <EC50 (nM)>


>  <Assay (EC50)>


>  <Article DOI>


>  <Molecular Weight>
547.541

>  <Exact Mass>
547.194357668

>  <XLogP3>
4.33

>  <Heavy Atom Count>
40

>  <Ring Count>
5

>  <Hydrogen Bond Acceptor Count>
6

>  <Hydrogen Bond Donor Count>
2

>  <Rotatable Bond Count>
5

>  <Topological Polar Surface Area>
103.35

>  <Molecular Formula>
C28H24F3N7O2

>  <InChI>
InChI=1S/C28H24F3N7O2/c1-16-7-9-21(34-25(39)18-5-4-6-20(11-18)28(29,30)31)12-23(16)38-15-19-13-33-26(36-24(19)37(3)27(38)40)35-22-10-8-17(2)32-14-22/h4-14H,15H2,1-3H3,(H,34,39)(H,33,35,36)

>  <InChI Key>
SZNYUUZOQHNEKB-UHFFFAOYSA-N

>  <BindingDB>
50323777

>  <PubChem>
11478363

>  <ChEMBL>
CHEMBL1214141

$$$$
Compound 792
Actelion Java MolfileCreator 2.0

  0  0  0  0  0  0              0 V3000
M  V30 BEGIN CTAB
M  V30 COUNTS 40 44 0 0 0
M  V30 BEGIN ATOM
M  V30 1 F 0.0 0.0 0.0 0
M  V30 2 C -1.3409 -0.6587 0.0 0
M  V30 3 F -0.6822 -1.9761 0.0 0
M  V30 4 F -2.0232 0.6822 0.0 0
M  V30 5 C -2.6819 -1.3174 0.0 0
M  V30 6 C -3.9405 -0.4822 0.0 0
M  V30 7 C -2.776 -2.7995 0.0 0
M  V30 8 C -5.2815 -1.1409 0.0 0
M  V30 9 C -4.117 -3.4582 0.0 0
M  V30 10 C -6.5401 -0.3058 0.0 0
M  V30 11 C -5.3756 -2.6231 0.0 0
M  V30 12 O -7.8811 -0.9645 0.0 0
M  V30 13 N -6.4695 1.1998 0.0 0
M  V30 14 C -7.7282 2.0349 0.0 0
M  V30 15 C -9.0691 1.3762 0.0 0
M  V30 16 C -7.6576 3.5406 0.0 0
M  V30 17 C -10.3278 2.2114 0.0 0
M  V30 18 C -8.9162 4.3757 0.0 0
M  V30 19 N -11.6687 1.5527 0.0 0
M  V30 20 C -10.2572 3.717 0.0 0
M  V30 21 C -12.9274 2.3878 0.0 0
M  V30 22 C -11.7628 0.0705 0.0 0
M  V30 23 C -11.5158 4.5522 0.0 0
M  V30 24 O -12.8568 3.8935 0.0 0
M  V30 25 N -14.2683 1.7291 0.0 0
M  V30 26 C -13.1038 -0.5881 0.0 0
M  V30 27 C -14.3624 0.247 0.0 0
M  V30 28 C -15.527 2.5643 0.0 0
M  V30 29 C -13.1979 -2.0702 0.0 0
M  V30 30 N -15.7034 -0.4117 0.0 0
M  V30 31 N -14.5389 -2.7289 0.0 0
M  V30 32 C -15.7975 -1.8938 0.0 0
M  V30 33 N -17.1385 -2.5525 0.0 0
M  V30 34 C -18.3971 -1.7173 0.0 0
M  V30 35 C -19.7381 -2.3761 0.0 0
M  V30 36 C -18.3265 -0.2117 0.0 0
M  V30 37 N -20.9967 -1.5409 0.0 0
M  V30 38 C -19.5851 0.6234 0.0 0
M  V30 39 C -20.9261 -0.0352 0.0 0
M  V30 40 C -22.1847 0.7998 0.0 0
M  V30 END ATOM
M  V30 BEGIN BOND
M  V30 1 1 1 2
M  V30 2 1 2 3
M  V30 3 1 2 4
M  V30 4 1 2 5
M  V30 5 2 5 6
M  V30 6 1 5 7
M  V30 7 1 6 8
M  V30 8 2 7 9
M  V30 9 1 8 10
M  V30 10 2 8 11
M  V30 11 2 10 12
M  V30 12 1 10 13
M  V30 13 1 13 14
M  V30 14 2 14 15
M  V30 15 1 14 16
M  V30 16 1 15 17
M  V30 17 2 16 18
M  V30 18 1 17 19
M  V30 19 2 17 20
M  V30 20 1 19 21
M  V30 21 1 19 22
M  V30 22 1 20 23
M  V30 23 2 21 24
M  V30 24 1 21 25
M  V30 25 1 22 26
M  V30 26 1 25 27
M  V30 27 1 25 28
M  V30 28 1 26 29
M  V30 29 1 27 30
M  V30 30 2 29 31
M  V30 31 2 30 32
M  V30 32 1 32 33
M  V30 33 1 33 34
M  V30 34 2 34 35
M  V30 35 1 34 36
M  V30 36 1 35 37
M  V30 37 2 36 38
M  V30 38 2 37 39
M  V30 39 1 39 40
M  V30 40 1 9 11
M  V30 41 1 18 20
M  V30 42 2 26 27
M  V30 43 1 31 32
M  V30 44 1 38 39
M  V30 END BOND
M  V30 END CTAB
M  END
>  <Compound ID>
222

>  <Name>
GNF-7

>  <Uniprot>
Q9UEE5

>  <Target>
STK17A

>  <Smiles>
CC1=CC=C(NC2=NC=C3CN(C4=CC(NC(=O)C5=CC=CC(C(F)(F)F)=C5)=CC=C4C)C(=O)N(C)C3=N2)C=N1

>  <Kd (nM)>


>  <Assay (Kd)>


>  <Ki (nM)>


>  <Assay (Ki)>


>  <IC50 (nM)>


>  <Assay (IC50)>


>  <EC50 (nM)>


>  <Assay (EC50)>


>  <Article DOI>


>  <Molecular Weight>
547.541

>  <Exact Mass>
547.194357668

>  <XLogP3>
4.33

>  <Heavy Atom Count>
40

>  <Ring Count>
5

>  <Hydrogen Bond Acceptor Count>
6

>  <Hydrogen Bond Donor Count>
2

>  <Rotatable Bond Count>
5

>  <Topological Polar Surface Area>
103.35

>  <Molecular Formula>
C28H24F3N7O2

>  <InChI>
InChI=1S/C28H24F3N7O2/c1-16-7-9-21(34-25(39)18-5-4-6-20(11-18)28(29,30)31)12-23(16)38-15-19-13-33-26(36-24(19)37(3)27(38)40)35-22-10-8-17(2)32-14-22/h4-14H,15H2,1-3H3,(H,34,39)(H,33,35,36)

>  <InChI Key>
SZNYUUZOQHNEKB-UHFFFAOYSA-N

>  <BindingDB>
50323777

>  <PubChem>
11478363

>  <ChEMBL>
CHEMBL1214141

$$$$
Compound 793
Actelion Java MolfileCreator 2.0

  0  0  0  0  0  0              0 V3000
M  V30 BEGIN CTAB
M  V30 COUNTS 40 44 0 0 0
M  V30 BEGIN ATOM
M  V30 1 F 0.0 0.0 0.0 0
M  V30 2 C -1.3409 -0.6587 0.0 0
M  V30 3 F -0.6822 -1.9761 0.0 0
M  V30 4 F -2.0232 0.6822 0.0 0
M  V30 5 C -2.6819 -1.3174 0.0 0
M  V30 6 C -3.9405 -0.4822 0.0 0
M  V30 7 C -2.776 -2.7995 0.0 0
M  V30 8 C -5.2815 -1.1409 0.0 0
M  V30 9 C -4.117 -3.4582 0.0 0
M  V30 10 C -6.5401 -0.3058 0.0 0
M  V30 11 C -5.3756 -2.6231 0.0 0
M  V30 12 O -7.8811 -0.9645 0.0 0
M  V30 13 N -6.4695 1.1998 0.0 0
M  V30 14 C -7.7282 2.0349 0.0 0
M  V30 15 C -9.0691 1.3762 0.0 0
M  V30 16 C -7.6576 3.5406 0.0 0
M  V30 17 C -10.3278 2.2114 0.0 0
M  V30 18 C -8.9162 4.3757 0.0 0
M  V30 19 N -11.6687 1.5527 0.0 0
M  V30 20 C -10.2572 3.717 0.0 0
M  V30 21 C -12.9274 2.3878 0.0 0
M  V30 22 C -11.7628 0.0705 0.0 0
M  V30 23 C -11.5158 4.5522 0.0 0
M  V30 24 O -12.8568 3.8935 0.0 0
M  V30 25 N -14.2683 1.7291 0.0 0
M  V30 26 C -13.1038 -0.5881 0.0 0
M  V30 27 C -14.3624 0.247 0.0 0
M  V30 28 C -15.527 2.5643 0.0 0
M  V30 29 C -13.1979 -2.0702 0.0 0
M  V30 30 N -15.7034 -0.4117 0.0 0
M  V30 31 N -14.5389 -2.7289 0.0 0
M  V30 32 C -15.7975 -1.8938 0.0 0
M  V30 33 N -17.1385 -2.5525 0.0 0
M  V30 34 C -18.3971 -1.7173 0.0 0
M  V30 35 C -19.7381 -2.3761 0.0 0
M  V30 36 C -18.3265 -0.2117 0.0 0
M  V30 37 N -20.9967 -1.5409 0.0 0
M  V30 38 C -19.5851 0.6234 0.0 0
M  V30 39 C -20.9261 -0.0352 0.0 0
M  V30 40 C -22.1847 0.7998 0.0 0
M  V30 END ATOM
M  V30 BEGIN BOND
M  V30 1 1 1 2
M  V30 2 1 2 3
M  V30 3 1 2 4
M  V30 4 1 2 5
M  V30 5 2 5 6
M  V30 6 1 5 7
M  V30 7 1 6 8
M  V30 8 2 7 9
M  V30 9 1 8 10
M  V30 10 2 8 11
M  V30 11 2 10 12
M  V30 12 1 10 13
M  V30 13 1 13 14
M  V30 14 2 14 15
M  V30 15 1 14 16
M  V30 16 1 15 17
M  V30 17 2 16 18
M  V30 18 1 17 19
M  V30 19 2 17 20
M  V30 20 1 19 21
M  V30 21 1 19 22
M  V30 22 1 20 23
M  V30 23 2 21 24
M  V30 24 1 21 25
M  V30 25 1 22 26
M  V30 26 1 25 27
M  V30 27 1 25 28
M  V30 28 1 26 29
M  V30 29 1 27 30
M  V30 30 2 29 31
M  V30 31 2 30 32
M  V30 32 1 32 33
M  V30 33 1 33 34
M  V30 34 2 34 35
M  V30 35 1 34 36
M  V30 36 1 35 37
M  V30 37 2 36 38
M  V30 38 2 37 39
M  V30 39 1 39 40
M  V30 40 1 9 11
M  V30 41 1 18 20
M  V30 42 2 26 27
M  V30 43 1 31 32
M  V30 44 1 38 39
M  V30 END BOND
M  V30 END CTAB
M  END
>  <Compound ID>
222

>  <Name>
GNF-7

>  <Uniprot>
Q8TDR2

>  <Target>
STK35

>  <Smiles>
CC1=CC=C(NC2=NC=C3CN(C4=CC(NC(=O)C5=CC=CC(C(F)(F)F)=C5)=CC=C4C)C(=O)N(C)C3=N2)C=N1

>  <Kd (nM)>


>  <Assay (Kd)>


>  <Ki (nM)>


>  <Assay (Ki)>


>  <IC50 (nM)>


>  <Assay (IC50)>


>  <EC50 (nM)>


>  <Assay (EC50)>


>  <Article DOI>


>  <Molecular Weight>
547.541

>  <Exact Mass>
547.194357668

>  <XLogP3>
4.33

>  <Heavy Atom Count>
40

>  <Ring Count>
5

>  <Hydrogen Bond Acceptor Count>
6

>  <Hydrogen Bond Donor Count>
2

>  <Rotatable Bond Count>
5

>  <Topological Polar Surface Area>
103.35

>  <Molecular Formula>
C28H24F3N7O2

>  <InChI>
InChI=1S/C28H24F3N7O2/c1-16-7-9-21(34-25(39)18-5-4-6-20(11-18)28(29,30)31)12-23(16)38-15-19-13-33-26(36-24(19)37(3)27(38)40)35-22-10-8-17(2)32-14-22/h4-14H,15H2,1-3H3,(H,34,39)(H,33,35,36)

>  <InChI Key>
SZNYUUZOQHNEKB-UHFFFAOYSA-N

>  <BindingDB>
50323777

>  <PubChem>
11478363

>  <ChEMBL>
CHEMBL1214141

$$$$
Compound 794
Actelion Java MolfileCreator 2.0

  0  0  0  0  0  0              0 V3000
M  V30 BEGIN CTAB
M  V30 COUNTS 40 44 0 0 0
M  V30 BEGIN ATOM
M  V30 1 F 0.0 0.0 0.0 0
M  V30 2 C -1.3409 -0.6587 0.0 0
M  V30 3 F -0.6822 -1.9761 0.0 0
M  V30 4 F -2.0232 0.6822 0.0 0
M  V30 5 C -2.6819 -1.3174 0.0 0
M  V30 6 C -3.9405 -0.4822 0.0 0
M  V30 7 C -2.776 -2.7995 0.0 0
M  V30 8 C -5.2815 -1.1409 0.0 0
M  V30 9 C -4.117 -3.4582 0.0 0
M  V30 10 C -6.5401 -0.3058 0.0 0
M  V30 11 C -5.3756 -2.6231 0.0 0
M  V30 12 O -7.8811 -0.9645 0.0 0
M  V30 13 N -6.4695 1.1998 0.0 0
M  V30 14 C -7.7282 2.0349 0.0 0
M  V30 15 C -9.0691 1.3762 0.0 0
M  V30 16 C -7.6576 3.5406 0.0 0
M  V30 17 C -10.3278 2.2114 0.0 0
M  V30 18 C -8.9162 4.3757 0.0 0
M  V30 19 N -11.6687 1.5527 0.0 0
M  V30 20 C -10.2572 3.717 0.0 0
M  V30 21 C -12.9274 2.3878 0.0 0
M  V30 22 C -11.7628 0.0705 0.0 0
M  V30 23 C -11.5158 4.5522 0.0 0
M  V30 24 O -12.8568 3.8935 0.0 0
M  V30 25 N -14.2683 1.7291 0.0 0
M  V30 26 C -13.1038 -0.5881 0.0 0
M  V30 27 C -14.3624 0.247 0.0 0
M  V30 28 C -15.527 2.5643 0.0 0
M  V30 29 C -13.1979 -2.0702 0.0 0
M  V30 30 N -15.7034 -0.4117 0.0 0
M  V30 31 N -14.5389 -2.7289 0.0 0
M  V30 32 C -15.7975 -1.8938 0.0 0
M  V30 33 N -17.1385 -2.5525 0.0 0
M  V30 34 C -18.3971 -1.7173 0.0 0
M  V30 35 C -19.7381 -2.3761 0.0 0
M  V30 36 C -18.3265 -0.2117 0.0 0
M  V30 37 N -20.9967 -1.5409 0.0 0
M  V30 38 C -19.5851 0.6234 0.0 0
M  V30 39 C -20.9261 -0.0352 0.0 0
M  V30 40 C -22.1847 0.7998 0.0 0
M  V30 END ATOM
M  V30 BEGIN BOND
M  V30 1 1 1 2
M  V30 2 1 2 3
M  V30 3 1 2 4
M  V30 4 1 2 5
M  V30 5 2 5 6
M  V30 6 1 5 7
M  V30 7 1 6 8
M  V30 8 2 7 9
M  V30 9 1 8 10
M  V30 10 2 8 11
M  V30 11 2 10 12
M  V30 12 1 10 13
M  V30 13 1 13 14
M  V30 14 2 14 15
M  V30 15 1 14 16
M  V30 16 1 15 17
M  V30 17 2 16 18
M  V30 18 1 17 19
M  V30 19 2 17 20
M  V30 20 1 19 21
M  V30 21 1 19 22
M  V30 22 1 20 23
M  V30 23 2 21 24
M  V30 24 1 21 25
M  V30 25 1 22 26
M  V30 26 1 25 27
M  V30 27 1 25 28
M  V30 28 1 26 29
M  V30 29 1 27 30
M  V30 30 2 29 31
M  V30 31 2 30 32
M  V30 32 1 32 33
M  V30 33 1 33 34
M  V30 34 2 34 35
M  V30 35 1 34 36
M  V30 36 1 35 37
M  V30 37 2 36 38
M  V30 38 2 37 39
M  V30 39 1 39 40
M  V30 40 1 9 11
M  V30 41 1 18 20
M  V30 42 2 26 27
M  V30 43 1 31 32
M  V30 44 1 38 39
M  V30 END BOND
M  V30 END CTAB
M  END
>  <Compound ID>
222

>  <Name>
GNF-7

>  <Uniprot>
Q9UL54

>  <Target>
TAOK2

>  <Smiles>
CC1=CC=C(NC2=NC=C3CN(C4=CC(NC(=O)C5=CC=CC(C(F)(F)F)=C5)=CC=C4C)C(=O)N(C)C3=N2)C=N1

>  <Kd (nM)>


>  <Assay (Kd)>


>  <Ki (nM)>


>  <Assay (Ki)>


>  <IC50 (nM)>


>  <Assay (IC50)>


>  <EC50 (nM)>


>  <Assay (EC50)>


>  <Article DOI>


>  <Molecular Weight>
547.541

>  <Exact Mass>
547.194357668

>  <XLogP3>
4.33

>  <Heavy Atom Count>
40

>  <Ring Count>
5

>  <Hydrogen Bond Acceptor Count>
6

>  <Hydrogen Bond Donor Count>
2

>  <Rotatable Bond Count>
5

>  <Topological Polar Surface Area>
103.35

>  <Molecular Formula>
C28H24F3N7O2

>  <InChI>
InChI=1S/C28H24F3N7O2/c1-16-7-9-21(34-25(39)18-5-4-6-20(11-18)28(29,30)31)12-23(16)38-15-19-13-33-26(36-24(19)37(3)27(38)40)35-22-10-8-17(2)32-14-22/h4-14H,15H2,1-3H3,(H,34,39)(H,33,35,36)

>  <InChI Key>
SZNYUUZOQHNEKB-UHFFFAOYSA-N

>  <BindingDB>
50323777

>  <PubChem>
11478363

>  <ChEMBL>
CHEMBL1214141

$$$$
Compound 795
Actelion Java MolfileCreator 2.0

  0  0  0  0  0  0              0 V3000
M  V30 BEGIN CTAB
M  V30 COUNTS 40 44 0 0 0
M  V30 BEGIN ATOM
M  V30 1 F 0.0 0.0 0.0 0
M  V30 2 C -1.3409 -0.6587 0.0 0
M  V30 3 F -0.6822 -1.9761 0.0 0
M  V30 4 F -2.0232 0.6822 0.0 0
M  V30 5 C -2.6819 -1.3174 0.0 0
M  V30 6 C -3.9405 -0.4822 0.0 0
M  V30 7 C -2.776 -2.7995 0.0 0
M  V30 8 C -5.2815 -1.1409 0.0 0
M  V30 9 C -4.117 -3.4582 0.0 0
M  V30 10 C -6.5401 -0.3058 0.0 0
M  V30 11 C -5.3756 -2.6231 0.0 0
M  V30 12 O -7.8811 -0.9645 0.0 0
M  V30 13 N -6.4695 1.1998 0.0 0
M  V30 14 C -7.7282 2.0349 0.0 0
M  V30 15 C -9.0691 1.3762 0.0 0
M  V30 16 C -7.6576 3.5406 0.0 0
M  V30 17 C -10.3278 2.2114 0.0 0
M  V30 18 C -8.9162 4.3757 0.0 0
M  V30 19 N -11.6687 1.5527 0.0 0
M  V30 20 C -10.2572 3.717 0.0 0
M  V30 21 C -12.9274 2.3878 0.0 0
M  V30 22 C -11.7628 0.0705 0.0 0
M  V30 23 C -11.5158 4.5522 0.0 0
M  V30 24 O -12.8568 3.8935 0.0 0
M  V30 25 N -14.2683 1.7291 0.0 0
M  V30 26 C -13.1038 -0.5881 0.0 0
M  V30 27 C -14.3624 0.247 0.0 0
M  V30 28 C -15.527 2.5643 0.0 0
M  V30 29 C -13.1979 -2.0702 0.0 0
M  V30 30 N -15.7034 -0.4117 0.0 0
M  V30 31 N -14.5389 -2.7289 0.0 0
M  V30 32 C -15.7975 -1.8938 0.0 0
M  V30 33 N -17.1385 -2.5525 0.0 0
M  V30 34 C -18.3971 -1.7173 0.0 0
M  V30 35 C -19.7381 -2.3761 0.0 0
M  V30 36 C -18.3265 -0.2117 0.0 0
M  V30 37 N -20.9967 -1.5409 0.0 0
M  V30 38 C -19.5851 0.6234 0.0 0
M  V30 39 C -20.9261 -0.0352 0.0 0
M  V30 40 C -22.1847 0.7998 0.0 0
M  V30 END ATOM
M  V30 BEGIN BOND
M  V30 1 1 1 2
M  V30 2 1 2 3
M  V30 3 1 2 4
M  V30 4 1 2 5
M  V30 5 2 5 6
M  V30 6 1 5 7
M  V30 7 1 6 8
M  V30 8 2 7 9
M  V30 9 1 8 10
M  V30 10 2 8 11
M  V30 11 2 10 12
M  V30 12 1 10 13
M  V30 13 1 13 14
M  V30 14 2 14 15
M  V30 15 1 14 16
M  V30 16 1 15 17
M  V30 17 2 16 18
M  V30 18 1 17 19
M  V30 19 2 17 20
M  V30 20 1 19 21
M  V30 21 1 19 22
M  V30 22 1 20 23
M  V30 23 2 21 24
M  V30 24 1 21 25
M  V30 25 1 22 26
M  V30 26 1 25 27
M  V30 27 1 25 28
M  V30 28 1 26 29
M  V30 29 1 27 30
M  V30 30 2 29 31
M  V30 31 2 30 32
M  V30 32 1 32 33
M  V30 33 1 33 34
M  V30 34 2 34 35
M  V30 35 1 34 36
M  V30 36 1 35 37
M  V30 37 2 36 38
M  V30 38 2 37 39
M  V30 39 1 39 40
M  V30 40 1 9 11
M  V30 41 1 18 20
M  V30 42 2 26 27
M  V30 43 1 31 32
M  V30 44 1 38 39
M  V30 END BOND
M  V30 END CTAB
M  END
>  <Compound ID>
222

>  <Name>
GNF-7

>  <Uniprot>
P42680

>  <Target>
TEC

>  <Smiles>
CC1=CC=C(NC2=NC=C3CN(C4=CC(NC(=O)C5=CC=CC(C(F)(F)F)=C5)=CC=C4C)C(=O)N(C)C3=N2)C=N1

>  <Kd (nM)>


>  <Assay (Kd)>


>  <Ki (nM)>


>  <Assay (Ki)>


>  <IC50 (nM)>


>  <Assay (IC50)>


>  <EC50 (nM)>


>  <Assay (EC50)>


>  <Article DOI>


>  <Molecular Weight>
547.541

>  <Exact Mass>
547.194357668

>  <XLogP3>
4.33

>  <Heavy Atom Count>
40

>  <Ring Count>
5

>  <Hydrogen Bond Acceptor Count>
6

>  <Hydrogen Bond Donor Count>
2

>  <Rotatable Bond Count>
5

>  <Topological Polar Surface Area>
103.35

>  <Molecular Formula>
C28H24F3N7O2

>  <InChI>
InChI=1S/C28H24F3N7O2/c1-16-7-9-21(34-25(39)18-5-4-6-20(11-18)28(29,30)31)12-23(16)38-15-19-13-33-26(36-24(19)37(3)27(38)40)35-22-10-8-17(2)32-14-22/h4-14H,15H2,1-3H3,(H,34,39)(H,33,35,36)

>  <InChI Key>
SZNYUUZOQHNEKB-UHFFFAOYSA-N

>  <BindingDB>
50323777

>  <PubChem>
11478363

>  <ChEMBL>
CHEMBL1214141

$$$$
Compound 796
Actelion Java MolfileCreator 2.0

  0  0  0  0  0  0              0 V3000
M  V30 BEGIN CTAB
M  V30 COUNTS 40 44 0 0 0
M  V30 BEGIN ATOM
M  V30 1 F 0.0 0.0 0.0 0
M  V30 2 C -1.3409 -0.6587 0.0 0
M  V30 3 F -0.6822 -1.9761 0.0 0
M  V30 4 F -2.0232 0.6822 0.0 0
M  V30 5 C -2.6819 -1.3174 0.0 0
M  V30 6 C -3.9405 -0.4822 0.0 0
M  V30 7 C -2.776 -2.7995 0.0 0
M  V30 8 C -5.2815 -1.1409 0.0 0
M  V30 9 C -4.117 -3.4582 0.0 0
M  V30 10 C -6.5401 -0.3058 0.0 0
M  V30 11 C -5.3756 -2.6231 0.0 0
M  V30 12 O -7.8811 -0.9645 0.0 0
M  V30 13 N -6.4695 1.1998 0.0 0
M  V30 14 C -7.7282 2.0349 0.0 0
M  V30 15 C -9.0691 1.3762 0.0 0
M  V30 16 C -7.6576 3.5406 0.0 0
M  V30 17 C -10.3278 2.2114 0.0 0
M  V30 18 C -8.9162 4.3757 0.0 0
M  V30 19 N -11.6687 1.5527 0.0 0
M  V30 20 C -10.2572 3.717 0.0 0
M  V30 21 C -12.9274 2.3878 0.0 0
M  V30 22 C -11.7628 0.0705 0.0 0
M  V30 23 C -11.5158 4.5522 0.0 0
M  V30 24 O -12.8568 3.8935 0.0 0
M  V30 25 N -14.2683 1.7291 0.0 0
M  V30 26 C -13.1038 -0.5881 0.0 0
M  V30 27 C -14.3624 0.247 0.0 0
M  V30 28 C -15.527 2.5643 0.0 0
M  V30 29 C -13.1979 -2.0702 0.0 0
M  V30 30 N -15.7034 -0.4117 0.0 0
M  V30 31 N -14.5389 -2.7289 0.0 0
M  V30 32 C -15.7975 -1.8938 0.0 0
M  V30 33 N -17.1385 -2.5525 0.0 0
M  V30 34 C -18.3971 -1.7173 0.0 0
M  V30 35 C -19.7381 -2.3761 0.0 0
M  V30 36 C -18.3265 -0.2117 0.0 0
M  V30 37 N -20.9967 -1.5409 0.0 0
M  V30 38 C -19.5851 0.6234 0.0 0
M  V30 39 C -20.9261 -0.0352 0.0 0
M  V30 40 C -22.1847 0.7998 0.0 0
M  V30 END ATOM
M  V30 BEGIN BOND
M  V30 1 1 1 2
M  V30 2 1 2 3
M  V30 3 1 2 4
M  V30 4 1 2 5
M  V30 5 2 5 6
M  V30 6 1 5 7
M  V30 7 1 6 8
M  V30 8 2 7 9
M  V30 9 1 8 10
M  V30 10 2 8 11
M  V30 11 2 10 12
M  V30 12 1 10 13
M  V30 13 1 13 14
M  V30 14 2 14 15
M  V30 15 1 14 16
M  V30 16 1 15 17
M  V30 17 2 16 18
M  V30 18 1 17 19
M  V30 19 2 17 20
M  V30 20 1 19 21
M  V30 21 1 19 22
M  V30 22 1 20 23
M  V30 23 2 21 24
M  V30 24 1 21 25
M  V30 25 1 22 26
M  V30 26 1 25 27
M  V30 27 1 25 28
M  V30 28 1 26 29
M  V30 29 1 27 30
M  V30 30 2 29 31
M  V30 31 2 30 32
M  V30 32 1 32 33
M  V30 33 1 33 34
M  V30 34 2 34 35
M  V30 35 1 34 36
M  V30 36 1 35 37
M  V30 37 2 36 38
M  V30 38 2 37 39
M  V30 39 1 39 40
M  V30 40 1 9 11
M  V30 41 1 18 20
M  V30 42 2 26 27
M  V30 43 1 31 32
M  V30 44 1 38 39
M  V30 END BOND
M  V30 END CTAB
M  END
>  <Compound ID>
222

>  <Name>
GNF-7

>  <Uniprot>
Q07912

>  <Target>
TNK2

>  <Smiles>
CC1=CC=C(NC2=NC=C3CN(C4=CC(NC(=O)C5=CC=CC(C(F)(F)F)=C5)=CC=C4C)C(=O)N(C)C3=N2)C=N1

>  <Kd (nM)>


>  <Assay (Kd)>


>  <Ki (nM)>


>  <Assay (Ki)>


>  <IC50 (nM)>
25

>  <Assay (IC50)>
IC50 was assessed by radiometric biochemical kinase assay

>  <EC50 (nM)>


>  <Assay (EC50)>


>  <Article DOI>
10.1021/acs.jmedchem.8b00882

>  <Molecular Weight>
547.541

>  <Exact Mass>
547.194357668

>  <XLogP3>
4.33

>  <Heavy Atom Count>
40

>  <Ring Count>
5

>  <Hydrogen Bond Acceptor Count>
6

>  <Hydrogen Bond Donor Count>
2

>  <Rotatable Bond Count>
5

>  <Topological Polar Surface Area>
103.35

>  <Molecular Formula>
C28H24F3N7O2

>  <InChI>
InChI=1S/C28H24F3N7O2/c1-16-7-9-21(34-25(39)18-5-4-6-20(11-18)28(29,30)31)12-23(16)38-15-19-13-33-26(36-24(19)37(3)27(38)40)35-22-10-8-17(2)32-14-22/h4-14H,15H2,1-3H3,(H,34,39)(H,33,35,36)

>  <InChI Key>
SZNYUUZOQHNEKB-UHFFFAOYSA-N

>  <BindingDB>
50323777

>  <PubChem>
11478363

>  <ChEMBL>
CHEMBL1214141

$$$$
Compound 797
Actelion Java MolfileCreator 2.0

  0  0  0  0  0  0              0 V3000
M  V30 BEGIN CTAB
M  V30 COUNTS 40 44 0 0 0
M  V30 BEGIN ATOM
M  V30 1 F 0.0 0.0 0.0 0
M  V30 2 C -1.3409 -0.6587 0.0 0
M  V30 3 F -0.6822 -1.9761 0.0 0
M  V30 4 F -2.0232 0.6822 0.0 0
M  V30 5 C -2.6819 -1.3174 0.0 0
M  V30 6 C -3.9405 -0.4822 0.0 0
M  V30 7 C -2.776 -2.7995 0.0 0
M  V30 8 C -5.2815 -1.1409 0.0 0
M  V30 9 C -4.117 -3.4582 0.0 0
M  V30 10 C -6.5401 -0.3058 0.0 0
M  V30 11 C -5.3756 -2.6231 0.0 0
M  V30 12 O -7.8811 -0.9645 0.0 0
M  V30 13 N -6.4695 1.1998 0.0 0
M  V30 14 C -7.7282 2.0349 0.0 0
M  V30 15 C -9.0691 1.3762 0.0 0
M  V30 16 C -7.6576 3.5406 0.0 0
M  V30 17 C -10.3278 2.2114 0.0 0
M  V30 18 C -8.9162 4.3757 0.0 0
M  V30 19 N -11.6687 1.5527 0.0 0
M  V30 20 C -10.2572 3.717 0.0 0
M  V30 21 C -12.9274 2.3878 0.0 0
M  V30 22 C -11.7628 0.0705 0.0 0
M  V30 23 C -11.5158 4.5522 0.0 0
M  V30 24 O -12.8568 3.8935 0.0 0
M  V30 25 N -14.2683 1.7291 0.0 0
M  V30 26 C -13.1038 -0.5881 0.0 0
M  V30 27 C -14.3624 0.247 0.0 0
M  V30 28 C -15.527 2.5643 0.0 0
M  V30 29 C -13.1979 -2.0702 0.0 0
M  V30 30 N -15.7034 -0.4117 0.0 0
M  V30 31 N -14.5389 -2.7289 0.0 0
M  V30 32 C -15.7975 -1.8938 0.0 0
M  V30 33 N -17.1385 -2.5525 0.0 0
M  V30 34 C -18.3971 -1.7173 0.0 0
M  V30 35 C -19.7381 -2.3761 0.0 0
M  V30 36 C -18.3265 -0.2117 0.0 0
M  V30 37 N -20.9967 -1.5409 0.0 0
M  V30 38 C -19.5851 0.6234 0.0 0
M  V30 39 C -20.9261 -0.0352 0.0 0
M  V30 40 C -22.1847 0.7998 0.0 0
M  V30 END ATOM
M  V30 BEGIN BOND
M  V30 1 1 1 2
M  V30 2 1 2 3
M  V30 3 1 2 4
M  V30 4 1 2 5
M  V30 5 2 5 6
M  V30 6 1 5 7
M  V30 7 1 6 8
M  V30 8 2 7 9
M  V30 9 1 8 10
M  V30 10 2 8 11
M  V30 11 2 10 12
M  V30 12 1 10 13
M  V30 13 1 13 14
M  V30 14 2 14 15
M  V30 15 1 14 16
M  V30 16 1 15 17
M  V30 17 2 16 18
M  V30 18 1 17 19
M  V30 19 2 17 20
M  V30 20 1 19 21
M  V30 21 1 19 22
M  V30 22 1 20 23
M  V30 23 2 21 24
M  V30 24 1 21 25
M  V30 25 1 22 26
M  V30 26 1 25 27
M  V30 27 1 25 28
M  V30 28 1 26 29
M  V30 29 1 27 30
M  V30 30 2 29 31
M  V30 31 2 30 32
M  V30 32 1 32 33
M  V30 33 1 33 34
M  V30 34 2 34 35
M  V30 35 1 34 36
M  V30 36 1 35 37
M  V30 37 2 36 38
M  V30 38 2 37 39
M  V30 39 1 39 40
M  V30 40 1 9 11
M  V30 41 1 18 20
M  V30 42 2 26 27
M  V30 43 1 31 32
M  V30 44 1 38 39
M  V30 END BOND
M  V30 END CTAB
M  END
>  <Compound ID>
222

>  <Name>
GNF-7

>  <Uniprot>
P33981

>  <Target>
TTK

>  <Smiles>
CC1=CC=C(NC2=NC=C3CN(C4=CC(NC(=O)C5=CC=CC(C(F)(F)F)=C5)=CC=C4C)C(=O)N(C)C3=N2)C=N1

>  <Kd (nM)>


>  <Assay (Kd)>


>  <Ki (nM)>


>  <Assay (Ki)>


>  <IC50 (nM)>


>  <Assay (IC50)>


>  <EC50 (nM)>


>  <Assay (EC50)>


>  <Article DOI>


>  <Molecular Weight>
547.541

>  <Exact Mass>
547.194357668

>  <XLogP3>
4.33

>  <Heavy Atom Count>
40

>  <Ring Count>
5

>  <Hydrogen Bond Acceptor Count>
6

>  <Hydrogen Bond Donor Count>
2

>  <Rotatable Bond Count>
5

>  <Topological Polar Surface Area>
103.35

>  <Molecular Formula>
C28H24F3N7O2

>  <InChI>
InChI=1S/C28H24F3N7O2/c1-16-7-9-21(34-25(39)18-5-4-6-20(11-18)28(29,30)31)12-23(16)38-15-19-13-33-26(36-24(19)37(3)27(38)40)35-22-10-8-17(2)32-14-22/h4-14H,15H2,1-3H3,(H,34,39)(H,33,35,36)

>  <InChI Key>
SZNYUUZOQHNEKB-UHFFFAOYSA-N

>  <BindingDB>
50323777

>  <PubChem>
11478363

>  <ChEMBL>
CHEMBL1214141

$$$$
Compound 798
Actelion Java MolfileCreator 2.0

  0  0  0  0  0  0              0 V3000
M  V30 BEGIN CTAB
M  V30 COUNTS 40 44 0 0 0
M  V30 BEGIN ATOM
M  V30 1 F 0.0 0.0 0.0 0
M  V30 2 C -1.3409 -0.6587 0.0 0
M  V30 3 F -0.6822 -1.9761 0.0 0
M  V30 4 F -2.0232 0.6822 0.0 0
M  V30 5 C -2.6819 -1.3174 0.0 0
M  V30 6 C -3.9405 -0.4822 0.0 0
M  V30 7 C -2.776 -2.7995 0.0 0
M  V30 8 C -5.2815 -1.1409 0.0 0
M  V30 9 C -4.117 -3.4582 0.0 0
M  V30 10 C -6.5401 -0.3058 0.0 0
M  V30 11 C -5.3756 -2.6231 0.0 0
M  V30 12 O -7.8811 -0.9645 0.0 0
M  V30 13 N -6.4695 1.1998 0.0 0
M  V30 14 C -7.7282 2.0349 0.0 0
M  V30 15 C -9.0691 1.3762 0.0 0
M  V30 16 C -7.6576 3.5406 0.0 0
M  V30 17 C -10.3278 2.2114 0.0 0
M  V30 18 C -8.9162 4.3757 0.0 0
M  V30 19 N -11.6687 1.5527 0.0 0
M  V30 20 C -10.2572 3.717 0.0 0
M  V30 21 C -12.9274 2.3878 0.0 0
M  V30 22 C -11.7628 0.0705 0.0 0
M  V30 23 C -11.5158 4.5522 0.0 0
M  V30 24 O -12.8568 3.8935 0.0 0
M  V30 25 N -14.2683 1.7291 0.0 0
M  V30 26 C -13.1038 -0.5881 0.0 0
M  V30 27 C -14.3624 0.247 0.0 0
M  V30 28 C -15.527 2.5643 0.0 0
M  V30 29 C -13.1979 -2.0702 0.0 0
M  V30 30 N -15.7034 -0.4117 0.0 0
M  V30 31 N -14.5389 -2.7289 0.0 0
M  V30 32 C -15.7975 -1.8938 0.0 0
M  V30 33 N -17.1385 -2.5525 0.0 0
M  V30 34 C -18.3971 -1.7173 0.0 0
M  V30 35 C -19.7381 -2.3761 0.0 0
M  V30 36 C -18.3265 -0.2117 0.0 0
M  V30 37 N -20.9967 -1.5409 0.0 0
M  V30 38 C -19.5851 0.6234 0.0 0
M  V30 39 C -20.9261 -0.0352 0.0 0
M  V30 40 C -22.1847 0.7998 0.0 0
M  V30 END ATOM
M  V30 BEGIN BOND
M  V30 1 1 1 2
M  V30 2 1 2 3
M  V30 3 1 2 4
M  V30 4 1 2 5
M  V30 5 2 5 6
M  V30 6 1 5 7
M  V30 7 1 6 8
M  V30 8 2 7 9
M  V30 9 1 8 10
M  V30 10 2 8 11
M  V30 11 2 10 12
M  V30 12 1 10 13
M  V30 13 1 13 14
M  V30 14 2 14 15
M  V30 15 1 14 16
M  V30 16 1 15 17
M  V30 17 2 16 18
M  V30 18 1 17 19
M  V30 19 2 17 20
M  V30 20 1 19 21
M  V30 21 1 19 22
M  V30 22 1 20 23
M  V30 23 2 21 24
M  V30 24 1 21 25
M  V30 25 1 22 26
M  V30 26 1 25 27
M  V30 27 1 25 28
M  V30 28 1 26 29
M  V30 29 1 27 30
M  V30 30 2 29 31
M  V30 31 2 30 32
M  V30 32 1 32 33
M  V30 33 1 33 34
M  V30 34 2 34 35
M  V30 35 1 34 36
M  V30 36 1 35 37
M  V30 37 2 36 38
M  V30 38 2 37 39
M  V30 39 1 39 40
M  V30 40 1 9 11
M  V30 41 1 18 20
M  V30 42 2 26 27
M  V30 43 1 31 32
M  V30 44 1 38 39
M  V30 END BOND
M  V30 END CTAB
M  END
>  <Compound ID>
222

>  <Name>
GNF-7

>  <Uniprot>
Q8TAS1

>  <Target>
UHMK1

>  <Smiles>
CC1=CC=C(NC2=NC=C3CN(C4=CC(NC(=O)C5=CC=CC(C(F)(F)F)=C5)=CC=C4C)C(=O)N(C)C3=N2)C=N1

>  <Kd (nM)>


>  <Assay (Kd)>


>  <Ki (nM)>


>  <Assay (Ki)>


>  <IC50 (nM)>


>  <Assay (IC50)>


>  <EC50 (nM)>


>  <Assay (EC50)>


>  <Article DOI>


>  <Molecular Weight>
547.541

>  <Exact Mass>
547.194357668

>  <XLogP3>
4.33

>  <Heavy Atom Count>
40

>  <Ring Count>
5

>  <Hydrogen Bond Acceptor Count>
6

>  <Hydrogen Bond Donor Count>
2

>  <Rotatable Bond Count>
5

>  <Topological Polar Surface Area>
103.35

>  <Molecular Formula>
C28H24F3N7O2

>  <InChI>
InChI=1S/C28H24F3N7O2/c1-16-7-9-21(34-25(39)18-5-4-6-20(11-18)28(29,30)31)12-23(16)38-15-19-13-33-26(36-24(19)37(3)27(38)40)35-22-10-8-17(2)32-14-22/h4-14H,15H2,1-3H3,(H,34,39)(H,33,35,36)

>  <InChI Key>
SZNYUUZOQHNEKB-UHFFFAOYSA-N

>  <BindingDB>
50323777

>  <PubChem>
11478363

>  <ChEMBL>
CHEMBL1214141

$$$$
Compound 799
Actelion Java MolfileCreator 2.0

  0  0  0  0  0  0              0 V3000
M  V30 BEGIN CTAB
M  V30 COUNTS 40 44 0 0 0
M  V30 BEGIN ATOM
M  V30 1 F 0.0 0.0 0.0 0
M  V30 2 C -1.3409 -0.6587 0.0 0
M  V30 3 F -0.6822 -1.9761 0.0 0
M  V30 4 F -2.0232 0.6822 0.0 0
M  V30 5 C -2.6819 -1.3174 0.0 0
M  V30 6 C -3.9405 -0.4822 0.0 0
M  V30 7 C -2.776 -2.7995 0.0 0
M  V30 8 C -5.2815 -1.1409 0.0 0
M  V30 9 C -4.117 -3.4582 0.0 0
M  V30 10 C -6.5401 -0.3058 0.0 0
M  V30 11 C -5.3756 -2.6231 0.0 0
M  V30 12 O -7.8811 -0.9645 0.0 0
M  V30 13 N -6.4695 1.1998 0.0 0
M  V30 14 C -7.7282 2.0349 0.0 0
M  V30 15 C -9.0691 1.3762 0.0 0
M  V30 16 C -7.6576 3.5406 0.0 0
M  V30 17 C -10.3278 2.2114 0.0 0
M  V30 18 C -8.9162 4.3757 0.0 0
M  V30 19 N -11.6687 1.5527 0.0 0
M  V30 20 C -10.2572 3.717 0.0 0
M  V30 21 C -12.9274 2.3878 0.0 0
M  V30 22 C -11.7628 0.0705 0.0 0
M  V30 23 C -11.5158 4.5522 0.0 0
M  V30 24 O -12.8568 3.8935 0.0 0
M  V30 25 N -14.2683 1.7291 0.0 0
M  V30 26 C -13.1038 -0.5881 0.0 0
M  V30 27 C -14.3624 0.247 0.0 0
M  V30 28 C -15.527 2.5643 0.0 0
M  V30 29 C -13.1979 -2.0702 0.0 0
M  V30 30 N -15.7034 -0.4117 0.0 0
M  V30 31 N -14.5389 -2.7289 0.0 0
M  V30 32 C -15.7975 -1.8938 0.0 0
M  V30 33 N -17.1385 -2.5525 0.0 0
M  V30 34 C -18.3971 -1.7173 0.0 0
M  V30 35 C -19.7381 -2.3761 0.0 0
M  V30 36 C -18.3265 -0.2117 0.0 0
M  V30 37 N -20.9967 -1.5409 0.0 0
M  V30 38 C -19.5851 0.6234 0.0 0
M  V30 39 C -20.9261 -0.0352 0.0 0
M  V30 40 C -22.1847 0.7998 0.0 0
M  V30 END ATOM
M  V30 BEGIN BOND
M  V30 1 1 1 2
M  V30 2 1 2 3
M  V30 3 1 2 4
M  V30 4 1 2 5
M  V30 5 2 5 6
M  V30 6 1 5 7
M  V30 7 1 6 8
M  V30 8 2 7 9
M  V30 9 1 8 10
M  V30 10 2 8 11
M  V30 11 2 10 12
M  V30 12 1 10 13
M  V30 13 1 13 14
M  V30 14 2 14 15
M  V30 15 1 14 16
M  V30 16 1 15 17
M  V30 17 2 16 18
M  V30 18 1 17 19
M  V30 19 2 17 20
M  V30 20 1 19 21
M  V30 21 1 19 22
M  V30 22 1 20 23
M  V30 23 2 21 24
M  V30 24 1 21 25
M  V30 25 1 22 26
M  V30 26 1 25 27
M  V30 27 1 25 28
M  V30 28 1 26 29
M  V30 29 1 27 30
M  V30 30 2 29 31
M  V30 31 2 30 32
M  V30 32 1 32 33
M  V30 33 1 33 34
M  V30 34 2 34 35
M  V30 35 1 34 36
M  V30 36 1 35 37
M  V30 37 2 36 38
M  V30 38 2 37 39
M  V30 39 1 39 40
M  V30 40 1 9 11
M  V30 41 1 18 20
M  V30 42 2 26 27
M  V30 43 1 31 32
M  V30 44 1 38 39
M  V30 END BOND
M  V30 END CTAB
M  END
>  <Compound ID>
222

>  <Name>
GNF-7

>  <Uniprot>
O75385

>  <Target>
ULK1

>  <Smiles>
CC1=CC=C(NC2=NC=C3CN(C4=CC(NC(=O)C5=CC=CC(C(F)(F)F)=C5)=CC=C4C)C(=O)N(C)C3=N2)C=N1

>  <Kd (nM)>


>  <Assay (Kd)>


>  <Ki (nM)>


>  <Assay (Ki)>


>  <IC50 (nM)>


>  <Assay (IC50)>


>  <EC50 (nM)>


>  <Assay (EC50)>


>  <Article DOI>


>  <Molecular Weight>
547.541

>  <Exact Mass>
547.194357668

>  <XLogP3>
4.33

>  <Heavy Atom Count>
40

>  <Ring Count>
5

>  <Hydrogen Bond Acceptor Count>
6

>  <Hydrogen Bond Donor Count>
2

>  <Rotatable Bond Count>
5

>  <Topological Polar Surface Area>
103.35

>  <Molecular Formula>
C28H24F3N7O2

>  <InChI>
InChI=1S/C28H24F3N7O2/c1-16-7-9-21(34-25(39)18-5-4-6-20(11-18)28(29,30)31)12-23(16)38-15-19-13-33-26(36-24(19)37(3)27(38)40)35-22-10-8-17(2)32-14-22/h4-14H,15H2,1-3H3,(H,34,39)(H,33,35,36)

>  <InChI Key>
SZNYUUZOQHNEKB-UHFFFAOYSA-N

>  <BindingDB>
50323777

>  <PubChem>
11478363

>  <ChEMBL>
CHEMBL1214141

$$$$
Compound 800
Actelion Java MolfileCreator 2.0

  0  0  0  0  0  0              0 V3000
M  V30 BEGIN CTAB
M  V30 COUNTS 40 44 0 0 0
M  V30 BEGIN ATOM
M  V30 1 F 0.0 0.0 0.0 0
M  V30 2 C -1.3409 -0.6587 0.0 0
M  V30 3 F -0.6822 -1.9761 0.0 0
M  V30 4 F -2.0232 0.6822 0.0 0
M  V30 5 C -2.6819 -1.3174 0.0 0
M  V30 6 C -3.9405 -0.4822 0.0 0
M  V30 7 C -2.776 -2.7995 0.0 0
M  V30 8 C -5.2815 -1.1409 0.0 0
M  V30 9 C -4.117 -3.4582 0.0 0
M  V30 10 C -6.5401 -0.3058 0.0 0
M  V30 11 C -5.3756 -2.6231 0.0 0
M  V30 12 O -7.8811 -0.9645 0.0 0
M  V30 13 N -6.4695 1.1998 0.0 0
M  V30 14 C -7.7282 2.0349 0.0 0
M  V30 15 C -9.0691 1.3762 0.0 0
M  V30 16 C -7.6576 3.5406 0.0 0
M  V30 17 C -10.3278 2.2114 0.0 0
M  V30 18 C -8.9162 4.3757 0.0 0
M  V30 19 N -11.6687 1.5527 0.0 0
M  V30 20 C -10.2572 3.717 0.0 0
M  V30 21 C -12.9274 2.3878 0.0 0
M  V30 22 C -11.7628 0.0705 0.0 0
M  V30 23 C -11.5158 4.5522 0.0 0
M  V30 24 O -12.8568 3.8935 0.0 0
M  V30 25 N -14.2683 1.7291 0.0 0
M  V30 26 C -13.1038 -0.5881 0.0 0
M  V30 27 C -14.3624 0.247 0.0 0
M  V30 28 C -15.527 2.5643 0.0 0
M  V30 29 C -13.1979 -2.0702 0.0 0
M  V30 30 N -15.7034 -0.4117 0.0 0
M  V30 31 N -14.5389 -2.7289 0.0 0
M  V30 32 C -15.7975 -1.8938 0.0 0
M  V30 33 N -17.1385 -2.5525 0.0 0
M  V30 34 C -18.3971 -1.7173 0.0 0
M  V30 35 C -19.7381 -2.3761 0.0 0
M  V30 36 C -18.3265 -0.2117 0.0 0
M  V30 37 N -20.9967 -1.5409 0.0 0
M  V30 38 C -19.5851 0.6234 0.0 0
M  V30 39 C -20.9261 -0.0352 0.0 0
M  V30 40 C -22.1847 0.7998 0.0 0
M  V30 END ATOM
M  V30 BEGIN BOND
M  V30 1 1 1 2
M  V30 2 1 2 3
M  V30 3 1 2 4
M  V30 4 1 2 5
M  V30 5 2 5 6
M  V30 6 1 5 7
M  V30 7 1 6 8
M  V30 8 2 7 9
M  V30 9 1 8 10
M  V30 10 2 8 11
M  V30 11 2 10 12
M  V30 12 1 10 13
M  V30 13 1 13 14
M  V30 14 2 14 15
M  V30 15 1 14 16
M  V30 16 1 15 17
M  V30 17 2 16 18
M  V30 18 1 17 19
M  V30 19 2 17 20
M  V30 20 1 19 21
M  V30 21 1 19 22
M  V30 22 1 20 23
M  V30 23 2 21 24
M  V30 24 1 21 25
M  V30 25 1 22 26
M  V30 26 1 25 27
M  V30 27 1 25 28
M  V30 28 1 26 29
M  V30 29 1 27 30
M  V30 30 2 29 31
M  V30 31 2 30 32
M  V30 32 1 32 33
M  V30 33 1 33 34
M  V30 34 2 34 35
M  V30 35 1 34 36
M  V30 36 1 35 37
M  V30 37 2 36 38
M  V30 38 2 37 39
M  V30 39 1 39 40
M  V30 40 1 9 11
M  V30 41 1 18 20
M  V30 42 2 26 27
M  V30 43 1 31 32
M  V30 44 1 38 39
M  V30 END BOND
M  V30 END CTAB
M  END
>  <Compound ID>
222

>  <Name>
GNF-7

>  <Uniprot>
P30291

>  <Target>
Wee1

>  <Smiles>
CC1=CC=C(NC2=NC=C3CN(C4=CC(NC(=O)C5=CC=CC(C(F)(F)F)=C5)=CC=C4C)C(=O)N(C)C3=N2)C=N1

>  <Kd (nM)>


>  <Assay (Kd)>


>  <Ki (nM)>


>  <Assay (Ki)>


>  <IC50 (nM)>


>  <Assay (IC50)>


>  <EC50 (nM)>


>  <Assay (EC50)>


>  <Article DOI>


>  <Molecular Weight>
547.541

>  <Exact Mass>
547.194357668

>  <XLogP3>
4.33

>  <Heavy Atom Count>
40

>  <Ring Count>
5

>  <Hydrogen Bond Acceptor Count>
6

>  <Hydrogen Bond Donor Count>
2

>  <Rotatable Bond Count>
5

>  <Topological Polar Surface Area>
103.35

>  <Molecular Formula>
C28H24F3N7O2

>  <InChI>
InChI=1S/C28H24F3N7O2/c1-16-7-9-21(34-25(39)18-5-4-6-20(11-18)28(29,30)31)12-23(16)38-15-19-13-33-26(36-24(19)37(3)27(38)40)35-22-10-8-17(2)32-14-22/h4-14H,15H2,1-3H3,(H,34,39)(H,33,35,36)

>  <InChI Key>
SZNYUUZOQHNEKB-UHFFFAOYSA-N

>  <BindingDB>
50323777

>  <PubChem>
11478363

>  <ChEMBL>
CHEMBL1214141

$$$$
Compound 801
Actelion Java MolfileCreator 2.0

  0  0  0  0  0  0              0 V3000
M  V30 BEGIN CTAB
M  V30 COUNTS 40 44 0 0 0
M  V30 BEGIN ATOM
M  V30 1 F 0.0 0.0 0.0 0
M  V30 2 C -1.3409 -0.6587 0.0 0
M  V30 3 F -0.6822 -1.9761 0.0 0
M  V30 4 F -2.0232 0.6822 0.0 0
M  V30 5 C -2.6819 -1.3174 0.0 0
M  V30 6 C -3.9405 -0.4822 0.0 0
M  V30 7 C -2.776 -2.7995 0.0 0
M  V30 8 C -5.2815 -1.1409 0.0 0
M  V30 9 C -4.117 -3.4582 0.0 0
M  V30 10 C -6.5401 -0.3058 0.0 0
M  V30 11 C -5.3756 -2.6231 0.0 0
M  V30 12 O -7.8811 -0.9645 0.0 0
M  V30 13 N -6.4695 1.1998 0.0 0
M  V30 14 C -7.7282 2.0349 0.0 0
M  V30 15 C -9.0691 1.3762 0.0 0
M  V30 16 C -7.6576 3.5406 0.0 0
M  V30 17 C -10.3278 2.2114 0.0 0
M  V30 18 C -8.9162 4.3757 0.0 0
M  V30 19 N -11.6687 1.5527 0.0 0
M  V30 20 C -10.2572 3.717 0.0 0
M  V30 21 C -12.9274 2.3878 0.0 0
M  V30 22 C -11.7628 0.0705 0.0 0
M  V30 23 C -11.5158 4.5522 0.0 0
M  V30 24 O -12.8568 3.8935 0.0 0
M  V30 25 N -14.2683 1.7291 0.0 0
M  V30 26 C -13.1038 -0.5881 0.0 0
M  V30 27 C -14.3624 0.247 0.0 0
M  V30 28 C -15.527 2.5643 0.0 0
M  V30 29 C -13.1979 -2.0702 0.0 0
M  V30 30 N -15.7034 -0.4117 0.0 0
M  V30 31 N -14.5389 -2.7289 0.0 0
M  V30 32 C -15.7975 -1.8938 0.0 0
M  V30 33 N -17.1385 -2.5525 0.0 0
M  V30 34 C -18.3971 -1.7173 0.0 0
M  V30 35 C -19.7381 -2.3761 0.0 0
M  V30 36 C -18.3265 -0.2117 0.0 0
M  V30 37 N -20.9967 -1.5409 0.0 0
M  V30 38 C -19.5851 0.6234 0.0 0
M  V30 39 C -20.9261 -0.0352 0.0 0
M  V30 40 C -22.1847 0.7998 0.0 0
M  V30 END ATOM
M  V30 BEGIN BOND
M  V30 1 1 1 2
M  V30 2 1 2 3
M  V30 3 1 2 4
M  V30 4 1 2 5
M  V30 5 2 5 6
M  V30 6 1 5 7
M  V30 7 1 6 8
M  V30 8 2 7 9
M  V30 9 1 8 10
M  V30 10 2 8 11
M  V30 11 2 10 12
M  V30 12 1 10 13
M  V30 13 1 13 14
M  V30 14 2 14 15
M  V30 15 1 14 16
M  V30 16 1 15 17
M  V30 17 2 16 18
M  V30 18 1 17 19
M  V30 19 2 17 20
M  V30 20 1 19 21
M  V30 21 1 19 22
M  V30 22 1 20 23
M  V30 23 2 21 24
M  V30 24 1 21 25
M  V30 25 1 22 26
M  V30 26 1 25 27
M  V30 27 1 25 28
M  V30 28 1 26 29
M  V30 29 1 27 30
M  V30 30 2 29 31
M  V30 31 2 30 32
M  V30 32 1 32 33
M  V30 33 1 33 34
M  V30 34 2 34 35
M  V30 35 1 34 36
M  V30 36 1 35 37
M  V30 37 2 36 38
M  V30 38 2 37 39
M  V30 39 1 39 40
M  V30 40 1 9 11
M  V30 41 1 18 20
M  V30 42 2 26 27
M  V30 43 1 31 32
M  V30 44 1 38 39
M  V30 END BOND
M  V30 END CTAB
M  END
>  <Compound ID>
222

>  <Name>
GNF-7

>  <Uniprot>
P07947

>  <Target>
YES1

>  <Smiles>
CC1=CC=C(NC2=NC=C3CN(C4=CC(NC(=O)C5=CC=CC(C(F)(F)F)=C5)=CC=C4C)C(=O)N(C)C3=N2)C=N1

>  <Kd (nM)>


>  <Assay (Kd)>


>  <Ki (nM)>


>  <Assay (Ki)>


>  <IC50 (nM)>


>  <Assay (IC50)>


>  <EC50 (nM)>


>  <Assay (EC50)>


>  <Article DOI>


>  <Molecular Weight>
547.541

>  <Exact Mass>
547.194357668

>  <XLogP3>
4.33

>  <Heavy Atom Count>
40

>  <Ring Count>
5

>  <Hydrogen Bond Acceptor Count>
6

>  <Hydrogen Bond Donor Count>
2

>  <Rotatable Bond Count>
5

>  <Topological Polar Surface Area>
103.35

>  <Molecular Formula>
C28H24F3N7O2

>  <InChI>
InChI=1S/C28H24F3N7O2/c1-16-7-9-21(34-25(39)18-5-4-6-20(11-18)28(29,30)31)12-23(16)38-15-19-13-33-26(36-24(19)37(3)27(38)40)35-22-10-8-17(2)32-14-22/h4-14H,15H2,1-3H3,(H,34,39)(H,33,35,36)

>  <InChI Key>
SZNYUUZOQHNEKB-UHFFFAOYSA-N

>  <BindingDB>
50323777

>  <PubChem>
11478363

>  <ChEMBL>
CHEMBL1214141

$$$$
Compound 802
Actelion Java MolfileCreator 2.0

  0  0  0  0  0  0              0 V3000
M  V30 BEGIN CTAB
M  V30 COUNTS 34 37 0 0 0
M  V30 BEGIN ATOM
M  V30 1 O 0.0 0.0 0.0 0
M  V30 2 C 1.3306 0.6712 0.0 0
M  V30 3 N 1.4131 2.1785 0.0 0
M  V30 4 C 2.5671 -0.153 0.0 0
M  V30 5 C 2.7438 2.8498 0.0 0
M  V30 6 C 0.153 3.0264 0.0 0
M  V30 7 C 3.8978 0.5181 0.0 0
M  V30 8 C 2.4611 -1.6368 0.0 0
M  V30 9 N 3.9803 2.0254 0.0 0
M  V30 10 C 5.1343 -0.3061 0.0 0
M  V30 11 C 3.6976 -2.4611 0.0 0
M  V30 12 C 5.0283 -1.7899 0.0 0
M  V30 13 N 3.5916 -3.9449 0.0 0
M  V30 14 C 2.2374 -4.5926 0.0 0
M  V30 15 C 2.1314 -6.0764 0.0 0
M  V30 16 C 0.9774 -3.7447 0.0 0
M  V30 17 C 0.7772 -6.7241 0.0 0
M  V30 18 C 3.3679 -6.9007 0.0 0
M  V30 19 C -0.3768 -4.3924 0.0 0
M  V30 20 C -0.4828 -5.8762 0.0 0
M  V30 21 N -1.6368 -3.5445 0.0 0
M  V30 22 C -1.5544 -2.0372 0.0 0
M  V30 23 O -0.2237 -1.366 0.0 0
M  V30 24 C -2.8144 -1.1893 0.0 0
M  V30 25 C -4.1687 -1.837 0.0 0
M  V30 26 C -2.732 0.3179 0.0 0
M  V30 27 C -5.4287 -0.9891 0.0 0
M  V30 28 C -3.992 1.1658 0.0 0
M  V30 29 C -5.3463 0.5181 0.0 0
M  V30 30 C -6.783 -1.6368 0.0 0
M  V30 31 C -8.1372 -2.2845 0.0 0
M  V30 32 C -6.1353 -2.9675 0.0 0
M  V30 33 C -7.4542 -0.2826 0.0 0
M  V30 34 N -9.4914 -2.9322 0.0 0
M  V30 END ATOM
M  V30 BEGIN BOND
M  V30 1 2 1 2
M  V30 2 1 2 3
M  V30 3 1 2 4
M  V30 4 1 3 5
M  V30 5 1 3 6
M  V30 6 2 4 7
M  V30 7 1 4 8
M  V30 8 2 5 9
M  V30 9 1 7 10
M  V30 10 2 8 11
M  V30 11 2 10 12
M  V30 12 1 11 13
M  V30 13 1 13 14
M  V30 14 2 14 15
M  V30 15 1 14 16
M  V30 16 1 15 17
M  V30 17 1 15 18
M  V30 18 2 16 19
M  V30 19 2 17 20
M  V30 20 1 19 21
M  V30 21 1 21 22
M  V30 22 2 22 23
M  V30 23 1 22 24
M  V30 24 2 24 25
M  V30 25 1 24 26
M  V30 26 1 25 27
M  V30 27 2 26 28
M  V30 28 2 27 29
M  V30 29 1 27 30
M  V30 30 1 30 31
M  V30 31 1 30 32
M  V30 32 1 30 33
M  V30 33 3 31 34
M  V30 34 1 7 9
M  V30 35 1 11 12
M  V30 36 1 19 20
M  V30 37 1 28 29
M  V30 END BOND
M  V30 END CTAB
M  END
>  <Compound ID>
223

>  <Name>
AZ628

>  <Uniprot>
Q16539

>  <Target>
p38alpha

>  <Smiles>
CC1=CC=C(NC(=O)C2=CC=CC(C(C)(C)C#N)=C2)C=C1NC1=CC=C2N=CN(C)C(=O)C2=C1

>  <Kd (nM)>


>  <Assay (Kd)>


>  <Ki (nM)>


>  <Assay (Ki)>


>  <IC50 (nM)>


>  <Assay (IC50)>


>  <EC50 (nM)>


>  <Assay (EC50)>


>  <Article DOI>
10.1016/j.cell.2020.10.038

>  <Molecular Weight>
451.53

>  <Exact Mass>
451.20082504

>  <XLogP3>
4.22

>  <Heavy Atom Count>
34

>  <Ring Count>
4

>  <Hydrogen Bond Acceptor Count>
6

>  <Hydrogen Bond Donor Count>
2

>  <Rotatable Bond Count>
5

>  <Topological Polar Surface Area>
99.81

>  <Molecular Formula>
C27H25N5O2

>  <InChI>
InChI=1S/C27H25N5O2/c1-17-8-9-21(31-25(33)18-6-5-7-19(12-18)27(2,3)15-28)14-24(17)30-20-10-11-23-22(13-20)26(34)32(4)16-29-23/h5-14,16,30H,1-4H3,(H,31,33)

>  <InChI Key>
ZGBGPEDJXCYQPH-UHFFFAOYSA-N

>  <BindingDB>
50430022

>  <PubChem>
11676786

>  <ChEMBL>
CHEMBL2144069

$$$$
Compound 803
Actelion Java MolfileCreator 2.0

  0  0  0  0  0  0              0 V3000
M  V30 BEGIN CTAB
M  V30 COUNTS 23 25 0 0 0
M  V30 BEGIN ATOM
M  V30 1 O 0.0 0.0 0.0 0
M  V30 2 C -1.5105 -0.1062 0.0 0
M  V30 3 N -2.1714 -1.4515 0.0 0
M  V30 4 C -2.372 1.1447 0.0 0
M  V30 5 N -1.8882 2.5727 0.0 0
M  V30 6 C -3.8826 1.1919 0.0 0
M  V30 7 N -0.5192 3.1627 0.0 0
M  V30 8 C -3.0919 3.4932 0.0 0
M  V30 9 N -4.3193 2.6435 0.0 0
M  V30 10 C -0.3304 4.6615 0.0 0
M  V30 11 C -2.9031 4.9919 0.0 0
M  V30 12 N 1.0385 5.2516 0.0 0
M  V30 13 C -1.5341 5.582 0.0 0
M  V30 14 N -4.1068 5.9124 0.0 0
M  V30 15 C 2.2186 4.3547 0.0 0
M  V30 16 C -3.918 7.4112 0.0 0
M  V30 17 C 2.0062 2.8795 0.0 0
M  V30 18 C 3.5876 4.9447 0.0 0
M  V30 19 C 3.1863 1.9826 0.0 0
M  V30 20 C 4.7677 4.0478 0.0 0
M  V30 21 C 4.5553 2.5727 0.0 0
M  V30 22 C 2.9739 0.5074 0.0 0
M  V30 23 C 6.1367 4.6379 0.0 0
M  V30 END ATOM
M  V30 BEGIN BOND
M  V30 1 2 1 2
M  V30 2 1 2 3
M  V30 3 1 2 4
M  V30 4 1 4 5
M  V30 5 2 4 6
M  V30 6 1 5 7
M  V30 7 1 5 8
M  V30 8 1 6 9
M  V30 9 2 7 10
M  V30 10 1 8 11
M  V30 11 1 10 12
M  V30 12 1 10 13
M  V30 13 1 11 14
M  V30 14 1 12 15
M  V30 15 1 14 16
M  V30 16 2 15 17
M  V30 17 1 15 18
M  V30 18 1 17 19
M  V30 19 2 18 20
M  V30 20 2 19 21
M  V30 21 1 19 22
M  V30 22 1 20 23
M  V30 23 2 8 9
M  V30 24 2 11 13
M  V30 25 1 20 21
M  V30 END BOND
M  V30 END CTAB
M  END
>  <Compound ID>
224

>  <Name>
TYK2-IN-2

>  <Uniprot>
P31749

>  <Target>
AKT1

>  <Smiles>
CNC1=CC(NC2=CC(C)=CC(C)=C2)=NN2C(C(N)=O)=CN=C12

>  <Kd (nM)>


>  <Assay (Kd)>


>  <Ki (nM)>


>  <Assay (Ki)>


>  <IC50 (nM)>


>  <Assay (IC50)>


>  <EC50 (nM)>


>  <Assay (EC50)>


>  <Article DOI>
10.1016/j.cell.2020.10.038

>  <Molecular Weight>
310.361

>  <Exact Mass>
310.154209196

>  <XLogP3>
2.12

>  <Heavy Atom Count>
23

>  <Ring Count>
3

>  <Hydrogen Bond Acceptor Count>
6

>  <Hydrogen Bond Donor Count>
3

>  <Rotatable Bond Count>
4

>  <Topological Polar Surface Area>
97.34

>  <Molecular Formula>
C16H18N6O

>  <InChI>
InChI=1S/C16H18N6O/c1-9-4-10(2)6-11(5-9)20-14-7-12(18-3)16-19-8-13(15(17)23)22(16)21-14/h4-8,18H,1-3H3,(H2,17,23)(H,20,21)

>  <InChI Key>
SNVFFECYFQEWTL-UHFFFAOYSA-N

>  <BindingDB>


>  <PubChem>
129626433

>  <ChEMBL>
CHEMBL4279157

$$$$
Compound 804
Actelion Java MolfileCreator 2.0

  0  0  0  0  0  0              0 V3000
M  V30 BEGIN CTAB
M  V30 COUNTS 23 25 0 0 0
M  V30 BEGIN ATOM
M  V30 1 O 0.0 0.0 0.0 0
M  V30 2 C -1.5105 -0.1062 0.0 0
M  V30 3 N -2.1714 -1.4515 0.0 0
M  V30 4 C -2.372 1.1447 0.0 0
M  V30 5 N -1.8882 2.5727 0.0 0
M  V30 6 C -3.8826 1.1919 0.0 0
M  V30 7 N -0.5192 3.1627 0.0 0
M  V30 8 C -3.0919 3.4932 0.0 0
M  V30 9 N -4.3193 2.6435 0.0 0
M  V30 10 C -0.3304 4.6615 0.0 0
M  V30 11 C -2.9031 4.9919 0.0 0
M  V30 12 N 1.0385 5.2516 0.0 0
M  V30 13 C -1.5341 5.582 0.0 0
M  V30 14 N -4.1068 5.9124 0.0 0
M  V30 15 C 2.2186 4.3547 0.0 0
M  V30 16 C -3.918 7.4112 0.0 0
M  V30 17 C 2.0062 2.8795 0.0 0
M  V30 18 C 3.5876 4.9447 0.0 0
M  V30 19 C 3.1863 1.9826 0.0 0
M  V30 20 C 4.7677 4.0478 0.0 0
M  V30 21 C 4.5553 2.5727 0.0 0
M  V30 22 C 2.9739 0.5074 0.0 0
M  V30 23 C 6.1367 4.6379 0.0 0
M  V30 END ATOM
M  V30 BEGIN BOND
M  V30 1 2 1 2
M  V30 2 1 2 3
M  V30 3 1 2 4
M  V30 4 1 4 5
M  V30 5 2 4 6
M  V30 6 1 5 7
M  V30 7 1 5 8
M  V30 8 1 6 9
M  V30 9 2 7 10
M  V30 10 1 8 11
M  V30 11 1 10 12
M  V30 12 1 10 13
M  V30 13 1 11 14
M  V30 14 1 12 15
M  V30 15 1 14 16
M  V30 16 2 15 17
M  V30 17 1 15 18
M  V30 18 1 17 19
M  V30 19 2 18 20
M  V30 20 2 19 21
M  V30 21 1 19 22
M  V30 22 1 20 23
M  V30 23 2 8 9
M  V30 24 2 11 13
M  V30 25 1 20 21
M  V30 END BOND
M  V30 END CTAB
M  END
>  <Compound ID>
224

>  <Name>
TYK2-IN-2

>  <Uniprot>
P31751

>  <Target>
AKT2

>  <Smiles>
CNC1=CC(NC2=CC(C)=CC(C)=C2)=NN2C(C(N)=O)=CN=C12

>  <Kd (nM)>


>  <Assay (Kd)>


>  <Ki (nM)>


>  <Assay (Ki)>


>  <IC50 (nM)>


>  <Assay (IC50)>


>  <EC50 (nM)>


>  <Assay (EC50)>


>  <Article DOI>
10.1016/j.cell.2020.10.038

>  <Molecular Weight>
310.361

>  <Exact Mass>
310.154209196

>  <XLogP3>
2.12

>  <Heavy Atom Count>
23

>  <Ring Count>
3

>  <Hydrogen Bond Acceptor Count>
6

>  <Hydrogen Bond Donor Count>
3

>  <Rotatable Bond Count>
4

>  <Topological Polar Surface Area>
97.34

>  <Molecular Formula>
C16H18N6O

>  <InChI>
InChI=1S/C16H18N6O/c1-9-4-10(2)6-11(5-9)20-14-7-12(18-3)16-19-8-13(15(17)23)22(16)21-14/h4-8,18H,1-3H3,(H2,17,23)(H,20,21)

>  <InChI Key>
SNVFFECYFQEWTL-UHFFFAOYSA-N

>  <BindingDB>


>  <PubChem>
129626433

>  <ChEMBL>
CHEMBL4279157

$$$$
Compound 805
Actelion Java MolfileCreator 2.0

  0  0  0  0  0  0              0 V3000
M  V30 BEGIN CTAB
M  V30 COUNTS 23 25 0 0 0
M  V30 BEGIN ATOM
M  V30 1 O 0.0 0.0 0.0 0
M  V30 2 C -1.5105 -0.1062 0.0 0
M  V30 3 N -2.1714 -1.4515 0.0 0
M  V30 4 C -2.372 1.1447 0.0 0
M  V30 5 N -1.8882 2.5727 0.0 0
M  V30 6 C -3.8826 1.1919 0.0 0
M  V30 7 N -0.5192 3.1627 0.0 0
M  V30 8 C -3.0919 3.4932 0.0 0
M  V30 9 N -4.3193 2.6435 0.0 0
M  V30 10 C -0.3304 4.6615 0.0 0
M  V30 11 C -2.9031 4.9919 0.0 0
M  V30 12 N 1.0385 5.2516 0.0 0
M  V30 13 C -1.5341 5.582 0.0 0
M  V30 14 N -4.1068 5.9124 0.0 0
M  V30 15 C 2.2186 4.3547 0.0 0
M  V30 16 C -3.918 7.4112 0.0 0
M  V30 17 C 2.0062 2.8795 0.0 0
M  V30 18 C 3.5876 4.9447 0.0 0
M  V30 19 C 3.1863 1.9826 0.0 0
M  V30 20 C 4.7677 4.0478 0.0 0
M  V30 21 C 4.5553 2.5727 0.0 0
M  V30 22 C 2.9739 0.5074 0.0 0
M  V30 23 C 6.1367 4.6379 0.0 0
M  V30 END ATOM
M  V30 BEGIN BOND
M  V30 1 2 1 2
M  V30 2 1 2 3
M  V30 3 1 2 4
M  V30 4 1 4 5
M  V30 5 2 4 6
M  V30 6 1 5 7
M  V30 7 1 5 8
M  V30 8 1 6 9
M  V30 9 2 7 10
M  V30 10 1 8 11
M  V30 11 1 10 12
M  V30 12 1 10 13
M  V30 13 1 11 14
M  V30 14 1 12 15
M  V30 15 1 14 16
M  V30 16 2 15 17
M  V30 17 1 15 18
M  V30 18 1 17 19
M  V30 19 2 18 20
M  V30 20 2 19 21
M  V30 21 1 19 22
M  V30 22 1 20 23
M  V30 23 2 8 9
M  V30 24 2 11 13
M  V30 25 1 20 21
M  V30 END BOND
M  V30 END CTAB
M  END
>  <Compound ID>
224

>  <Name>
TYK2-IN-2

>  <Uniprot>
Q9Y243

>  <Target>
AKT3

>  <Smiles>
CNC1=CC(NC2=CC(C)=CC(C)=C2)=NN2C(C(N)=O)=CN=C12

>  <Kd (nM)>


>  <Assay (Kd)>


>  <Ki (nM)>


>  <Assay (Ki)>


>  <IC50 (nM)>


>  <Assay (IC50)>


>  <EC50 (nM)>


>  <Assay (EC50)>


>  <Article DOI>
10.1016/j.cell.2020.10.038

>  <Molecular Weight>
310.361

>  <Exact Mass>
310.154209196

>  <XLogP3>
2.12

>  <Heavy Atom Count>
23

>  <Ring Count>
3

>  <Hydrogen Bond Acceptor Count>
6

>  <Hydrogen Bond Donor Count>
3

>  <Rotatable Bond Count>
4

>  <Topological Polar Surface Area>
97.34

>  <Molecular Formula>
C16H18N6O

>  <InChI>
InChI=1S/C16H18N6O/c1-9-4-10(2)6-11(5-9)20-14-7-12(18-3)16-19-8-13(15(17)23)22(16)21-14/h4-8,18H,1-3H3,(H2,17,23)(H,20,21)

>  <InChI Key>
SNVFFECYFQEWTL-UHFFFAOYSA-N

>  <BindingDB>


>  <PubChem>
129626433

>  <ChEMBL>
CHEMBL4279157

$$$$
Compound 806
Actelion Java MolfileCreator 2.0

  0  0  0  0  0  0              0 V3000
M  V30 BEGIN CTAB
M  V30 COUNTS 28 31 0 0 0
M  V30 BEGIN ATOM
M  V30 1 F 0.0 0.0 0.0 0
M  V30 2 C -1.4728 -0.3534 0.0 0
M  V30 3 C -1.8969 -1.7791 0.0 0
M  V30 4 C -2.5214 0.7423 0.0 0
M  V30 5 N -0.8719 -2.8513 0.0 0
M  V30 6 C -3.3698 -2.1326 0.0 0
M  V30 7 C -3.9942 0.3888 0.0 0
M  V30 8 C 0.5773 -2.4743 0.0 0
M  V30 9 C -4.4184 -1.0368 0.0 0
M  V30 10 O 0.9779 -1.025 0.0 0
M  V30 11 N 1.6024 -3.5465 0.0 0
M  V30 12 C -5.8912 -1.3903 0.0 0
M  V30 13 C 3.0516 -3.1695 0.0 0
M  V30 14 C 4.0767 -4.2417 0.0 0
M  V30 15 C 3.4522 -1.7202 0.0 0
M  V30 16 C 5.526 -3.8646 0.0 0
M  V30 17 C 4.9015 -1.3432 0.0 0
M  V30 18 C 5.9266 -2.4154 0.0 0
M  V30 19 C 7.3758 -2.0383 0.0 0
M  V30 20 C 7.7765 -0.5891 0.0 0
M  V30 21 C 8.4009 -3.1106 0.0 0
M  V30 22 C 6.9752 0.6951 0.0 0
M  V30 23 C 9.2257 -0.212 0.0 0
M  V30 24 C 9.8502 -2.7335 0.0 0
M  V30 25 N 7.9296 1.8498 0.0 0
M  V30 26 N 5.4671 0.8129 0.0 0
M  V30 27 N 9.32 1.296 0.0 0
M  V30 28 C 10.2508 -1.2843 0.0 0
M  V30 END ATOM
M  V30 BEGIN BOND
M  V30 1 1 1 2
M  V30 2 2 2 3
M  V30 3 1 2 4
M  V30 4 1 3 5
M  V30 5 1 3 6
M  V30 6 2 4 7
M  V30 7 1 5 8
M  V30 8 2 6 9
M  V30 9 2 8 10
M  V30 10 1 8 11
M  V30 11 1 9 12
M  V30 12 1 11 13
M  V30 13 2 13 14
M  V30 14 1 13 15
M  V30 15 1 14 16
M  V30 16 2 15 17
M  V30 17 2 16 18
M  V30 18 1 18 19
M  V30 19 2 19 20
M  V30 20 1 19 21
M  V30 21 1 20 22
M  V30 22 1 20 23
M  V30 23 2 21 24
M  V30 24 2 22 25
M  V30 25 1 22 26
M  V30 26 1 23 27
M  V30 27 2 23 28
M  V30 28 1 7 9
M  V30 29 1 17 18
M  V30 30 1 24 28
M  V30 31 1 25 27
M  V30 END BOND
M  V30 END CTAB
M  END
>  <Compound ID>
225

>  <Name>
Linifanib

>  <Uniprot>
P35968

>  <Target>
VEGFR-2

>  <Smiles>
CC1=CC=C(F)C(NC(=O)NC2=CC=C(C3=CC=CC4=C3C(N)=N[NH]4)C=C2)=C1

>  <Kd (nM)>


>  <Assay (Kd)>


>  <Ki (nM)>


>  <Assay (Ki)>


>  <IC50 (nM)>
8.404

>  <Assay (IC50)>
IC50 was assessed by ADP-Glo Kinase Assay Kit

>  <EC50 (nM)>


>  <Assay (EC50)>


>  <Article DOI>
10.1016/j.ejmech.2020.112654

>  <Molecular Weight>
375.407

>  <Exact Mass>
375.149538416

>  <XLogP3>
3.86

>  <Heavy Atom Count>
28

>  <Ring Count>
4

>  <Hydrogen Bond Acceptor Count>
3

>  <Hydrogen Bond Donor Count>
4

>  <Rotatable Bond Count>
3

>  <Topological Polar Surface Area>
95.83

>  <Molecular Formula>
C21H18FN5O

>  <InChI>
InChI=1S/C21H18FN5O/c1-12-5-10-16(22)18(11-12)25-21(28)24-14-8-6-13(7-9-14)15-3-2-4-17-19(15)20(23)27-26-17/h2-11H,1H3,(H3,23,26,27)(H2,24,25,28)

>  <InChI Key>
MPVGZUGXCQEXTM-UHFFFAOYSA-N

>  <BindingDB>
21079

>  <PubChem>
11485656

>  <ChEMBL>
CHEMBL223360

$$$$
Compound 807
Actelion Java MolfileCreator 2.0

  0  0  0  0  0  0              0 V3000
M  V30 BEGIN CTAB
M  V30 COUNTS 39 42 0 0 0
M  V30 BEGIN ATOM
M  V30 1 F 0.0 0.0 0.0 0
M  V30 2 C 1.4886 0.189 0.0 0
M  V30 3 F 1.2996 1.7013 0.0 0
M  V30 4 F 1.654 -1.2996 0.0 0
M  V30 5 C 2.9772 0.378 0.0 0
M  V30 6 C 3.8633 -0.8152 0.0 0
M  V30 7 C 3.568 1.7721 0.0 0
M  V30 8 N 3.249 -2.1857 0.0 0
M  V30 9 C 5.352 -0.6261 0.0 0
M  V30 10 N 5.0566 1.9612 0.0 0
M  V30 11 C 4.1351 -3.3789 0.0 0
M  V30 12 C 5.9427 0.7679 0.0 0
M  V30 13 C 3.5207 -4.7494 0.0 0
M  V30 14 C 5.6237 -3.1899 0.0 0
M  V30 15 N 7.4313 0.9569 0.0 0
M  V30 16 C 2.0084 -4.9148 0.0 0
M  V30 17 C 4.4068 -5.9427 0.0 0
M  V30 18 C 6.5098 -4.3832 0.0 0
M  V30 19 C 8.3174 -0.2362 0.0 0
M  V30 20 O 1.0987 -3.6979 0.0 0
M  V30 21 N 1.3941 -6.2853 0.0 0
M  V30 22 C 5.8954 -5.7537 0.0 0
M  V30 23 C 9.8061 -0.0472 0.0 0
M  V30 24 C 7.7031 -1.6067 0.0 0
M  V30 25 C -0.1181 -6.4507 0.0 0
M  V30 26 O 10.3968 1.3468 0.0 0
M  V30 27 C 10.6922 -1.2405 0.0 0
M  V30 28 C 8.5892 -2.8 0.0 0
M  V30 29 C 11.8855 1.5358 0.0 0
M  V30 30 C 10.0778 -2.611 0.0 0
M  V30 31 C 7.9748 -4.1705 0.0 0
M  V30 32 C 12.4762 2.93 0.0 0
M  V30 33 C 12.7715 0.3426 0.0 0
M  V30 34 C 10.9639 -3.8043 0.0 0
M  V30 35 C 10.3496 -5.1748 0.0 0
M  V30 36 C 12.4526 -3.6152 0.0 0
M  V30 37 C 11.2356 -6.368 0.0 0
M  V30 38 C 13.3386 -4.8085 0.0 0
M  V30 39 N 12.7243 -6.179 0.0 0
M  V30 END ATOM
M  V30 BEGIN BOND
M  V30 1 1 1 2
M  V30 2 1 2 3
M  V30 3 1 2 4
M  V30 4 1 2 5
M  V30 5 2 5 6
M  V30 6 1 5 7
M  V30 7 1 6 8
M  V30 8 1 6 9
M  V30 9 2 7 10
M  V30 10 1 8 11
M  V30 11 2 9 12
M  V30 12 2 11 13
M  V30 13 1 11 14
M  V30 14 1 12 15
M  V30 15 1 13 16
M  V30 16 1 13 17
M  V30 17 2 14 18
M  V30 18 1 15 19
M  V30 19 2 16 20
M  V30 20 1 16 21
M  V30 21 2 17 22
M  V30 22 2 19 23
M  V30 23 1 19 24
M  V30 24 1 21 25
M  V30 25 1 23 26
M  V30 26 1 23 27
M  V30 27 2 24 28
M  V30 28 1 26 29
M  V30 29 2 27 30
M  V30 30 1 28 31
M  V30 31 1 29 32
M  V30 32 1 29 33
M  V30 33 1 30 34
M  V30 34 1 34 35
M  V30 35 1 34 36
M  V30 36 1 35 37
M  V30 37 1 36 38
M  V30 38 1 37 39
M  V30 39 1 10 12
M  V30 40 1 18 22
M  V30 41 1 28 30
M  V30 42 1 38 39
M  V30 END BOND
M  V30 END CTAB
M  END
>  <Compound ID>
226

>  <Name>


>  <Uniprot>
Q05397

>  <Target>
FAK

>  <Smiles>
CNC(=O)C1=CC=CC=C1NC1=CC(NC2=CC(C)=C(C3CCNCC3)C=C2OC(C)C)=NC=C1C(F)(F)F

>  <Kd (nM)>


>  <Assay (Kd)>


>  <Ki (nM)>


>  <Assay (Ki)>


>  <IC50 (nM)>


>  <Assay (IC50)>


>  <EC50 (nM)>


>  <Assay (EC50)>


>  <Article DOI>


>  <Molecular Weight>
541.618

>  <Exact Mass>
541.266459988

>  <XLogP3>
6.23

>  <Heavy Atom Count>
39

>  <Ring Count>
4

>  <Hydrogen Bond Acceptor Count>
6

>  <Hydrogen Bond Donor Count>
4

>  <Rotatable Bond Count>
8

>  <Topological Polar Surface Area>
87.31

>  <Molecular Formula>
C29H34F3N5O2

>  <InChI>
InChI=1S/C29H34F3N5O2/c1-17(2)39-26-14-21(19-9-11-34-12-10-19)18(3)13-25(26)37-27-15-24(22(16-35-27)29(30,31)32)36-23-8-6-5-7-20(23)28(38)33-4/h5-8,13-17,19,34H,9-12H2,1-4H3,(H,33,38)(H2,35,36,37)

>  <InChI Key>
DRSVKEXHFXXQEV-UHFFFAOYSA-N

>  <BindingDB>


>  <PubChem>
153555645

>  <ChEMBL>


$$$$
Compound 808
Actelion Java MolfileCreator 2.0

  0  0  0  0  0  0              0 V3000
M  V30 BEGIN CTAB
M  V30 COUNTS 36 39 0 0 0
M  V30 BEGIN ATOM
M  V30 1 S 0.0 0.0 0.0 0
M  V30 2 O 0.561 1.3908 0.0 0
M  V30 3 O -0.5843 -1.3674 0.0 0
M  V30 4 N 1.3674 -0.561 0.0 0
M  V30 5 C -1.3908 0.5843 0.0 0
M  V30 6 C 2.5479 0.3623 0.0 0
M  V30 7 C -2.5947 -0.3155 0.0 0
M  V30 8 C -1.5895 2.0804 0.0 0
M  V30 9 C 3.4479 -0.8181 0.0 0
M  V30 10 C 1.6246 1.5661 0.0 0
M  V30 11 C 3.7284 1.2856 0.0 0
M  V30 12 C -3.9855 0.2688 0.0 0
M  V30 13 C -2.9804 2.6648 0.0 0
M  V30 14 N -5.1894 -0.6311 0.0 0
M  V30 15 C -4.1842 1.7648 0.0 0
M  V30 16 C -6.5802 -0.0467 0.0 0
M  V30 17 N -6.7789 1.4492 0.0 0
M  V30 18 C -7.7841 -0.9467 0.0 0
M  V30 19 C -8.1698 2.0336 0.0 0
M  V30 20 C -9.1749 -0.3623 0.0 0
M  V30 21 C -7.6088 -2.4193 0.0 0
M  V30 22 N -9.3736 1.1337 0.0 0
M  V30 23 N -8.3685 3.5297 0.0 0
M  V30 24 C -7.188 4.453 0.0 0
M  V30 25 C -5.8205 3.892 0.0 0
M  V30 26 C -7.3867 5.9491 0.0 0
M  V30 27 C -4.64 4.8154 0.0 0
M  V30 28 C -6.2062 6.8724 0.0 0
M  V30 29 C -4.8387 6.3114 0.0 0
M  V30 30 N -3.6583 7.2347 0.0 0
M  V30 31 C -2.2908 6.6737 0.0 0
M  V30 32 C -3.8569 8.7308 0.0 0
M  V30 33 C -1.1103 7.5971 0.0 0
M  V30 34 C -2.6765 9.6541 0.0 0
M  V30 35 N -1.309 9.0931 0.0 0
M  V30 36 C -0.1285 10.0165 0.0 0
M  V30 END ATOM
M  V30 BEGIN BOND
M  V30 1 2 1 2
M  V30 2 2 1 3
M  V30 3 1 1 4
M  V30 4 1 1 5
M  V30 5 1 4 6
M  V30 6 2 5 7
M  V30 7 1 5 8
M  V30 8 1 6 9
M  V30 9 1 6 10
M  V30 10 1 6 11
M  V30 11 1 7 12
M  V30 12 2 8 13
M  V30 13 1 12 14
M  V30 14 2 12 15
M  V30 15 1 14 16
M  V30 16 2 16 17
M  V30 17 1 16 18
M  V30 18 1 17 19
M  V30 19 2 18 20
M  V30 20 1 18 21
M  V30 21 2 19 22
M  V30 22 1 19 23
M  V30 23 1 23 24
M  V30 24 2 24 25
M  V30 25 1 24 26
M  V30 26 1 25 27
M  V30 27 2 26 28
M  V30 28 2 27 29
M  V30 29 1 29 30
M  V30 30 1 30 31
M  V30 31 1 30 32
M  V30 32 1 31 33
M  V30 33 1 32 34
M  V30 34 1 33 35
M  V30 35 1 35 36
M  V30 36 1 13 15
M  V30 37 1 20 22
M  V30 38 1 28 29
M  V30 39 1 34 35
M  V30 END BOND
M  V30 END CTAB
M  END
>  <Compound ID>
227

>  <Name>
TG101209

>  <Uniprot>
Q2M2I8

>  <Target>
AAK1

>  <Smiles>
CC1=CN=C(NC2=CC=C(N3CCN(C)CC3)C=C2)N=C1NC1=CC=CC(S(=O)(=O)NC(C)(C)C)=C1

>  <Kd (nM)>


>  <Assay (Kd)>


>  <Ki (nM)>


>  <Assay (Ki)>


>  <IC50 (nM)>


>  <Assay (IC50)>


>  <EC50 (nM)>


>  <Assay (EC50)>


>  <Article DOI>
10.1016/j.cell.2020.10.038

>  <Molecular Weight>
509.68

>  <Exact Mass>
509.25729436

>  <XLogP3>
4.2

>  <Heavy Atom Count>
36

>  <Ring Count>
4

>  <Hydrogen Bond Acceptor Count>
8

>  <Hydrogen Bond Donor Count>
3

>  <Rotatable Bond Count>
7

>  <Topological Polar Surface Area>
102.49

>  <Molecular Formula>
C26H35N7O2S

>  <InChI>
InChI=1S/C26H35N7O2S/c1-19-18-27-25(29-20-9-11-22(12-10-20)33-15-13-32(5)14-16-33)30-24(19)28-21-7-6-8-23(17-21)36(34,35)31-26(2,3)4/h6-12,17-18,31H,13-16H2,1-5H3,(H2,27,28,29,30)

>  <InChI Key>
JVDOKQYTTYUYDV-UHFFFAOYSA-N

>  <BindingDB>
192755

>  <PubChem>
16722832

>  <ChEMBL>
CHEMBL1995703

$$$$
Compound 809
Actelion Java MolfileCreator 2.0

  0  0  0  0  0  0              0 V3000
M  V30 BEGIN CTAB
M  V30 COUNTS 36 39 0 0 0
M  V30 BEGIN ATOM
M  V30 1 S 0.0 0.0 0.0 0
M  V30 2 O 0.561 1.3908 0.0 0
M  V30 3 O -0.5843 -1.3674 0.0 0
M  V30 4 N 1.3674 -0.561 0.0 0
M  V30 5 C -1.3908 0.5843 0.0 0
M  V30 6 C 2.5479 0.3623 0.0 0
M  V30 7 C -2.5947 -0.3155 0.0 0
M  V30 8 C -1.5895 2.0804 0.0 0
M  V30 9 C 3.4479 -0.8181 0.0 0
M  V30 10 C 1.6246 1.5661 0.0 0
M  V30 11 C 3.7284 1.2856 0.0 0
M  V30 12 C -3.9855 0.2688 0.0 0
M  V30 13 C -2.9804 2.6648 0.0 0
M  V30 14 N -5.1894 -0.6311 0.0 0
M  V30 15 C -4.1842 1.7648 0.0 0
M  V30 16 C -6.5802 -0.0467 0.0 0
M  V30 17 N -6.7789 1.4492 0.0 0
M  V30 18 C -7.7841 -0.9467 0.0 0
M  V30 19 C -8.1698 2.0336 0.0 0
M  V30 20 C -9.1749 -0.3623 0.0 0
M  V30 21 C -7.6088 -2.4193 0.0 0
M  V30 22 N -9.3736 1.1337 0.0 0
M  V30 23 N -8.3685 3.5297 0.0 0
M  V30 24 C -7.188 4.453 0.0 0
M  V30 25 C -5.8205 3.892 0.0 0
M  V30 26 C -7.3867 5.9491 0.0 0
M  V30 27 C -4.64 4.8154 0.0 0
M  V30 28 C -6.2062 6.8724 0.0 0
M  V30 29 C -4.8387 6.3114 0.0 0
M  V30 30 N -3.6583 7.2347 0.0 0
M  V30 31 C -2.2908 6.6737 0.0 0
M  V30 32 C -3.8569 8.7308 0.0 0
M  V30 33 C -1.1103 7.5971 0.0 0
M  V30 34 C -2.6765 9.6541 0.0 0
M  V30 35 N -1.309 9.0931 0.0 0
M  V30 36 C -0.1285 10.0165 0.0 0
M  V30 END ATOM
M  V30 BEGIN BOND
M  V30 1 2 1 2
M  V30 2 2 1 3
M  V30 3 1 1 4
M  V30 4 1 1 5
M  V30 5 1 4 6
M  V30 6 2 5 7
M  V30 7 1 5 8
M  V30 8 1 6 9
M  V30 9 1 6 10
M  V30 10 1 6 11
M  V30 11 1 7 12
M  V30 12 2 8 13
M  V30 13 1 12 14
M  V30 14 2 12 15
M  V30 15 1 14 16
M  V30 16 2 16 17
M  V30 17 1 16 18
M  V30 18 1 17 19
M  V30 19 2 18 20
M  V30 20 1 18 21
M  V30 21 2 19 22
M  V30 22 1 19 23
M  V30 23 1 23 24
M  V30 24 2 24 25
M  V30 25 1 24 26
M  V30 26 1 25 27
M  V30 27 2 26 28
M  V30 28 2 27 29
M  V30 29 1 29 30
M  V30 30 1 30 31
M  V30 31 1 30 32
M  V30 32 1 31 33
M  V30 33 1 32 34
M  V30 34 1 33 35
M  V30 35 1 35 36
M  V30 36 1 13 15
M  V30 37 1 20 22
M  V30 38 1 28 29
M  V30 39 1 34 35
M  V30 END BOND
M  V30 END CTAB
M  END
>  <Compound ID>
227

>  <Name>
TG101209

>  <Uniprot>
O14965

>  <Target>
AURKA

>  <Smiles>
CC1=CN=C(NC2=CC=C(N3CCN(C)CC3)C=C2)N=C1NC1=CC=CC(S(=O)(=O)NC(C)(C)C)=C1

>  <Kd (nM)>


>  <Assay (Kd)>


>  <Ki (nM)>


>  <Assay (Ki)>


>  <IC50 (nM)>


>  <Assay (IC50)>


>  <EC50 (nM)>


>  <Assay (EC50)>


>  <Article DOI>
10.1016/j.cell.2020.10.038

>  <Molecular Weight>
509.68

>  <Exact Mass>
509.25729436

>  <XLogP3>
4.2

>  <Heavy Atom Count>
36

>  <Ring Count>
4

>  <Hydrogen Bond Acceptor Count>
8

>  <Hydrogen Bond Donor Count>
3

>  <Rotatable Bond Count>
7

>  <Topological Polar Surface Area>
102.49

>  <Molecular Formula>
C26H35N7O2S

>  <InChI>
InChI=1S/C26H35N7O2S/c1-19-18-27-25(29-20-9-11-22(12-10-20)33-15-13-32(5)14-16-33)30-24(19)28-21-7-6-8-23(17-21)36(34,35)31-26(2,3)4/h6-12,17-18,31H,13-16H2,1-5H3,(H2,27,28,29,30)

>  <InChI Key>
JVDOKQYTTYUYDV-UHFFFAOYSA-N

>  <BindingDB>
192755

>  <PubChem>
16722832

>  <ChEMBL>
CHEMBL1995703

$$$$
Compound 810
Actelion Java MolfileCreator 2.0

  0  0  0  0  0  0              0 V3000
M  V30 BEGIN CTAB
M  V30 COUNTS 36 39 0 0 0
M  V30 BEGIN ATOM
M  V30 1 S 0.0 0.0 0.0 0
M  V30 2 O 0.561 1.3908 0.0 0
M  V30 3 O -0.5843 -1.3674 0.0 0
M  V30 4 N 1.3674 -0.561 0.0 0
M  V30 5 C -1.3908 0.5843 0.0 0
M  V30 6 C 2.5479 0.3623 0.0 0
M  V30 7 C -2.5947 -0.3155 0.0 0
M  V30 8 C -1.5895 2.0804 0.0 0
M  V30 9 C 3.4479 -0.8181 0.0 0
M  V30 10 C 1.6246 1.5661 0.0 0
M  V30 11 C 3.7284 1.2856 0.0 0
M  V30 12 C -3.9855 0.2688 0.0 0
M  V30 13 C -2.9804 2.6648 0.0 0
M  V30 14 N -5.1894 -0.6311 0.0 0
M  V30 15 C -4.1842 1.7648 0.0 0
M  V30 16 C -6.5802 -0.0467 0.0 0
M  V30 17 N -6.7789 1.4492 0.0 0
M  V30 18 C -7.7841 -0.9467 0.0 0
M  V30 19 C -8.1698 2.0336 0.0 0
M  V30 20 C -9.1749 -0.3623 0.0 0
M  V30 21 C -7.6088 -2.4193 0.0 0
M  V30 22 N -9.3736 1.1337 0.0 0
M  V30 23 N -8.3685 3.5297 0.0 0
M  V30 24 C -7.188 4.453 0.0 0
M  V30 25 C -5.8205 3.892 0.0 0
M  V30 26 C -7.3867 5.9491 0.0 0
M  V30 27 C -4.64 4.8154 0.0 0
M  V30 28 C -6.2062 6.8724 0.0 0
M  V30 29 C -4.8387 6.3114 0.0 0
M  V30 30 N -3.6583 7.2347 0.0 0
M  V30 31 C -2.2908 6.6737 0.0 0
M  V30 32 C -3.8569 8.7308 0.0 0
M  V30 33 C -1.1103 7.5971 0.0 0
M  V30 34 C -2.6765 9.6541 0.0 0
M  V30 35 N -1.309 9.0931 0.0 0
M  V30 36 C -0.1285 10.0165 0.0 0
M  V30 END ATOM
M  V30 BEGIN BOND
M  V30 1 2 1 2
M  V30 2 2 1 3
M  V30 3 1 1 4
M  V30 4 1 1 5
M  V30 5 1 4 6
M  V30 6 2 5 7
M  V30 7 1 5 8
M  V30 8 1 6 9
M  V30 9 1 6 10
M  V30 10 1 6 11
M  V30 11 1 7 12
M  V30 12 2 8 13
M  V30 13 1 12 14
M  V30 14 2 12 15
M  V30 15 1 14 16
M  V30 16 2 16 17
M  V30 17 1 16 18
M  V30 18 1 17 19
M  V30 19 2 18 20
M  V30 20 1 18 21
M  V30 21 2 19 22
M  V30 22 1 19 23
M  V30 23 1 23 24
M  V30 24 2 24 25
M  V30 25 1 24 26
M  V30 26 1 25 27
M  V30 27 2 26 28
M  V30 28 2 27 29
M  V30 29 1 29 30
M  V30 30 1 30 31
M  V30 31 1 30 32
M  V30 32 1 31 33
M  V30 33 1 32 34
M  V30 34 1 33 35
M  V30 35 1 35 36
M  V30 36 1 13 15
M  V30 37 1 20 22
M  V30 38 1 28 29
M  V30 39 1 34 35
M  V30 END BOND
M  V30 END CTAB
M  END
>  <Compound ID>
227

>  <Name>
TG101209

>  <Uniprot>
Q9NSY1

>  <Target>
BMP2K

>  <Smiles>
CC1=CN=C(NC2=CC=C(N3CCN(C)CC3)C=C2)N=C1NC1=CC=CC(S(=O)(=O)NC(C)(C)C)=C1

>  <Kd (nM)>


>  <Assay (Kd)>


>  <Ki (nM)>


>  <Assay (Ki)>


>  <IC50 (nM)>


>  <Assay (IC50)>


>  <EC50 (nM)>


>  <Assay (EC50)>


>  <Article DOI>
10.1016/j.cell.2020.10.038

>  <Molecular Weight>
509.68

>  <Exact Mass>
509.25729436

>  <XLogP3>
4.2

>  <Heavy Atom Count>
36

>  <Ring Count>
4

>  <Hydrogen Bond Acceptor Count>
8

>  <Hydrogen Bond Donor Count>
3

>  <Rotatable Bond Count>
7

>  <Topological Polar Surface Area>
102.49

>  <Molecular Formula>
C26H35N7O2S

>  <InChI>
InChI=1S/C26H35N7O2S/c1-19-18-27-25(29-20-9-11-22(12-10-20)33-15-13-32(5)14-16-33)30-24(19)28-21-7-6-8-23(17-21)36(34,35)31-26(2,3)4/h6-12,17-18,31H,13-16H2,1-5H3,(H2,27,28,29,30)

>  <InChI Key>
JVDOKQYTTYUYDV-UHFFFAOYSA-N

>  <BindingDB>
192755

>  <PubChem>
16722832

>  <ChEMBL>
CHEMBL1995703

$$$$
Compound 811
Actelion Java MolfileCreator 2.0

  0  0  0  0  0  0              0 V3000
M  V30 BEGIN CTAB
M  V30 COUNTS 36 39 0 0 0
M  V30 BEGIN ATOM
M  V30 1 S 0.0 0.0 0.0 0
M  V30 2 O 0.561 1.3908 0.0 0
M  V30 3 O -0.5843 -1.3674 0.0 0
M  V30 4 N 1.3674 -0.561 0.0 0
M  V30 5 C -1.3908 0.5843 0.0 0
M  V30 6 C 2.5479 0.3623 0.0 0
M  V30 7 C -2.5947 -0.3155 0.0 0
M  V30 8 C -1.5895 2.0804 0.0 0
M  V30 9 C 3.4479 -0.8181 0.0 0
M  V30 10 C 1.6246 1.5661 0.0 0
M  V30 11 C 3.7284 1.2856 0.0 0
M  V30 12 C -3.9855 0.2688 0.0 0
M  V30 13 C -2.9804 2.6648 0.0 0
M  V30 14 N -5.1894 -0.6311 0.0 0
M  V30 15 C -4.1842 1.7648 0.0 0
M  V30 16 C -6.5802 -0.0467 0.0 0
M  V30 17 N -6.7789 1.4492 0.0 0
M  V30 18 C -7.7841 -0.9467 0.0 0
M  V30 19 C -8.1698 2.0336 0.0 0
M  V30 20 C -9.1749 -0.3623 0.0 0
M  V30 21 C -7.6088 -2.4193 0.0 0
M  V30 22 N -9.3736 1.1337 0.0 0
M  V30 23 N -8.3685 3.5297 0.0 0
M  V30 24 C -7.188 4.453 0.0 0
M  V30 25 C -5.8205 3.892 0.0 0
M  V30 26 C -7.3867 5.9491 0.0 0
M  V30 27 C -4.64 4.8154 0.0 0
M  V30 28 C -6.2062 6.8724 0.0 0
M  V30 29 C -4.8387 6.3114 0.0 0
M  V30 30 N -3.6583 7.2347 0.0 0
M  V30 31 C -2.2908 6.6737 0.0 0
M  V30 32 C -3.8569 8.7308 0.0 0
M  V30 33 C -1.1103 7.5971 0.0 0
M  V30 34 C -2.6765 9.6541 0.0 0
M  V30 35 N -1.309 9.0931 0.0 0
M  V30 36 C -0.1285 10.0165 0.0 0
M  V30 END ATOM
M  V30 BEGIN BOND
M  V30 1 2 1 2
M  V30 2 2 1 3
M  V30 3 1 1 4
M  V30 4 1 1 5
M  V30 5 1 4 6
M  V30 6 2 5 7
M  V30 7 1 5 8
M  V30 8 1 6 9
M  V30 9 1 6 10
M  V30 10 1 6 11
M  V30 11 1 7 12
M  V30 12 2 8 13
M  V30 13 1 12 14
M  V30 14 2 12 15
M  V30 15 1 14 16
M  V30 16 2 16 17
M  V30 17 1 16 18
M  V30 18 1 17 19
M  V30 19 2 18 20
M  V30 20 1 18 21
M  V30 21 2 19 22
M  V30 22 1 19 23
M  V30 23 1 23 24
M  V30 24 2 24 25
M  V30 25 1 24 26
M  V30 26 1 25 27
M  V30 27 2 26 28
M  V30 28 2 27 29
M  V30 29 1 29 30
M  V30 30 1 30 31
M  V30 31 1 30 32
M  V30 32 1 31 33
M  V30 33 1 32 34
M  V30 34 1 33 35
M  V30 35 1 35 36
M  V30 36 1 13 15
M  V30 37 1 20 22
M  V30 38 1 28 29
M  V30 39 1 34 35
M  V30 END BOND
M  V30 END CTAB
M  END
>  <Compound ID>
227

>  <Name>
TG101209

>  <Uniprot>
Q00536

>  <Target>
CDK16

>  <Smiles>
CC1=CN=C(NC2=CC=C(N3CCN(C)CC3)C=C2)N=C1NC1=CC=CC(S(=O)(=O)NC(C)(C)C)=C1

>  <Kd (nM)>


>  <Assay (Kd)>


>  <Ki (nM)>


>  <Assay (Ki)>


>  <IC50 (nM)>


>  <Assay (IC50)>


>  <EC50 (nM)>


>  <Assay (EC50)>


>  <Article DOI>
10.1016/j.cell.2020.10.038

>  <Molecular Weight>
509.68

>  <Exact Mass>
509.25729436

>  <XLogP3>
4.2

>  <Heavy Atom Count>
36

>  <Ring Count>
4

>  <Hydrogen Bond Acceptor Count>
8

>  <Hydrogen Bond Donor Count>
3

>  <Rotatable Bond Count>
7

>  <Topological Polar Surface Area>
102.49

>  <Molecular Formula>
C26H35N7O2S

>  <InChI>
InChI=1S/C26H35N7O2S/c1-19-18-27-25(29-20-9-11-22(12-10-20)33-15-13-32(5)14-16-33)30-24(19)28-21-7-6-8-23(17-21)36(34,35)31-26(2,3)4/h6-12,17-18,31H,13-16H2,1-5H3,(H2,27,28,29,30)

>  <InChI Key>
JVDOKQYTTYUYDV-UHFFFAOYSA-N

>  <BindingDB>
192755

>  <PubChem>
16722832

>  <ChEMBL>
CHEMBL1995703

$$$$
Compound 812
Actelion Java MolfileCreator 2.0

  0  0  0  0  0  0              0 V3000
M  V30 BEGIN CTAB
M  V30 COUNTS 36 39 0 0 0
M  V30 BEGIN ATOM
M  V30 1 S 0.0 0.0 0.0 0
M  V30 2 O 0.561 1.3908 0.0 0
M  V30 3 O -0.5843 -1.3674 0.0 0
M  V30 4 N 1.3674 -0.561 0.0 0
M  V30 5 C -1.3908 0.5843 0.0 0
M  V30 6 C 2.5479 0.3623 0.0 0
M  V30 7 C -2.5947 -0.3155 0.0 0
M  V30 8 C -1.5895 2.0804 0.0 0
M  V30 9 C 3.4479 -0.8181 0.0 0
M  V30 10 C 1.6246 1.5661 0.0 0
M  V30 11 C 3.7284 1.2856 0.0 0
M  V30 12 C -3.9855 0.2688 0.0 0
M  V30 13 C -2.9804 2.6648 0.0 0
M  V30 14 N -5.1894 -0.6311 0.0 0
M  V30 15 C -4.1842 1.7648 0.0 0
M  V30 16 C -6.5802 -0.0467 0.0 0
M  V30 17 N -6.7789 1.4492 0.0 0
M  V30 18 C -7.7841 -0.9467 0.0 0
M  V30 19 C -8.1698 2.0336 0.0 0
M  V30 20 C -9.1749 -0.3623 0.0 0
M  V30 21 C -7.6088 -2.4193 0.0 0
M  V30 22 N -9.3736 1.1337 0.0 0
M  V30 23 N -8.3685 3.5297 0.0 0
M  V30 24 C -7.188 4.453 0.0 0
M  V30 25 C -5.8205 3.892 0.0 0
M  V30 26 C -7.3867 5.9491 0.0 0
M  V30 27 C -4.64 4.8154 0.0 0
M  V30 28 C -6.2062 6.8724 0.0 0
M  V30 29 C -4.8387 6.3114 0.0 0
M  V30 30 N -3.6583 7.2347 0.0 0
M  V30 31 C -2.2908 6.6737 0.0 0
M  V30 32 C -3.8569 8.7308 0.0 0
M  V30 33 C -1.1103 7.5971 0.0 0
M  V30 34 C -2.6765 9.6541 0.0 0
M  V30 35 N -1.309 9.0931 0.0 0
M  V30 36 C -0.1285 10.0165 0.0 0
M  V30 END ATOM
M  V30 BEGIN BOND
M  V30 1 2 1 2
M  V30 2 2 1 3
M  V30 3 1 1 4
M  V30 4 1 1 5
M  V30 5 1 4 6
M  V30 6 2 5 7
M  V30 7 1 5 8
M  V30 8 1 6 9
M  V30 9 1 6 10
M  V30 10 1 6 11
M  V30 11 1 7 12
M  V30 12 2 8 13
M  V30 13 1 12 14
M  V30 14 2 12 15
M  V30 15 1 14 16
M  V30 16 2 16 17
M  V30 17 1 16 18
M  V30 18 1 17 19
M  V30 19 2 18 20
M  V30 20 1 18 21
M  V30 21 2 19 22
M  V30 22 1 19 23
M  V30 23 1 23 24
M  V30 24 2 24 25
M  V30 25 1 24 26
M  V30 26 1 25 27
M  V30 27 2 26 28
M  V30 28 2 27 29
M  V30 29 1 29 30
M  V30 30 1 30 31
M  V30 31 1 30 32
M  V30 32 1 31 33
M  V30 33 1 32 34
M  V30 34 1 33 35
M  V30 35 1 35 36
M  V30 36 1 13 15
M  V30 37 1 20 22
M  V30 38 1 28 29
M  V30 39 1 34 35
M  V30 END BOND
M  V30 END CTAB
M  END
>  <Compound ID>
227

>  <Name>
TG101209

>  <Uniprot>
O14976

>  <Target>
GAK

>  <Smiles>
CC1=CN=C(NC2=CC=C(N3CCN(C)CC3)C=C2)N=C1NC1=CC=CC(S(=O)(=O)NC(C)(C)C)=C1

>  <Kd (nM)>


>  <Assay (Kd)>


>  <Ki (nM)>


>  <Assay (Ki)>


>  <IC50 (nM)>


>  <Assay (IC50)>


>  <EC50 (nM)>


>  <Assay (EC50)>


>  <Article DOI>
10.1016/j.cell.2020.10.038

>  <Molecular Weight>
509.68

>  <Exact Mass>
509.25729436

>  <XLogP3>
4.2

>  <Heavy Atom Count>
36

>  <Ring Count>
4

>  <Hydrogen Bond Acceptor Count>
8

>  <Hydrogen Bond Donor Count>
3

>  <Rotatable Bond Count>
7

>  <Topological Polar Surface Area>
102.49

>  <Molecular Formula>
C26H35N7O2S

>  <InChI>
InChI=1S/C26H35N7O2S/c1-19-18-27-25(29-20-9-11-22(12-10-20)33-15-13-32(5)14-16-33)30-24(19)28-21-7-6-8-23(17-21)36(34,35)31-26(2,3)4/h6-12,17-18,31H,13-16H2,1-5H3,(H2,27,28,29,30)

>  <InChI Key>
JVDOKQYTTYUYDV-UHFFFAOYSA-N

>  <BindingDB>
192755

>  <PubChem>
16722832

>  <ChEMBL>
CHEMBL1995703

$$$$
Compound 813
Actelion Java MolfileCreator 2.0

  0  0  0  0  0  0              0 V3000
M  V30 BEGIN CTAB
M  V30 COUNTS 36 39 0 0 0
M  V30 BEGIN ATOM
M  V30 1 S 0.0 0.0 0.0 0
M  V30 2 O 0.561 1.3908 0.0 0
M  V30 3 O -0.5843 -1.3674 0.0 0
M  V30 4 N 1.3674 -0.561 0.0 0
M  V30 5 C -1.3908 0.5843 0.0 0
M  V30 6 C 2.5479 0.3623 0.0 0
M  V30 7 C -2.5947 -0.3155 0.0 0
M  V30 8 C -1.5895 2.0804 0.0 0
M  V30 9 C 3.4479 -0.8181 0.0 0
M  V30 10 C 1.6246 1.5661 0.0 0
M  V30 11 C 3.7284 1.2856 0.0 0
M  V30 12 C -3.9855 0.2688 0.0 0
M  V30 13 C -2.9804 2.6648 0.0 0
M  V30 14 N -5.1894 -0.6311 0.0 0
M  V30 15 C -4.1842 1.7648 0.0 0
M  V30 16 C -6.5802 -0.0467 0.0 0
M  V30 17 N -6.7789 1.4492 0.0 0
M  V30 18 C -7.7841 -0.9467 0.0 0
M  V30 19 C -8.1698 2.0336 0.0 0
M  V30 20 C -9.1749 -0.3623 0.0 0
M  V30 21 C -7.6088 -2.4193 0.0 0
M  V30 22 N -9.3736 1.1337 0.0 0
M  V30 23 N -8.3685 3.5297 0.0 0
M  V30 24 C -7.188 4.453 0.0 0
M  V30 25 C -5.8205 3.892 0.0 0
M  V30 26 C -7.3867 5.9491 0.0 0
M  V30 27 C -4.64 4.8154 0.0 0
M  V30 28 C -6.2062 6.8724 0.0 0
M  V30 29 C -4.8387 6.3114 0.0 0
M  V30 30 N -3.6583 7.2347 0.0 0
M  V30 31 C -2.2908 6.6737 0.0 0
M  V30 32 C -3.8569 8.7308 0.0 0
M  V30 33 C -1.1103 7.5971 0.0 0
M  V30 34 C -2.6765 9.6541 0.0 0
M  V30 35 N -1.309 9.0931 0.0 0
M  V30 36 C -0.1285 10.0165 0.0 0
M  V30 END ATOM
M  V30 BEGIN BOND
M  V30 1 2 1 2
M  V30 2 2 1 3
M  V30 3 1 1 4
M  V30 4 1 1 5
M  V30 5 1 4 6
M  V30 6 2 5 7
M  V30 7 1 5 8
M  V30 8 1 6 9
M  V30 9 1 6 10
M  V30 10 1 6 11
M  V30 11 1 7 12
M  V30 12 2 8 13
M  V30 13 1 12 14
M  V30 14 2 12 15
M  V30 15 1 14 16
M  V30 16 2 16 17
M  V30 17 1 16 18
M  V30 18 1 17 19
M  V30 19 2 18 20
M  V30 20 1 18 21
M  V30 21 2 19 22
M  V30 22 1 19 23
M  V30 23 1 23 24
M  V30 24 2 24 25
M  V30 25 1 24 26
M  V30 26 1 25 27
M  V30 27 2 26 28
M  V30 28 2 27 29
M  V30 29 1 29 30
M  V30 30 1 30 31
M  V30 31 1 30 32
M  V30 32 1 31 33
M  V30 33 1 32 34
M  V30 34 1 33 35
M  V30 35 1 35 36
M  V30 36 1 13 15
M  V30 37 1 20 22
M  V30 38 1 28 29
M  V30 39 1 34 35
M  V30 END BOND
M  V30 END CTAB
M  END
>  <Compound ID>
227

>  <Name>
TG101209

>  <Uniprot>
Q96L34

>  <Target>
MARK4

>  <Smiles>
CC1=CN=C(NC2=CC=C(N3CCN(C)CC3)C=C2)N=C1NC1=CC=CC(S(=O)(=O)NC(C)(C)C)=C1

>  <Kd (nM)>


>  <Assay (Kd)>


>  <Ki (nM)>


>  <Assay (Ki)>


>  <IC50 (nM)>


>  <Assay (IC50)>


>  <EC50 (nM)>


>  <Assay (EC50)>


>  <Article DOI>
10.1016/j.cell.2020.10.038

>  <Molecular Weight>
509.68

>  <Exact Mass>
509.25729436

>  <XLogP3>
4.2

>  <Heavy Atom Count>
36

>  <Ring Count>
4

>  <Hydrogen Bond Acceptor Count>
8

>  <Hydrogen Bond Donor Count>
3

>  <Rotatable Bond Count>
7

>  <Topological Polar Surface Area>
102.49

>  <Molecular Formula>
C26H35N7O2S

>  <InChI>
InChI=1S/C26H35N7O2S/c1-19-18-27-25(29-20-9-11-22(12-10-20)33-15-13-32(5)14-16-33)30-24(19)28-21-7-6-8-23(17-21)36(34,35)31-26(2,3)4/h6-12,17-18,31H,13-16H2,1-5H3,(H2,27,28,29,30)

>  <InChI Key>
JVDOKQYTTYUYDV-UHFFFAOYSA-N

>  <BindingDB>
192755

>  <PubChem>
16722832

>  <ChEMBL>
CHEMBL1995703

$$$$
Compound 814
Actelion Java MolfileCreator 2.0

  0  0  0  0  0  0              0 V3000
M  V30 BEGIN CTAB
M  V30 COUNTS 36 39 0 0 0
M  V30 BEGIN ATOM
M  V30 1 S 0.0 0.0 0.0 0
M  V30 2 O 0.561 1.3908 0.0 0
M  V30 3 O -0.5843 -1.3674 0.0 0
M  V30 4 N 1.3674 -0.561 0.0 0
M  V30 5 C -1.3908 0.5843 0.0 0
M  V30 6 C 2.5479 0.3623 0.0 0
M  V30 7 C -2.5947 -0.3155 0.0 0
M  V30 8 C -1.5895 2.0804 0.0 0
M  V30 9 C 3.4479 -0.8181 0.0 0
M  V30 10 C 1.6246 1.5661 0.0 0
M  V30 11 C 3.7284 1.2856 0.0 0
M  V30 12 C -3.9855 0.2688 0.0 0
M  V30 13 C -2.9804 2.6648 0.0 0
M  V30 14 N -5.1894 -0.6311 0.0 0
M  V30 15 C -4.1842 1.7648 0.0 0
M  V30 16 C -6.5802 -0.0467 0.0 0
M  V30 17 N -6.7789 1.4492 0.0 0
M  V30 18 C -7.7841 -0.9467 0.0 0
M  V30 19 C -8.1698 2.0336 0.0 0
M  V30 20 C -9.1749 -0.3623 0.0 0
M  V30 21 C -7.6088 -2.4193 0.0 0
M  V30 22 N -9.3736 1.1337 0.0 0
M  V30 23 N -8.3685 3.5297 0.0 0
M  V30 24 C -7.188 4.453 0.0 0
M  V30 25 C -5.8205 3.892 0.0 0
M  V30 26 C -7.3867 5.9491 0.0 0
M  V30 27 C -4.64 4.8154 0.0 0
M  V30 28 C -6.2062 6.8724 0.0 0
M  V30 29 C -4.8387 6.3114 0.0 0
M  V30 30 N -3.6583 7.2347 0.0 0
M  V30 31 C -2.2908 6.6737 0.0 0
M  V30 32 C -3.8569 8.7308 0.0 0
M  V30 33 C -1.1103 7.5971 0.0 0
M  V30 34 C -2.6765 9.6541 0.0 0
M  V30 35 N -1.309 9.0931 0.0 0
M  V30 36 C -0.1285 10.0165 0.0 0
M  V30 END ATOM
M  V30 BEGIN BOND
M  V30 1 2 1 2
M  V30 2 2 1 3
M  V30 3 1 1 4
M  V30 4 1 1 5
M  V30 5 1 4 6
M  V30 6 2 5 7
M  V30 7 1 5 8
M  V30 8 1 6 9
M  V30 9 1 6 10
M  V30 10 1 6 11
M  V30 11 1 7 12
M  V30 12 2 8 13
M  V30 13 1 12 14
M  V30 14 2 12 15
M  V30 15 1 14 16
M  V30 16 2 16 17
M  V30 17 1 16 18
M  V30 18 1 17 19
M  V30 19 2 18 20
M  V30 20 1 18 21
M  V30 21 2 19 22
M  V30 22 1 19 23
M  V30 23 1 23 24
M  V30 24 2 24 25
M  V30 25 1 24 26
M  V30 26 1 25 27
M  V30 27 2 26 28
M  V30 28 2 27 29
M  V30 29 1 29 30
M  V30 30 1 30 31
M  V30 31 1 30 32
M  V30 32 1 31 33
M  V30 33 1 32 34
M  V30 34 1 33 35
M  V30 35 1 35 36
M  V30 36 1 13 15
M  V30 37 1 20 22
M  V30 38 1 28 29
M  V30 39 1 34 35
M  V30 END BOND
M  V30 END CTAB
M  END
>  <Compound ID>
227

>  <Name>
TG101209

>  <Uniprot>
Q8TD19

>  <Target>
NEK9

>  <Smiles>
CC1=CN=C(NC2=CC=C(N3CCN(C)CC3)C=C2)N=C1NC1=CC=CC(S(=O)(=O)NC(C)(C)C)=C1

>  <Kd (nM)>


>  <Assay (Kd)>


>  <Ki (nM)>


>  <Assay (Ki)>


>  <IC50 (nM)>


>  <Assay (IC50)>


>  <EC50 (nM)>


>  <Assay (EC50)>


>  <Article DOI>
10.1016/j.cell.2020.10.038

>  <Molecular Weight>
509.68

>  <Exact Mass>
509.25729436

>  <XLogP3>
4.2

>  <Heavy Atom Count>
36

>  <Ring Count>
4

>  <Hydrogen Bond Acceptor Count>
8

>  <Hydrogen Bond Donor Count>
3

>  <Rotatable Bond Count>
7

>  <Topological Polar Surface Area>
102.49

>  <Molecular Formula>
C26H35N7O2S

>  <InChI>
InChI=1S/C26H35N7O2S/c1-19-18-27-25(29-20-9-11-22(12-10-20)33-15-13-32(5)14-16-33)30-24(19)28-21-7-6-8-23(17-21)36(34,35)31-26(2,3)4/h6-12,17-18,31H,13-16H2,1-5H3,(H2,27,28,29,30)

>  <InChI Key>
JVDOKQYTTYUYDV-UHFFFAOYSA-N

>  <BindingDB>
192755

>  <PubChem>
16722832

>  <ChEMBL>
CHEMBL1995703

$$$$
Compound 815
Actelion Java MolfileCreator 2.0

  0  0  0  0  0  0              0 V3000
M  V30 BEGIN CTAB
M  V30 COUNTS 36 39 0 0 0
M  V30 BEGIN ATOM
M  V30 1 S 0.0 0.0 0.0 0
M  V30 2 O 0.561 1.3908 0.0 0
M  V30 3 O -0.5843 -1.3674 0.0 0
M  V30 4 N 1.3674 -0.561 0.0 0
M  V30 5 C -1.3908 0.5843 0.0 0
M  V30 6 C 2.5479 0.3623 0.0 0
M  V30 7 C -2.5947 -0.3155 0.0 0
M  V30 8 C -1.5895 2.0804 0.0 0
M  V30 9 C 3.4479 -0.8181 0.0 0
M  V30 10 C 1.6246 1.5661 0.0 0
M  V30 11 C 3.7284 1.2856 0.0 0
M  V30 12 C -3.9855 0.2688 0.0 0
M  V30 13 C -2.9804 2.6648 0.0 0
M  V30 14 N -5.1894 -0.6311 0.0 0
M  V30 15 C -4.1842 1.7648 0.0 0
M  V30 16 C -6.5802 -0.0467 0.0 0
M  V30 17 N -6.7789 1.4492 0.0 0
M  V30 18 C -7.7841 -0.9467 0.0 0
M  V30 19 C -8.1698 2.0336 0.0 0
M  V30 20 C -9.1749 -0.3623 0.0 0
M  V30 21 C -7.6088 -2.4193 0.0 0
M  V30 22 N -9.3736 1.1337 0.0 0
M  V30 23 N -8.3685 3.5297 0.0 0
M  V30 24 C -7.188 4.453 0.0 0
M  V30 25 C -5.8205 3.892 0.0 0
M  V30 26 C -7.3867 5.9491 0.0 0
M  V30 27 C -4.64 4.8154 0.0 0
M  V30 28 C -6.2062 6.8724 0.0 0
M  V30 29 C -4.8387 6.3114 0.0 0
M  V30 30 N -3.6583 7.2347 0.0 0
M  V30 31 C -2.2908 6.6737 0.0 0
M  V30 32 C -3.8569 8.7308 0.0 0
M  V30 33 C -1.1103 7.5971 0.0 0
M  V30 34 C -2.6765 9.6541 0.0 0
M  V30 35 N -1.309 9.0931 0.0 0
M  V30 36 C -0.1285 10.0165 0.0 0
M  V30 END ATOM
M  V30 BEGIN BOND
M  V30 1 2 1 2
M  V30 2 2 1 3
M  V30 3 1 1 4
M  V30 4 1 1 5
M  V30 5 1 4 6
M  V30 6 2 5 7
M  V30 7 1 5 8
M  V30 8 1 6 9
M  V30 9 1 6 10
M  V30 10 1 6 11
M  V30 11 1 7 12
M  V30 12 2 8 13
M  V30 13 1 12 14
M  V30 14 2 12 15
M  V30 15 1 14 16
M  V30 16 2 16 17
M  V30 17 1 16 18
M  V30 18 1 17 19
M  V30 19 2 18 20
M  V30 20 1 18 21
M  V30 21 2 19 22
M  V30 22 1 19 23
M  V30 23 1 23 24
M  V30 24 2 24 25
M  V30 25 1 24 26
M  V30 26 1 25 27
M  V30 27 2 26 28
M  V30 28 2 27 29
M  V30 29 1 29 30
M  V30 30 1 30 31
M  V30 31 1 30 32
M  V30 32 1 31 33
M  V30 33 1 32 34
M  V30 34 1 33 35
M  V30 35 1 35 36
M  V30 36 1 13 15
M  V30 37 1 20 22
M  V30 38 1 28 29
M  V30 39 1 34 35
M  V30 END BOND
M  V30 END CTAB
M  END
>  <Compound ID>
227

>  <Name>
TG101209

>  <Uniprot>
P23443

>  <Target>
RPS6KB1

>  <Smiles>
CC1=CN=C(NC2=CC=C(N3CCN(C)CC3)C=C2)N=C1NC1=CC=CC(S(=O)(=O)NC(C)(C)C)=C1

>  <Kd (nM)>


>  <Assay (Kd)>


>  <Ki (nM)>


>  <Assay (Ki)>


>  <IC50 (nM)>


>  <Assay (IC50)>


>  <EC50 (nM)>


>  <Assay (EC50)>


>  <Article DOI>
10.1016/j.cell.2020.10.038

>  <Molecular Weight>
509.68

>  <Exact Mass>
509.25729436

>  <XLogP3>
4.2

>  <Heavy Atom Count>
36

>  <Ring Count>
4

>  <Hydrogen Bond Acceptor Count>
8

>  <Hydrogen Bond Donor Count>
3

>  <Rotatable Bond Count>
7

>  <Topological Polar Surface Area>
102.49

>  <Molecular Formula>
C26H35N7O2S

>  <InChI>
InChI=1S/C26H35N7O2S/c1-19-18-27-25(29-20-9-11-22(12-10-20)33-15-13-32(5)14-16-33)30-24(19)28-21-7-6-8-23(17-21)36(34,35)31-26(2,3)4/h6-12,17-18,31H,13-16H2,1-5H3,(H2,27,28,29,30)

>  <InChI Key>
JVDOKQYTTYUYDV-UHFFFAOYSA-N

>  <BindingDB>
192755

>  <PubChem>
16722832

>  <ChEMBL>
CHEMBL1995703

$$$$
Compound 816
Actelion Java MolfileCreator 2.0

  0  0  0  0  0  0              0 V3000
M  V30 BEGIN CTAB
M  V30 COUNTS 36 39 0 0 0
M  V30 BEGIN ATOM
M  V30 1 S 0.0 0.0 0.0 0
M  V30 2 O 0.561 1.3908 0.0 0
M  V30 3 O -0.5843 -1.3674 0.0 0
M  V30 4 N 1.3674 -0.561 0.0 0
M  V30 5 C -1.3908 0.5843 0.0 0
M  V30 6 C 2.5479 0.3623 0.0 0
M  V30 7 C -2.5947 -0.3155 0.0 0
M  V30 8 C -1.5895 2.0804 0.0 0
M  V30 9 C 3.4479 -0.8181 0.0 0
M  V30 10 C 1.6246 1.5661 0.0 0
M  V30 11 C 3.7284 1.2856 0.0 0
M  V30 12 C -3.9855 0.2688 0.0 0
M  V30 13 C -2.9804 2.6648 0.0 0
M  V30 14 N -5.1894 -0.6311 0.0 0
M  V30 15 C -4.1842 1.7648 0.0 0
M  V30 16 C -6.5802 -0.0467 0.0 0
M  V30 17 N -6.7789 1.4492 0.0 0
M  V30 18 C -7.7841 -0.9467 0.0 0
M  V30 19 C -8.1698 2.0336 0.0 0
M  V30 20 C -9.1749 -0.3623 0.0 0
M  V30 21 C -7.6088 -2.4193 0.0 0
M  V30 22 N -9.3736 1.1337 0.0 0
M  V30 23 N -8.3685 3.5297 0.0 0
M  V30 24 C -7.188 4.453 0.0 0
M  V30 25 C -5.8205 3.892 0.0 0
M  V30 26 C -7.3867 5.9491 0.0 0
M  V30 27 C -4.64 4.8154 0.0 0
M  V30 28 C -6.2062 6.8724 0.0 0
M  V30 29 C -4.8387 6.3114 0.0 0
M  V30 30 N -3.6583 7.2347 0.0 0
M  V30 31 C -2.2908 6.6737 0.0 0
M  V30 32 C -3.8569 8.7308 0.0 0
M  V30 33 C -1.1103 7.5971 0.0 0
M  V30 34 C -2.6765 9.6541 0.0 0
M  V30 35 N -1.309 9.0931 0.0 0
M  V30 36 C -0.1285 10.0165 0.0 0
M  V30 END ATOM
M  V30 BEGIN BOND
M  V30 1 2 1 2
M  V30 2 2 1 3
M  V30 3 1 1 4
M  V30 4 1 1 5
M  V30 5 1 4 6
M  V30 6 2 5 7
M  V30 7 1 5 8
M  V30 8 1 6 9
M  V30 9 1 6 10
M  V30 10 1 6 11
M  V30 11 1 7 12
M  V30 12 2 8 13
M  V30 13 1 12 14
M  V30 14 2 12 15
M  V30 15 1 14 16
M  V30 16 2 16 17
M  V30 17 1 16 18
M  V30 18 1 17 19
M  V30 19 2 18 20
M  V30 20 1 18 21
M  V30 21 2 19 22
M  V30 22 1 19 23
M  V30 23 1 23 24
M  V30 24 2 24 25
M  V30 25 1 24 26
M  V30 26 1 25 27
M  V30 27 2 26 28
M  V30 28 2 27 29
M  V30 29 1 29 30
M  V30 30 1 30 31
M  V30 31 1 30 32
M  V30 32 1 31 33
M  V30 33 1 32 34
M  V30 34 1 33 35
M  V30 35 1 35 36
M  V30 36 1 13 15
M  V30 37 1 20 22
M  V30 38 1 28 29
M  V30 39 1 34 35
M  V30 END BOND
M  V30 END CTAB
M  END
>  <Compound ID>
227

>  <Name>
TG101209

>  <Uniprot>
Q9H0K1

>  <Target>
SIK2

>  <Smiles>
CC1=CN=C(NC2=CC=C(N3CCN(C)CC3)C=C2)N=C1NC1=CC=CC(S(=O)(=O)NC(C)(C)C)=C1

>  <Kd (nM)>


>  <Assay (Kd)>


>  <Ki (nM)>


>  <Assay (Ki)>


>  <IC50 (nM)>


>  <Assay (IC50)>


>  <EC50 (nM)>


>  <Assay (EC50)>


>  <Article DOI>
10.1016/j.cell.2020.10.038

>  <Molecular Weight>
509.68

>  <Exact Mass>
509.25729436

>  <XLogP3>
4.2

>  <Heavy Atom Count>
36

>  <Ring Count>
4

>  <Hydrogen Bond Acceptor Count>
8

>  <Hydrogen Bond Donor Count>
3

>  <Rotatable Bond Count>
7

>  <Topological Polar Surface Area>
102.49

>  <Molecular Formula>
C26H35N7O2S

>  <InChI>
InChI=1S/C26H35N7O2S/c1-19-18-27-25(29-20-9-11-22(12-10-20)33-15-13-32(5)14-16-33)30-24(19)28-21-7-6-8-23(17-21)36(34,35)31-26(2,3)4/h6-12,17-18,31H,13-16H2,1-5H3,(H2,27,28,29,30)

>  <InChI Key>
JVDOKQYTTYUYDV-UHFFFAOYSA-N

>  <BindingDB>
192755

>  <PubChem>
16722832

>  <ChEMBL>
CHEMBL1995703

$$$$
Compound 817
Actelion Java MolfileCreator 2.0

  0  0  0  0  0  0              0 V3000
M  V30 BEGIN CTAB
M  V30 COUNTS 36 39 0 0 0
M  V30 BEGIN ATOM
M  V30 1 S 0.0 0.0 0.0 0
M  V30 2 O 0.561 1.3908 0.0 0
M  V30 3 O -0.5843 -1.3674 0.0 0
M  V30 4 N 1.3674 -0.561 0.0 0
M  V30 5 C -1.3908 0.5843 0.0 0
M  V30 6 C 2.5479 0.3623 0.0 0
M  V30 7 C -2.5947 -0.3155 0.0 0
M  V30 8 C -1.5895 2.0804 0.0 0
M  V30 9 C 3.4479 -0.8181 0.0 0
M  V30 10 C 1.6246 1.5661 0.0 0
M  V30 11 C 3.7284 1.2856 0.0 0
M  V30 12 C -3.9855 0.2688 0.0 0
M  V30 13 C -2.9804 2.6648 0.0 0
M  V30 14 N -5.1894 -0.6311 0.0 0
M  V30 15 C -4.1842 1.7648 0.0 0
M  V30 16 C -6.5802 -0.0467 0.0 0
M  V30 17 N -6.7789 1.4492 0.0 0
M  V30 18 C -7.7841 -0.9467 0.0 0
M  V30 19 C -8.1698 2.0336 0.0 0
M  V30 20 C -9.1749 -0.3623 0.0 0
M  V30 21 C -7.6088 -2.4193 0.0 0
M  V30 22 N -9.3736 1.1337 0.0 0
M  V30 23 N -8.3685 3.5297 0.0 0
M  V30 24 C -7.188 4.453 0.0 0
M  V30 25 C -5.8205 3.892 0.0 0
M  V30 26 C -7.3867 5.9491 0.0 0
M  V30 27 C -4.64 4.8154 0.0 0
M  V30 28 C -6.2062 6.8724 0.0 0
M  V30 29 C -4.8387 6.3114 0.0 0
M  V30 30 N -3.6583 7.2347 0.0 0
M  V30 31 C -2.2908 6.6737 0.0 0
M  V30 32 C -3.8569 8.7308 0.0 0
M  V30 33 C -1.1103 7.5971 0.0 0
M  V30 34 C -2.6765 9.6541 0.0 0
M  V30 35 N -1.309 9.0931 0.0 0
M  V30 36 C -0.1285 10.0165 0.0 0
M  V30 END ATOM
M  V30 BEGIN BOND
M  V30 1 2 1 2
M  V30 2 2 1 3
M  V30 3 1 1 4
M  V30 4 1 1 5
M  V30 5 1 4 6
M  V30 6 2 5 7
M  V30 7 1 5 8
M  V30 8 1 6 9
M  V30 9 1 6 10
M  V30 10 1 6 11
M  V30 11 1 7 12
M  V30 12 2 8 13
M  V30 13 1 12 14
M  V30 14 2 12 15
M  V30 15 1 14 16
M  V30 16 2 16 17
M  V30 17 1 16 18
M  V30 18 1 17 19
M  V30 19 2 18 20
M  V30 20 1 18 21
M  V30 21 2 19 22
M  V30 22 1 19 23
M  V30 23 1 23 24
M  V30 24 2 24 25
M  V30 25 1 24 26
M  V30 26 1 25 27
M  V30 27 2 26 28
M  V30 28 2 27 29
M  V30 29 1 29 30
M  V30 30 1 30 31
M  V30 31 1 30 32
M  V30 32 1 31 33
M  V30 33 1 32 34
M  V30 34 1 33 35
M  V30 35 1 35 36
M  V30 36 1 13 15
M  V30 37 1 20 22
M  V30 38 1 28 29
M  V30 39 1 34 35
M  V30 END BOND
M  V30 END CTAB
M  END
>  <Compound ID>
227

>  <Name>
TG101209

>  <Uniprot>
Q9Y2K2

>  <Target>
SIK3

>  <Smiles>
CC1=CN=C(NC2=CC=C(N3CCN(C)CC3)C=C2)N=C1NC1=CC=CC(S(=O)(=O)NC(C)(C)C)=C1

>  <Kd (nM)>


>  <Assay (Kd)>


>  <Ki (nM)>


>  <Assay (Ki)>


>  <IC50 (nM)>


>  <Assay (IC50)>


>  <EC50 (nM)>


>  <Assay (EC50)>


>  <Article DOI>
10.1016/j.cell.2020.10.038

>  <Molecular Weight>
509.68

>  <Exact Mass>
509.25729436

>  <XLogP3>
4.2

>  <Heavy Atom Count>
36

>  <Ring Count>
4

>  <Hydrogen Bond Acceptor Count>
8

>  <Hydrogen Bond Donor Count>
3

>  <Rotatable Bond Count>
7

>  <Topological Polar Surface Area>
102.49

>  <Molecular Formula>
C26H35N7O2S

>  <InChI>
InChI=1S/C26H35N7O2S/c1-19-18-27-25(29-20-9-11-22(12-10-20)33-15-13-32(5)14-16-33)30-24(19)28-21-7-6-8-23(17-21)36(34,35)31-26(2,3)4/h6-12,17-18,31H,13-16H2,1-5H3,(H2,27,28,29,30)

>  <InChI Key>
JVDOKQYTTYUYDV-UHFFFAOYSA-N

>  <BindingDB>
192755

>  <PubChem>
16722832

>  <ChEMBL>
CHEMBL1995703

$$$$
Compound 818
Actelion Java MolfileCreator 2.0

  0  0  0  0  0  0              0 V3000
M  V30 BEGIN CTAB
M  V30 COUNTS 36 39 0 0 0
M  V30 BEGIN ATOM
M  V30 1 S 0.0 0.0 0.0 0
M  V30 2 O 0.561 1.3908 0.0 0
M  V30 3 O -0.5843 -1.3674 0.0 0
M  V30 4 N 1.3674 -0.561 0.0 0
M  V30 5 C -1.3908 0.5843 0.0 0
M  V30 6 C 2.5479 0.3623 0.0 0
M  V30 7 C -2.5947 -0.3155 0.0 0
M  V30 8 C -1.5895 2.0804 0.0 0
M  V30 9 C 3.4479 -0.8181 0.0 0
M  V30 10 C 1.6246 1.5661 0.0 0
M  V30 11 C 3.7284 1.2856 0.0 0
M  V30 12 C -3.9855 0.2688 0.0 0
M  V30 13 C -2.9804 2.6648 0.0 0
M  V30 14 N -5.1894 -0.6311 0.0 0
M  V30 15 C -4.1842 1.7648 0.0 0
M  V30 16 C -6.5802 -0.0467 0.0 0
M  V30 17 N -6.7789 1.4492 0.0 0
M  V30 18 C -7.7841 -0.9467 0.0 0
M  V30 19 C -8.1698 2.0336 0.0 0
M  V30 20 C -9.1749 -0.3623 0.0 0
M  V30 21 C -7.6088 -2.4193 0.0 0
M  V30 22 N -9.3736 1.1337 0.0 0
M  V30 23 N -8.3685 3.5297 0.0 0
M  V30 24 C -7.188 4.453 0.0 0
M  V30 25 C -5.8205 3.892 0.0 0
M  V30 26 C -7.3867 5.9491 0.0 0
M  V30 27 C -4.64 4.8154 0.0 0
M  V30 28 C -6.2062 6.8724 0.0 0
M  V30 29 C -4.8387 6.3114 0.0 0
M  V30 30 N -3.6583 7.2347 0.0 0
M  V30 31 C -2.2908 6.6737 0.0 0
M  V30 32 C -3.8569 8.7308 0.0 0
M  V30 33 C -1.1103 7.5971 0.0 0
M  V30 34 C -2.6765 9.6541 0.0 0
M  V30 35 N -1.309 9.0931 0.0 0
M  V30 36 C -0.1285 10.0165 0.0 0
M  V30 END ATOM
M  V30 BEGIN BOND
M  V30 1 2 1 2
M  V30 2 2 1 3
M  V30 3 1 1 4
M  V30 4 1 1 5
M  V30 5 1 4 6
M  V30 6 2 5 7
M  V30 7 1 5 8
M  V30 8 1 6 9
M  V30 9 1 6 10
M  V30 10 1 6 11
M  V30 11 1 7 12
M  V30 12 2 8 13
M  V30 13 1 12 14
M  V30 14 2 12 15
M  V30 15 1 14 16
M  V30 16 2 16 17
M  V30 17 1 16 18
M  V30 18 1 17 19
M  V30 19 2 18 20
M  V30 20 1 18 21
M  V30 21 2 19 22
M  V30 22 1 19 23
M  V30 23 1 23 24
M  V30 24 2 24 25
M  V30 25 1 24 26
M  V30 26 1 25 27
M  V30 27 2 26 28
M  V30 28 2 27 29
M  V30 29 1 29 30
M  V30 30 1 30 31
M  V30 31 1 30 32
M  V30 32 1 31 33
M  V30 33 1 32 34
M  V30 34 1 33 35
M  V30 35 1 35 36
M  V30 36 1 13 15
M  V30 37 1 20 22
M  V30 38 1 28 29
M  V30 39 1 34 35
M  V30 END BOND
M  V30 END CTAB
M  END
>  <Compound ID>
227

>  <Name>
TG101209

>  <Uniprot>
Q9NRH2

>  <Target>
SNRK

>  <Smiles>
CC1=CN=C(NC2=CC=C(N3CCN(C)CC3)C=C2)N=C1NC1=CC=CC(S(=O)(=O)NC(C)(C)C)=C1

>  <Kd (nM)>


>  <Assay (Kd)>


>  <Ki (nM)>


>  <Assay (Ki)>


>  <IC50 (nM)>


>  <Assay (IC50)>


>  <EC50 (nM)>


>  <Assay (EC50)>


>  <Article DOI>
10.1016/j.cell.2020.10.038

>  <Molecular Weight>
509.68

>  <Exact Mass>
509.25729436

>  <XLogP3>
4.2

>  <Heavy Atom Count>
36

>  <Ring Count>
4

>  <Hydrogen Bond Acceptor Count>
8

>  <Hydrogen Bond Donor Count>
3

>  <Rotatable Bond Count>
7

>  <Topological Polar Surface Area>
102.49

>  <Molecular Formula>
C26H35N7O2S

>  <InChI>
InChI=1S/C26H35N7O2S/c1-19-18-27-25(29-20-9-11-22(12-10-20)33-15-13-32(5)14-16-33)30-24(19)28-21-7-6-8-23(17-21)36(34,35)31-26(2,3)4/h6-12,17-18,31H,13-16H2,1-5H3,(H2,27,28,29,30)

>  <InChI Key>
JVDOKQYTTYUYDV-UHFFFAOYSA-N

>  <BindingDB>
192755

>  <PubChem>
16722832

>  <ChEMBL>
CHEMBL1995703

$$$$
Compound 819
Actelion Java MolfileCreator 2.0

  0  0  0  0  0  0              0 V3000
M  V30 BEGIN CTAB
M  V30 COUNTS 36 39 0 0 0
M  V30 BEGIN ATOM
M  V30 1 S 0.0 0.0 0.0 0
M  V30 2 O 0.561 1.3908 0.0 0
M  V30 3 O -0.5843 -1.3674 0.0 0
M  V30 4 N 1.3674 -0.561 0.0 0
M  V30 5 C -1.3908 0.5843 0.0 0
M  V30 6 C 2.5479 0.3623 0.0 0
M  V30 7 C -2.5947 -0.3155 0.0 0
M  V30 8 C -1.5895 2.0804 0.0 0
M  V30 9 C 3.4479 -0.8181 0.0 0
M  V30 10 C 1.6246 1.5661 0.0 0
M  V30 11 C 3.7284 1.2856 0.0 0
M  V30 12 C -3.9855 0.2688 0.0 0
M  V30 13 C -2.9804 2.6648 0.0 0
M  V30 14 N -5.1894 -0.6311 0.0 0
M  V30 15 C -4.1842 1.7648 0.0 0
M  V30 16 C -6.5802 -0.0467 0.0 0
M  V30 17 N -6.7789 1.4492 0.0 0
M  V30 18 C -7.7841 -0.9467 0.0 0
M  V30 19 C -8.1698 2.0336 0.0 0
M  V30 20 C -9.1749 -0.3623 0.0 0
M  V30 21 C -7.6088 -2.4193 0.0 0
M  V30 22 N -9.3736 1.1337 0.0 0
M  V30 23 N -8.3685 3.5297 0.0 0
M  V30 24 C -7.188 4.453 0.0 0
M  V30 25 C -5.8205 3.892 0.0 0
M  V30 26 C -7.3867 5.9491 0.0 0
M  V30 27 C -4.64 4.8154 0.0 0
M  V30 28 C -6.2062 6.8724 0.0 0
M  V30 29 C -4.8387 6.3114 0.0 0
M  V30 30 N -3.6583 7.2347 0.0 0
M  V30 31 C -2.2908 6.6737 0.0 0
M  V30 32 C -3.8569 8.7308 0.0 0
M  V30 33 C -1.1103 7.5971 0.0 0
M  V30 34 C -2.6765 9.6541 0.0 0
M  V30 35 N -1.309 9.0931 0.0 0
M  V30 36 C -0.1285 10.0165 0.0 0
M  V30 END ATOM
M  V30 BEGIN BOND
M  V30 1 2 1 2
M  V30 2 2 1 3
M  V30 3 1 1 4
M  V30 4 1 1 5
M  V30 5 1 4 6
M  V30 6 2 5 7
M  V30 7 1 5 8
M  V30 8 1 6 9
M  V30 9 1 6 10
M  V30 10 1 6 11
M  V30 11 1 7 12
M  V30 12 2 8 13
M  V30 13 1 12 14
M  V30 14 2 12 15
M  V30 15 1 14 16
M  V30 16 2 16 17
M  V30 17 1 16 18
M  V30 18 1 17 19
M  V30 19 2 18 20
M  V30 20 1 18 21
M  V30 21 2 19 22
M  V30 22 1 19 23
M  V30 23 1 23 24
M  V30 24 2 24 25
M  V30 25 1 24 26
M  V30 26 1 25 27
M  V30 27 2 26 28
M  V30 28 2 27 29
M  V30 29 1 29 30
M  V30 30 1 30 31
M  V30 31 1 30 32
M  V30 32 1 31 33
M  V30 33 1 32 34
M  V30 34 1 33 35
M  V30 35 1 35 36
M  V30 36 1 13 15
M  V30 37 1 20 22
M  V30 38 1 28 29
M  V30 39 1 34 35
M  V30 END BOND
M  V30 END CTAB
M  END
>  <Compound ID>
227

>  <Name>
TG101209

>  <Uniprot>
Q9UEE5

>  <Target>
STK17A

>  <Smiles>
CC1=CN=C(NC2=CC=C(N3CCN(C)CC3)C=C2)N=C1NC1=CC=CC(S(=O)(=O)NC(C)(C)C)=C1

>  <Kd (nM)>


>  <Assay (Kd)>


>  <Ki (nM)>


>  <Assay (Ki)>


>  <IC50 (nM)>


>  <Assay (IC50)>


>  <EC50 (nM)>


>  <Assay (EC50)>


>  <Article DOI>
10.1016/j.cell.2020.10.038

>  <Molecular Weight>
509.68

>  <Exact Mass>
509.25729436

>  <XLogP3>
4.2

>  <Heavy Atom Count>
36

>  <Ring Count>
4

>  <Hydrogen Bond Acceptor Count>
8

>  <Hydrogen Bond Donor Count>
3

>  <Rotatable Bond Count>
7

>  <Topological Polar Surface Area>
102.49

>  <Molecular Formula>
C26H35N7O2S

>  <InChI>
InChI=1S/C26H35N7O2S/c1-19-18-27-25(29-20-9-11-22(12-10-20)33-15-13-32(5)14-16-33)30-24(19)28-21-7-6-8-23(17-21)36(34,35)31-26(2,3)4/h6-12,17-18,31H,13-16H2,1-5H3,(H2,27,28,29,30)

>  <InChI Key>
JVDOKQYTTYUYDV-UHFFFAOYSA-N

>  <BindingDB>
192755

>  <PubChem>
16722832

>  <ChEMBL>
CHEMBL1995703

$$$$
Compound 820
Actelion Java MolfileCreator 2.0

  0  0  0  0  0  0              0 V3000
M  V30 BEGIN CTAB
M  V30 COUNTS 36 39 0 0 0
M  V30 BEGIN ATOM
M  V30 1 S 0.0 0.0 0.0 0
M  V30 2 O 0.561 1.3908 0.0 0
M  V30 3 O -0.5843 -1.3674 0.0 0
M  V30 4 N 1.3674 -0.561 0.0 0
M  V30 5 C -1.3908 0.5843 0.0 0
M  V30 6 C 2.5479 0.3623 0.0 0
M  V30 7 C -2.5947 -0.3155 0.0 0
M  V30 8 C -1.5895 2.0804 0.0 0
M  V30 9 C 3.4479 -0.8181 0.0 0
M  V30 10 C 1.6246 1.5661 0.0 0
M  V30 11 C 3.7284 1.2856 0.0 0
M  V30 12 C -3.9855 0.2688 0.0 0
M  V30 13 C -2.9804 2.6648 0.0 0
M  V30 14 N -5.1894 -0.6311 0.0 0
M  V30 15 C -4.1842 1.7648 0.0 0
M  V30 16 C -6.5802 -0.0467 0.0 0
M  V30 17 N -6.7789 1.4492 0.0 0
M  V30 18 C -7.7841 -0.9467 0.0 0
M  V30 19 C -8.1698 2.0336 0.0 0
M  V30 20 C -9.1749 -0.3623 0.0 0
M  V30 21 C -7.6088 -2.4193 0.0 0
M  V30 22 N -9.3736 1.1337 0.0 0
M  V30 23 N -8.3685 3.5297 0.0 0
M  V30 24 C -7.188 4.453 0.0 0
M  V30 25 C -5.8205 3.892 0.0 0
M  V30 26 C -7.3867 5.9491 0.0 0
M  V30 27 C -4.64 4.8154 0.0 0
M  V30 28 C -6.2062 6.8724 0.0 0
M  V30 29 C -4.8387 6.3114 0.0 0
M  V30 30 N -3.6583 7.2347 0.0 0
M  V30 31 C -2.2908 6.6737 0.0 0
M  V30 32 C -3.8569 8.7308 0.0 0
M  V30 33 C -1.1103 7.5971 0.0 0
M  V30 34 C -2.6765 9.6541 0.0 0
M  V30 35 N -1.309 9.0931 0.0 0
M  V30 36 C -0.1285 10.0165 0.0 0
M  V30 END ATOM
M  V30 BEGIN BOND
M  V30 1 2 1 2
M  V30 2 2 1 3
M  V30 3 1 1 4
M  V30 4 1 1 5
M  V30 5 1 4 6
M  V30 6 2 5 7
M  V30 7 1 5 8
M  V30 8 1 6 9
M  V30 9 1 6 10
M  V30 10 1 6 11
M  V30 11 1 7 12
M  V30 12 2 8 13
M  V30 13 1 12 14
M  V30 14 2 12 15
M  V30 15 1 14 16
M  V30 16 2 16 17
M  V30 17 1 16 18
M  V30 18 1 17 19
M  V30 19 2 18 20
M  V30 20 1 18 21
M  V30 21 2 19 22
M  V30 22 1 19 23
M  V30 23 1 23 24
M  V30 24 2 24 25
M  V30 25 1 24 26
M  V30 26 1 25 27
M  V30 27 2 26 28
M  V30 28 2 27 29
M  V30 29 1 29 30
M  V30 30 1 30 31
M  V30 31 1 30 32
M  V30 32 1 31 33
M  V30 33 1 32 34
M  V30 34 1 33 35
M  V30 35 1 35 36
M  V30 36 1 13 15
M  V30 37 1 20 22
M  V30 38 1 28 29
M  V30 39 1 34 35
M  V30 END BOND
M  V30 END CTAB
M  END
>  <Compound ID>
227

>  <Name>
TG101209

>  <Uniprot>
O94768

>  <Target>
STK17B

>  <Smiles>
CC1=CN=C(NC2=CC=C(N3CCN(C)CC3)C=C2)N=C1NC1=CC=CC(S(=O)(=O)NC(C)(C)C)=C1

>  <Kd (nM)>


>  <Assay (Kd)>


>  <Ki (nM)>


>  <Assay (Ki)>


>  <IC50 (nM)>


>  <Assay (IC50)>


>  <EC50 (nM)>


>  <Assay (EC50)>


>  <Article DOI>
10.1016/j.cell.2020.10.038

>  <Molecular Weight>
509.68

>  <Exact Mass>
509.25729436

>  <XLogP3>
4.2

>  <Heavy Atom Count>
36

>  <Ring Count>
4

>  <Hydrogen Bond Acceptor Count>
8

>  <Hydrogen Bond Donor Count>
3

>  <Rotatable Bond Count>
7

>  <Topological Polar Surface Area>
102.49

>  <Molecular Formula>
C26H35N7O2S

>  <InChI>
InChI=1S/C26H35N7O2S/c1-19-18-27-25(29-20-9-11-22(12-10-20)33-15-13-32(5)14-16-33)30-24(19)28-21-7-6-8-23(17-21)36(34,35)31-26(2,3)4/h6-12,17-18,31H,13-16H2,1-5H3,(H2,27,28,29,30)

>  <InChI Key>
JVDOKQYTTYUYDV-UHFFFAOYSA-N

>  <BindingDB>
192755

>  <PubChem>
16722832

>  <ChEMBL>
CHEMBL1995703

$$$$
Compound 821
Actelion Java MolfileCreator 2.0

  0  0  0  0  0  0              0 V3000
M  V30 BEGIN CTAB
M  V30 COUNTS 36 39 0 0 0
M  V30 BEGIN ATOM
M  V30 1 S 0.0 0.0 0.0 0
M  V30 2 O 0.561 1.3908 0.0 0
M  V30 3 O -0.5843 -1.3674 0.0 0
M  V30 4 N 1.3674 -0.561 0.0 0
M  V30 5 C -1.3908 0.5843 0.0 0
M  V30 6 C 2.5479 0.3623 0.0 0
M  V30 7 C -2.5947 -0.3155 0.0 0
M  V30 8 C -1.5895 2.0804 0.0 0
M  V30 9 C 3.4479 -0.8181 0.0 0
M  V30 10 C 1.6246 1.5661 0.0 0
M  V30 11 C 3.7284 1.2856 0.0 0
M  V30 12 C -3.9855 0.2688 0.0 0
M  V30 13 C -2.9804 2.6648 0.0 0
M  V30 14 N -5.1894 -0.6311 0.0 0
M  V30 15 C -4.1842 1.7648 0.0 0
M  V30 16 C -6.5802 -0.0467 0.0 0
M  V30 17 N -6.7789 1.4492 0.0 0
M  V30 18 C -7.7841 -0.9467 0.0 0
M  V30 19 C -8.1698 2.0336 0.0 0
M  V30 20 C -9.1749 -0.3623 0.0 0
M  V30 21 C -7.6088 -2.4193 0.0 0
M  V30 22 N -9.3736 1.1337 0.0 0
M  V30 23 N -8.3685 3.5297 0.0 0
M  V30 24 C -7.188 4.453 0.0 0
M  V30 25 C -5.8205 3.892 0.0 0
M  V30 26 C -7.3867 5.9491 0.0 0
M  V30 27 C -4.64 4.8154 0.0 0
M  V30 28 C -6.2062 6.8724 0.0 0
M  V30 29 C -4.8387 6.3114 0.0 0
M  V30 30 N -3.6583 7.2347 0.0 0
M  V30 31 C -2.2908 6.6737 0.0 0
M  V30 32 C -3.8569 8.7308 0.0 0
M  V30 33 C -1.1103 7.5971 0.0 0
M  V30 34 C -2.6765 9.6541 0.0 0
M  V30 35 N -1.309 9.0931 0.0 0
M  V30 36 C -0.1285 10.0165 0.0 0
M  V30 END ATOM
M  V30 BEGIN BOND
M  V30 1 2 1 2
M  V30 2 2 1 3
M  V30 3 1 1 4
M  V30 4 1 1 5
M  V30 5 1 4 6
M  V30 6 2 5 7
M  V30 7 1 5 8
M  V30 8 1 6 9
M  V30 9 1 6 10
M  V30 10 1 6 11
M  V30 11 1 7 12
M  V30 12 2 8 13
M  V30 13 1 12 14
M  V30 14 2 12 15
M  V30 15 1 14 16
M  V30 16 2 16 17
M  V30 17 1 16 18
M  V30 18 1 17 19
M  V30 19 2 18 20
M  V30 20 1 18 21
M  V30 21 2 19 22
M  V30 22 1 19 23
M  V30 23 1 23 24
M  V30 24 2 24 25
M  V30 25 1 24 26
M  V30 26 1 25 27
M  V30 27 2 26 28
M  V30 28 2 27 29
M  V30 29 1 29 30
M  V30 30 1 30 31
M  V30 31 1 30 32
M  V30 32 1 31 33
M  V30 33 1 32 34
M  V30 34 1 33 35
M  V30 35 1 35 36
M  V30 36 1 13 15
M  V30 37 1 20 22
M  V30 38 1 28 29
M  V30 39 1 34 35
M  V30 END BOND
M  V30 END CTAB
M  END
>  <Compound ID>
227

>  <Name>
TG101209

>  <Uniprot>
P30291

>  <Target>
Wee1

>  <Smiles>
CC1=CN=C(NC2=CC=C(N3CCN(C)CC3)C=C2)N=C1NC1=CC=CC(S(=O)(=O)NC(C)(C)C)=C1

>  <Kd (nM)>


>  <Assay (Kd)>


>  <Ki (nM)>
125.89

>  <Assay (Ki)>
Ki of Wee1

>  <IC50 (nM)>


>  <Assay (IC50)>


>  <EC50 (nM)>


>  <Assay (EC50)>


>  <Article DOI>


>  <Molecular Weight>
509.68

>  <Exact Mass>
509.25729436

>  <XLogP3>
4.2

>  <Heavy Atom Count>
36

>  <Ring Count>
4

>  <Hydrogen Bond Acceptor Count>
8

>  <Hydrogen Bond Donor Count>
3

>  <Rotatable Bond Count>
7

>  <Topological Polar Surface Area>
102.49

>  <Molecular Formula>
C26H35N7O2S

>  <InChI>
InChI=1S/C26H35N7O2S/c1-19-18-27-25(29-20-9-11-22(12-10-20)33-15-13-32(5)14-16-33)30-24(19)28-21-7-6-8-23(17-21)36(34,35)31-26(2,3)4/h6-12,17-18,31H,13-16H2,1-5H3,(H2,27,28,29,30)

>  <InChI Key>
JVDOKQYTTYUYDV-UHFFFAOYSA-N

>  <BindingDB>
192755

>  <PubChem>
16722832

>  <ChEMBL>
CHEMBL1995703

$$$$
Compound 822
Actelion Java MolfileCreator 2.0

  0  0  0  0  0  0              0 V3000
M  V30 BEGIN CTAB
M  V30 COUNTS 29 32 0 0 0
M  V30 BEGIN ATOM
M  V30 1 O 0.0 0.0 0.0 0
M  V30 2 C 1.4906 0.0236 0.0 0
M  V30 3 C 2.2477 -1.254 0.0 0
M  V30 4 C 3.7383 -1.2303 0.0 0 CFG=1
M  V30 5 N 4.4954 -2.508 0.0 0
M  V30 6 C 4.4599 0.0946 0.0 0
M  V30 7 C 3.7501 -3.8093 0.0 0
M  V30 8 C 5.9861 -2.4843 0.0 0
M  V30 9 C 5.9506 0.1183 0.0 0
M  V30 10 N 4.5073 -5.087 0.0 0
M  V30 11 C 2.2359 -3.8093 0.0 0
M  V30 12 C 6.7077 -1.1593 0.0 0
M  V30 13 C 3.762 -6.3883 0.0 0
M  V30 14 C 1.4906 -5.1106 0.0 0
M  V30 15 N 2.2477 -6.3883 0.0 0
M  V30 16 C 4.2233 -7.7961 0.0 0
M  V30 17 N -0.0236 -5.1106 0.0 0
M  V30 18 N 1.7863 -7.8079 0.0 0
M  V30 19 C 3.0048 -8.6833 0.0 0
M  V30 20 C 5.643 -8.2338 0.0 0
M  V30 21 C -0.8044 -3.8093 0.0 0
M  V30 22 C 5.9624 -9.6889 0.0 0
M  V30 23 C -2.3187 -3.8093 0.0 0
M  V30 24 C -3.064 -5.1106 0.0 0
M  V30 25 C -3.0995 -2.508 0.0 0
M  V30 26 N -4.5783 -5.1106 0.0 0 CHG=1
M  V30 27 C -4.6137 -2.508 0.0 0
M  V30 28 O -5.3236 -6.4119 0.0 0 CHG=-1
M  V30 29 C -5.359 -3.8093 0.0 0
M  V30 END ATOM
M  V30 BEGIN BOND
M  V30 1 1 1 2
M  V30 2 1 2 3
M  V30 3 1 4 3 CFG=3
M  V30 4 1 4 5
M  V30 5 1 4 6
M  V30 6 1 5 7
M  V30 7 1 5 8
M  V30 8 1 6 9
M  V30 9 2 7 10
M  V30 10 1 7 11
M  V30 11 1 8 12
M  V30 12 1 10 13
M  V30 13 2 11 14
M  V30 14 1 13 15
M  V30 15 2 13 16
M  V30 16 1 14 17
M  V30 17 1 15 18
M  V30 18 1 16 19
M  V30 19 1 16 20
M  V30 20 1 17 21
M  V30 21 1 20 22
M  V30 22 1 21 23
M  V30 23 2 23 24
M  V30 24 1 23 25
M  V30 25 1 24 26
M  V30 26 2 25 27
M  V30 27 1 26 28
M  V30 28 2 26 29
M  V30 29 1 9 12
M  V30 30 1 14 15
M  V30 31 2 18 19
M  V30 32 1 27 29
M  V30 END BOND
M  V30 BEGIN COLLECTION
M  V30 MDLV30/STEABS ATOMS=(1 4)
M  V30 END COLLECTION
M  V30 END CTAB
M  END
>  <Compound ID>
228

>  <Name>
Dinaciclib

>  <Uniprot>
O14965

>  <Target>
AURKA

>  <Smiles>
CCC1=C2N=C(N3CCCC[C@H]3CCO)C=C(NCC3=CC=C[N+]([O-])=C3)N2N=C1

>  <Kd (nM)>


>  <Assay (Kd)>


>  <Ki (nM)>


>  <Assay (Ki)>


>  <IC50 (nM)>


>  <Assay (IC50)>


>  <EC50 (nM)>


>  <Assay (EC50)>


>  <Article DOI>
10.1016/j.cell.2020.10.038

>  <Molecular Weight>
396.495

>  <Exact Mass>
396.227374136

>  <XLogP3>
1.91

>  <Heavy Atom Count>
29

>  <Ring Count>
4

>  <Hydrogen Bond Acceptor Count>
7

>  <Hydrogen Bond Donor Count>
2

>  <Rotatable Bond Count>
7

>  <Topological Polar Surface Area>
92.63

>  <Molecular Formula>
C21H28N6O2

>  <InChI>
InChI=1S/C21H28N6O2/c1-2-17-14-23-27-19(22-13-16-6-5-9-25(29)15-16)12-20(24-21(17)27)26-10-4-3-7-18(26)8-11-28/h5-6,9,12,14-15,18,22,28H,2-4,7-8,10-11,13H2,1H3/t18-/m0/s1

>  <InChI Key>
PIMQWRZWLQKKBJ-SFHVURJKSA-N

>  <BindingDB>
50139171

>  <PubChem>
46926350

>  <ChEMBL>
CHEMBL2103840

$$$$
Compound 823
Actelion Java MolfileCreator 2.0

  0  0  0  0  0  0              0 V3000
M  V30 BEGIN CTAB
M  V30 COUNTS 29 32 0 0 0
M  V30 BEGIN ATOM
M  V30 1 O 0.0 0.0 0.0 0
M  V30 2 C 1.4906 0.0236 0.0 0
M  V30 3 C 2.2477 -1.254 0.0 0
M  V30 4 C 3.7383 -1.2303 0.0 0 CFG=1
M  V30 5 N 4.4954 -2.508 0.0 0
M  V30 6 C 4.4599 0.0946 0.0 0
M  V30 7 C 3.7501 -3.8093 0.0 0
M  V30 8 C 5.9861 -2.4843 0.0 0
M  V30 9 C 5.9506 0.1183 0.0 0
M  V30 10 N 4.5073 -5.087 0.0 0
M  V30 11 C 2.2359 -3.8093 0.0 0
M  V30 12 C 6.7077 -1.1593 0.0 0
M  V30 13 C 3.762 -6.3883 0.0 0
M  V30 14 C 1.4906 -5.1106 0.0 0
M  V30 15 N 2.2477 -6.3883 0.0 0
M  V30 16 C 4.2233 -7.7961 0.0 0
M  V30 17 N -0.0236 -5.1106 0.0 0
M  V30 18 N 1.7863 -7.8079 0.0 0
M  V30 19 C 3.0048 -8.6833 0.0 0
M  V30 20 C 5.643 -8.2338 0.0 0
M  V30 21 C -0.8044 -3.8093 0.0 0
M  V30 22 C 5.9624 -9.6889 0.0 0
M  V30 23 C -2.3187 -3.8093 0.0 0
M  V30 24 C -3.064 -5.1106 0.0 0
M  V30 25 C -3.0995 -2.508 0.0 0
M  V30 26 N -4.5783 -5.1106 0.0 0 CHG=1
M  V30 27 C -4.6137 -2.508 0.0 0
M  V30 28 O -5.3236 -6.4119 0.0 0 CHG=-1
M  V30 29 C -5.359 -3.8093 0.0 0
M  V30 END ATOM
M  V30 BEGIN BOND
M  V30 1 1 1 2
M  V30 2 1 2 3
M  V30 3 1 4 3 CFG=3
M  V30 4 1 4 5
M  V30 5 1 4 6
M  V30 6 1 5 7
M  V30 7 1 5 8
M  V30 8 1 6 9
M  V30 9 2 7 10
M  V30 10 1 7 11
M  V30 11 1 8 12
M  V30 12 1 10 13
M  V30 13 2 11 14
M  V30 14 1 13 15
M  V30 15 2 13 16
M  V30 16 1 14 17
M  V30 17 1 15 18
M  V30 18 1 16 19
M  V30 19 1 16 20
M  V30 20 1 17 21
M  V30 21 1 20 22
M  V30 22 1 21 23
M  V30 23 2 23 24
M  V30 24 1 23 25
M  V30 25 1 24 26
M  V30 26 2 25 27
M  V30 27 1 26 28
M  V30 28 2 26 29
M  V30 29 1 9 12
M  V30 30 1 14 15
M  V30 31 2 18 19
M  V30 32 1 27 29
M  V30 END BOND
M  V30 BEGIN COLLECTION
M  V30 MDLV30/STEABS ATOMS=(1 4)
M  V30 END COLLECTION
M  V30 END CTAB
M  END
>  <Compound ID>
228

>  <Name>
Dinaciclib

>  <Uniprot>
O60566

>  <Target>
BUB1B

>  <Smiles>
CCC1=C2N=C(N3CCCC[C@H]3CCO)C=C(NCC3=CC=C[N+]([O-])=C3)N2N=C1

>  <Kd (nM)>


>  <Assay (Kd)>


>  <Ki (nM)>


>  <Assay (Ki)>


>  <IC50 (nM)>


>  <Assay (IC50)>


>  <EC50 (nM)>


>  <Assay (EC50)>


>  <Article DOI>
10.1016/j.cell.2020.10.038

>  <Molecular Weight>
396.495

>  <Exact Mass>
396.227374136

>  <XLogP3>
1.91

>  <Heavy Atom Count>
29

>  <Ring Count>
4

>  <Hydrogen Bond Acceptor Count>
7

>  <Hydrogen Bond Donor Count>
2

>  <Rotatable Bond Count>
7

>  <Topological Polar Surface Area>
92.63

>  <Molecular Formula>
C21H28N6O2

>  <InChI>
InChI=1S/C21H28N6O2/c1-2-17-14-23-27-19(22-13-16-6-5-9-25(29)15-16)12-20(24-21(17)27)26-10-4-3-7-18(26)8-11-28/h5-6,9,12,14-15,18,22,28H,2-4,7-8,10-11,13H2,1H3/t18-/m0/s1

>  <InChI Key>
PIMQWRZWLQKKBJ-SFHVURJKSA-N

>  <BindingDB>
50139171

>  <PubChem>
46926350

>  <ChEMBL>
CHEMBL2103840

$$$$
Compound 824
Actelion Java MolfileCreator 2.0

  0  0  0  0  0  0              0 V3000
M  V30 BEGIN CTAB
M  V30 COUNTS 29 32 0 0 0
M  V30 BEGIN ATOM
M  V30 1 O 0.0 0.0 0.0 0
M  V30 2 C 1.4906 0.0236 0.0 0
M  V30 3 C 2.2477 -1.254 0.0 0
M  V30 4 C 3.7383 -1.2303 0.0 0 CFG=1
M  V30 5 N 4.4954 -2.508 0.0 0
M  V30 6 C 4.4599 0.0946 0.0 0
M  V30 7 C 3.7501 -3.8093 0.0 0
M  V30 8 C 5.9861 -2.4843 0.0 0
M  V30 9 C 5.9506 0.1183 0.0 0
M  V30 10 N 4.5073 -5.087 0.0 0
M  V30 11 C 2.2359 -3.8093 0.0 0
M  V30 12 C 6.7077 -1.1593 0.0 0
M  V30 13 C 3.762 -6.3883 0.0 0
M  V30 14 C 1.4906 -5.1106 0.0 0
M  V30 15 N 2.2477 -6.3883 0.0 0
M  V30 16 C 4.2233 -7.7961 0.0 0
M  V30 17 N -0.0236 -5.1106 0.0 0
M  V30 18 N 1.7863 -7.8079 0.0 0
M  V30 19 C 3.0048 -8.6833 0.0 0
M  V30 20 C 5.643 -8.2338 0.0 0
M  V30 21 C -0.8044 -3.8093 0.0 0
M  V30 22 C 5.9624 -9.6889 0.0 0
M  V30 23 C -2.3187 -3.8093 0.0 0
M  V30 24 C -3.064 -5.1106 0.0 0
M  V30 25 C -3.0995 -2.508 0.0 0
M  V30 26 N -4.5783 -5.1106 0.0 0 CHG=1
M  V30 27 C -4.6137 -2.508 0.0 0
M  V30 28 O -5.3236 -6.4119 0.0 0 CHG=-1
M  V30 29 C -5.359 -3.8093 0.0 0
M  V30 END ATOM
M  V30 BEGIN BOND
M  V30 1 1 1 2
M  V30 2 1 2 3
M  V30 3 1 4 3 CFG=3
M  V30 4 1 4 5
M  V30 5 1 4 6
M  V30 6 1 5 7
M  V30 7 1 5 8
M  V30 8 1 6 9
M  V30 9 2 7 10
M  V30 10 1 7 11
M  V30 11 1 8 12
M  V30 12 1 10 13
M  V30 13 2 11 14
M  V30 14 1 13 15
M  V30 15 2 13 16
M  V30 16 1 14 17
M  V30 17 1 15 18
M  V30 18 1 16 19
M  V30 19 1 16 20
M  V30 20 1 17 21
M  V30 21 1 20 22
M  V30 22 1 21 23
M  V30 23 2 23 24
M  V30 24 1 23 25
M  V30 25 1 24 26
M  V30 26 2 25 27
M  V30 27 1 26 28
M  V30 28 2 26 29
M  V30 29 1 9 12
M  V30 30 1 14 15
M  V30 31 2 18 19
M  V30 32 1 27 29
M  V30 END BOND
M  V30 BEGIN COLLECTION
M  V30 MDLV30/STEABS ATOMS=(1 4)
M  V30 END COLLECTION
M  V30 END CTAB
M  END
>  <Compound ID>
228

>  <Name>
Dinaciclib

>  <Uniprot>
O43683

>  <Target>
BUB1

>  <Smiles>
CCC1=C2N=C(N3CCCC[C@H]3CCO)C=C(NCC3=CC=C[N+]([O-])=C3)N2N=C1

>  <Kd (nM)>
>30000

>  <Assay (Kd)>
Kd apparent of BUB1A

>  <Ki (nM)>


>  <Assay (Ki)>


>  <IC50 (nM)>


>  <Assay (IC50)>


>  <EC50 (nM)>


>  <Assay (EC50)>


>  <Article DOI>
10.1126/science.aan4368

>  <Molecular Weight>
396.495

>  <Exact Mass>
396.227374136

>  <XLogP3>
1.91

>  <Heavy Atom Count>
29

>  <Ring Count>
4

>  <Hydrogen Bond Acceptor Count>
7

>  <Hydrogen Bond Donor Count>
2

>  <Rotatable Bond Count>
7

>  <Topological Polar Surface Area>
92.63

>  <Molecular Formula>
C21H28N6O2

>  <InChI>
InChI=1S/C21H28N6O2/c1-2-17-14-23-27-19(22-13-16-6-5-9-25(29)15-16)12-20(24-21(17)27)26-10-4-3-7-18(26)8-11-28/h5-6,9,12,14-15,18,22,28H,2-4,7-8,10-11,13H2,1H3/t18-/m0/s1

>  <InChI Key>
PIMQWRZWLQKKBJ-SFHVURJKSA-N

>  <BindingDB>
50139171

>  <PubChem>
46926350

>  <ChEMBL>
CHEMBL2103840

$$$$
Compound 825
Actelion Java MolfileCreator 2.0

  0  0  0  0  0  0              0 V3000
M  V30 BEGIN CTAB
M  V30 COUNTS 29 32 0 0 0
M  V30 BEGIN ATOM
M  V30 1 O 0.0 0.0 0.0 0
M  V30 2 C 1.4906 0.0236 0.0 0
M  V30 3 C 2.2477 -1.254 0.0 0
M  V30 4 C 3.7383 -1.2303 0.0 0 CFG=1
M  V30 5 N 4.4954 -2.508 0.0 0
M  V30 6 C 4.4599 0.0946 0.0 0
M  V30 7 C 3.7501 -3.8093 0.0 0
M  V30 8 C 5.9861 -2.4843 0.0 0
M  V30 9 C 5.9506 0.1183 0.0 0
M  V30 10 N 4.5073 -5.087 0.0 0
M  V30 11 C 2.2359 -3.8093 0.0 0
M  V30 12 C 6.7077 -1.1593 0.0 0
M  V30 13 C 3.762 -6.3883 0.0 0
M  V30 14 C 1.4906 -5.1106 0.0 0
M  V30 15 N 2.2477 -6.3883 0.0 0
M  V30 16 C 4.2233 -7.7961 0.0 0
M  V30 17 N -0.0236 -5.1106 0.0 0
M  V30 18 N 1.7863 -7.8079 0.0 0
M  V30 19 C 3.0048 -8.6833 0.0 0
M  V30 20 C 5.643 -8.2338 0.0 0
M  V30 21 C -0.8044 -3.8093 0.0 0
M  V30 22 C 5.9624 -9.6889 0.0 0
M  V30 23 C -2.3187 -3.8093 0.0 0
M  V30 24 C -3.064 -5.1106 0.0 0
M  V30 25 C -3.0995 -2.508 0.0 0
M  V30 26 N -4.5783 -5.1106 0.0 0 CHG=1
M  V30 27 C -4.6137 -2.508 0.0 0
M  V30 28 O -5.3236 -6.4119 0.0 0 CHG=-1
M  V30 29 C -5.359 -3.8093 0.0 0
M  V30 END ATOM
M  V30 BEGIN BOND
M  V30 1 1 1 2
M  V30 2 1 2 3
M  V30 3 1 4 3 CFG=3
M  V30 4 1 4 5
M  V30 5 1 4 6
M  V30 6 1 5 7
M  V30 7 1 5 8
M  V30 8 1 6 9
M  V30 9 2 7 10
M  V30 10 1 7 11
M  V30 11 1 8 12
M  V30 12 1 10 13
M  V30 13 2 11 14
M  V30 14 1 13 15
M  V30 15 2 13 16
M  V30 16 1 14 17
M  V30 17 1 15 18
M  V30 18 1 16 19
M  V30 19 1 16 20
M  V30 20 1 17 21
M  V30 21 1 20 22
M  V30 22 1 21 23
M  V30 23 2 23 24
M  V30 24 1 23 25
M  V30 25 1 24 26
M  V30 26 2 25 27
M  V30 27 1 26 28
M  V30 28 2 26 29
M  V30 29 1 9 12
M  V30 30 1 14 15
M  V30 31 2 18 19
M  V30 32 1 27 29
M  V30 END BOND
M  V30 BEGIN COLLECTION
M  V30 MDLV30/STEABS ATOMS=(1 4)
M  V30 END COLLECTION
M  V30 END CTAB
M  END
>  <Compound ID>
228

>  <Name>
Dinaciclib

>  <Uniprot>
P11802

>  <Target>
CDK4

>  <Smiles>
CCC1=C2N=C(N3CCCC[C@H]3CCO)C=C(NCC3=CC=C[N+]([O-])=C3)N2N=C1

>  <Kd (nM)>


>  <Assay (Kd)>


>  <Ki (nM)>


>  <Assay (Ki)>


>  <IC50 (nM)>
127

>  <Assay (IC50)>
Inhibition of CDK4

>  <EC50 (nM)>


>  <Assay (EC50)>


>  <Article DOI>
10.1016/j.ejmech.2016.01.011

>  <Molecular Weight>
396.495

>  <Exact Mass>
396.227374136

>  <XLogP3>
1.91

>  <Heavy Atom Count>
29

>  <Ring Count>
4

>  <Hydrogen Bond Acceptor Count>
7

>  <Hydrogen Bond Donor Count>
2

>  <Rotatable Bond Count>
7

>  <Topological Polar Surface Area>
92.63

>  <Molecular Formula>
C21H28N6O2

>  <InChI>
InChI=1S/C21H28N6O2/c1-2-17-14-23-27-19(22-13-16-6-5-9-25(29)15-16)12-20(24-21(17)27)26-10-4-3-7-18(26)8-11-28/h5-6,9,12,14-15,18,22,28H,2-4,7-8,10-11,13H2,1H3/t18-/m0/s1

>  <InChI Key>
PIMQWRZWLQKKBJ-SFHVURJKSA-N

>  <BindingDB>
50139171

>  <PubChem>
46926350

>  <ChEMBL>
CHEMBL2103840

$$$$
Compound 826
Actelion Java MolfileCreator 2.0

  0  0  0  0  0  0              0 V3000
M  V30 BEGIN CTAB
M  V30 COUNTS 29 32 0 0 0
M  V30 BEGIN ATOM
M  V30 1 O 0.0 0.0 0.0 0
M  V30 2 C 1.4906 0.0236 0.0 0
M  V30 3 C 2.2477 -1.254 0.0 0
M  V30 4 C 3.7383 -1.2303 0.0 0 CFG=1
M  V30 5 N 4.4954 -2.508 0.0 0
M  V30 6 C 4.4599 0.0946 0.0 0
M  V30 7 C 3.7501 -3.8093 0.0 0
M  V30 8 C 5.9861 -2.4843 0.0 0
M  V30 9 C 5.9506 0.1183 0.0 0
M  V30 10 N 4.5073 -5.087 0.0 0
M  V30 11 C 2.2359 -3.8093 0.0 0
M  V30 12 C 6.7077 -1.1593 0.0 0
M  V30 13 C 3.762 -6.3883 0.0 0
M  V30 14 C 1.4906 -5.1106 0.0 0
M  V30 15 N 2.2477 -6.3883 0.0 0
M  V30 16 C 4.2233 -7.7961 0.0 0
M  V30 17 N -0.0236 -5.1106 0.0 0
M  V30 18 N 1.7863 -7.8079 0.0 0
M  V30 19 C 3.0048 -8.6833 0.0 0
M  V30 20 C 5.643 -8.2338 0.0 0
M  V30 21 C -0.8044 -3.8093 0.0 0
M  V30 22 C 5.9624 -9.6889 0.0 0
M  V30 23 C -2.3187 -3.8093 0.0 0
M  V30 24 C -3.064 -5.1106 0.0 0
M  V30 25 C -3.0995 -2.508 0.0 0
M  V30 26 N -4.5783 -5.1106 0.0 0 CHG=1
M  V30 27 C -4.6137 -2.508 0.0 0
M  V30 28 O -5.3236 -6.4119 0.0 0 CHG=-1
M  V30 29 C -5.359 -3.8093 0.0 0
M  V30 END ATOM
M  V30 BEGIN BOND
M  V30 1 1 1 2
M  V30 2 1 2 3
M  V30 3 1 4 3 CFG=3
M  V30 4 1 4 5
M  V30 5 1 4 6
M  V30 6 1 5 7
M  V30 7 1 5 8
M  V30 8 1 6 9
M  V30 9 2 7 10
M  V30 10 1 7 11
M  V30 11 1 8 12
M  V30 12 1 10 13
M  V30 13 2 11 14
M  V30 14 1 13 15
M  V30 15 2 13 16
M  V30 16 1 14 17
M  V30 17 1 15 18
M  V30 18 1 16 19
M  V30 19 1 16 20
M  V30 20 1 17 21
M  V30 21 1 20 22
M  V30 22 1 21 23
M  V30 23 2 23 24
M  V30 24 1 23 25
M  V30 25 1 24 26
M  V30 26 2 25 27
M  V30 27 1 26 28
M  V30 28 2 26 29
M  V30 29 1 9 12
M  V30 30 1 14 15
M  V30 31 2 18 19
M  V30 32 1 27 29
M  V30 END BOND
M  V30 BEGIN COLLECTION
M  V30 MDLV30/STEABS ATOMS=(1 4)
M  V30 END COLLECTION
M  V30 END CTAB
M  END
>  <Compound ID>
228

>  <Name>
Dinaciclib

>  <Uniprot>
P48729

>  <Target>
CSNK1A1

>  <Smiles>
CCC1=C2N=C(N3CCCC[C@H]3CCO)C=C(NCC3=CC=C[N+]([O-])=C3)N2N=C1

>  <Kd (nM)>


>  <Assay (Kd)>


>  <Ki (nM)>


>  <Assay (Ki)>


>  <IC50 (nM)>


>  <Assay (IC50)>


>  <EC50 (nM)>


>  <Assay (EC50)>


>  <Article DOI>
10.1016/j.cell.2020.10.038

>  <Molecular Weight>
396.495

>  <Exact Mass>
396.227374136

>  <XLogP3>
1.91

>  <Heavy Atom Count>
29

>  <Ring Count>
4

>  <Hydrogen Bond Acceptor Count>
7

>  <Hydrogen Bond Donor Count>
2

>  <Rotatable Bond Count>
7

>  <Topological Polar Surface Area>
92.63

>  <Molecular Formula>
C21H28N6O2

>  <InChI>
InChI=1S/C21H28N6O2/c1-2-17-14-23-27-19(22-13-16-6-5-9-25(29)15-16)12-20(24-21(17)27)26-10-4-3-7-18(26)8-11-28/h5-6,9,12,14-15,18,22,28H,2-4,7-8,10-11,13H2,1H3/t18-/m0/s1

>  <InChI Key>
PIMQWRZWLQKKBJ-SFHVURJKSA-N

>  <BindingDB>
50139171

>  <PubChem>
46926350

>  <ChEMBL>
CHEMBL2103840

$$$$
Compound 827
Actelion Java MolfileCreator 2.0

  0  0  0  0  0  0              0 V3000
M  V30 BEGIN CTAB
M  V30 COUNTS 29 32 0 0 0
M  V30 BEGIN ATOM
M  V30 1 O 0.0 0.0 0.0 0
M  V30 2 C 1.4906 0.0236 0.0 0
M  V30 3 C 2.2477 -1.254 0.0 0
M  V30 4 C 3.7383 -1.2303 0.0 0 CFG=1
M  V30 5 N 4.4954 -2.508 0.0 0
M  V30 6 C 4.4599 0.0946 0.0 0
M  V30 7 C 3.7501 -3.8093 0.0 0
M  V30 8 C 5.9861 -2.4843 0.0 0
M  V30 9 C 5.9506 0.1183 0.0 0
M  V30 10 N 4.5073 -5.087 0.0 0
M  V30 11 C 2.2359 -3.8093 0.0 0
M  V30 12 C 6.7077 -1.1593 0.0 0
M  V30 13 C 3.762 -6.3883 0.0 0
M  V30 14 C 1.4906 -5.1106 0.0 0
M  V30 15 N 2.2477 -6.3883 0.0 0
M  V30 16 C 4.2233 -7.7961 0.0 0
M  V30 17 N -0.0236 -5.1106 0.0 0
M  V30 18 N 1.7863 -7.8079 0.0 0
M  V30 19 C 3.0048 -8.6833 0.0 0
M  V30 20 C 5.643 -8.2338 0.0 0
M  V30 21 C -0.8044 -3.8093 0.0 0
M  V30 22 C 5.9624 -9.6889 0.0 0
M  V30 23 C -2.3187 -3.8093 0.0 0
M  V30 24 C -3.064 -5.1106 0.0 0
M  V30 25 C -3.0995 -2.508 0.0 0
M  V30 26 N -4.5783 -5.1106 0.0 0 CHG=1
M  V30 27 C -4.6137 -2.508 0.0 0
M  V30 28 O -5.3236 -6.4119 0.0 0 CHG=-1
M  V30 29 C -5.359 -3.8093 0.0 0
M  V30 END ATOM
M  V30 BEGIN BOND
M  V30 1 1 1 2
M  V30 2 1 2 3
M  V30 3 1 4 3 CFG=3
M  V30 4 1 4 5
M  V30 5 1 4 6
M  V30 6 1 5 7
M  V30 7 1 5 8
M  V30 8 1 6 9
M  V30 9 2 7 10
M  V30 10 1 7 11
M  V30 11 1 8 12
M  V30 12 1 10 13
M  V30 13 2 11 14
M  V30 14 1 13 15
M  V30 15 2 13 16
M  V30 16 1 14 17
M  V30 17 1 15 18
M  V30 18 1 16 19
M  V30 19 1 16 20
M  V30 20 1 17 21
M  V30 21 1 20 22
M  V30 22 1 21 23
M  V30 23 2 23 24
M  V30 24 1 23 25
M  V30 25 1 24 26
M  V30 26 2 25 27
M  V30 27 1 26 28
M  V30 28 2 26 29
M  V30 29 1 9 12
M  V30 30 1 14 15
M  V30 31 2 18 19
M  V30 32 1 27 29
M  V30 END BOND
M  V30 BEGIN COLLECTION
M  V30 MDLV30/STEABS ATOMS=(1 4)
M  V30 END COLLECTION
M  V30 END CTAB
M  END
>  <Compound ID>
228

>  <Name>
Dinaciclib

>  <Uniprot>
Q13233

>  <Target>
MAP3K1

>  <Smiles>
CCC1=C2N=C(N3CCCC[C@H]3CCO)C=C(NCC3=CC=C[N+]([O-])=C3)N2N=C1

>  <Kd (nM)>


>  <Assay (Kd)>


>  <Ki (nM)>


>  <Assay (Ki)>


>  <IC50 (nM)>


>  <Assay (IC50)>


>  <EC50 (nM)>


>  <Assay (EC50)>


>  <Article DOI>
10.1016/j.cell.2020.10.038

>  <Molecular Weight>
396.495

>  <Exact Mass>
396.227374136

>  <XLogP3>
1.91

>  <Heavy Atom Count>
29

>  <Ring Count>
4

>  <Hydrogen Bond Acceptor Count>
7

>  <Hydrogen Bond Donor Count>
2

>  <Rotatable Bond Count>
7

>  <Topological Polar Surface Area>
92.63

>  <Molecular Formula>
C21H28N6O2

>  <InChI>
InChI=1S/C21H28N6O2/c1-2-17-14-23-27-19(22-13-16-6-5-9-25(29)15-16)12-20(24-21(17)27)26-10-4-3-7-18(26)8-11-28/h5-6,9,12,14-15,18,22,28H,2-4,7-8,10-11,13H2,1H3/t18-/m0/s1

>  <InChI Key>
PIMQWRZWLQKKBJ-SFHVURJKSA-N

>  <BindingDB>
50139171

>  <PubChem>
46926350

>  <ChEMBL>
CHEMBL2103840

$$$$
Compound 828
Actelion Java MolfileCreator 2.0

  0  0  0  0  0  0              0 V3000
M  V30 BEGIN CTAB
M  V30 COUNTS 29 32 0 0 0
M  V30 BEGIN ATOM
M  V30 1 O 0.0 0.0 0.0 0
M  V30 2 C 1.4906 0.0236 0.0 0
M  V30 3 C 2.2477 -1.254 0.0 0
M  V30 4 C 3.7383 -1.2303 0.0 0 CFG=1
M  V30 5 N 4.4954 -2.508 0.0 0
M  V30 6 C 4.4599 0.0946 0.0 0
M  V30 7 C 3.7501 -3.8093 0.0 0
M  V30 8 C 5.9861 -2.4843 0.0 0
M  V30 9 C 5.9506 0.1183 0.0 0
M  V30 10 N 4.5073 -5.087 0.0 0
M  V30 11 C 2.2359 -3.8093 0.0 0
M  V30 12 C 6.7077 -1.1593 0.0 0
M  V30 13 C 3.762 -6.3883 0.0 0
M  V30 14 C 1.4906 -5.1106 0.0 0
M  V30 15 N 2.2477 -6.3883 0.0 0
M  V30 16 C 4.2233 -7.7961 0.0 0
M  V30 17 N -0.0236 -5.1106 0.0 0
M  V30 18 N 1.7863 -7.8079 0.0 0
M  V30 19 C 3.0048 -8.6833 0.0 0
M  V30 20 C 5.643 -8.2338 0.0 0
M  V30 21 C -0.8044 -3.8093 0.0 0
M  V30 22 C 5.9624 -9.6889 0.0 0
M  V30 23 C -2.3187 -3.8093 0.0 0
M  V30 24 C -3.064 -5.1106 0.0 0
M  V30 25 C -3.0995 -2.508 0.0 0
M  V30 26 N -4.5783 -5.1106 0.0 0 CHG=1
M  V30 27 C -4.6137 -2.508 0.0 0
M  V30 28 O -5.3236 -6.4119 0.0 0 CHG=-1
M  V30 29 C -5.359 -3.8093 0.0 0
M  V30 END ATOM
M  V30 BEGIN BOND
M  V30 1 1 1 2
M  V30 2 1 2 3
M  V30 3 1 4 3 CFG=3
M  V30 4 1 4 5
M  V30 5 1 4 6
M  V30 6 1 5 7
M  V30 7 1 5 8
M  V30 8 1 6 9
M  V30 9 2 7 10
M  V30 10 1 7 11
M  V30 11 1 8 12
M  V30 12 1 10 13
M  V30 13 2 11 14
M  V30 14 1 13 15
M  V30 15 2 13 16
M  V30 16 1 14 17
M  V30 17 1 15 18
M  V30 18 1 16 19
M  V30 19 1 16 20
M  V30 20 1 17 21
M  V30 21 1 20 22
M  V30 22 1 21 23
M  V30 23 2 23 24
M  V30 24 1 23 25
M  V30 25 1 24 26
M  V30 26 2 25 27
M  V30 27 1 26 28
M  V30 28 2 26 29
M  V30 29 1 9 12
M  V30 30 1 14 15
M  V30 31 2 18 19
M  V30 32 1 27 29
M  V30 END BOND
M  V30 BEGIN COLLECTION
M  V30 MDLV30/STEABS ATOMS=(1 4)
M  V30 END COLLECTION
M  V30 END CTAB
M  END
>  <Compound ID>
228

>  <Name>
Dinaciclib

>  <Uniprot>
O60285

>  <Target>
NUAK1

>  <Smiles>
CCC1=C2N=C(N3CCCC[C@H]3CCO)C=C(NCC3=CC=C[N+]([O-])=C3)N2N=C1

>  <Kd (nM)>


>  <Assay (Kd)>


>  <Ki (nM)>


>  <Assay (Ki)>


>  <IC50 (nM)>


>  <Assay (IC50)>


>  <EC50 (nM)>


>  <Assay (EC50)>


>  <Article DOI>
10.1016/j.cell.2020.10.038

>  <Molecular Weight>
396.495

>  <Exact Mass>
396.227374136

>  <XLogP3>
1.91

>  <Heavy Atom Count>
29

>  <Ring Count>
4

>  <Hydrogen Bond Acceptor Count>
7

>  <Hydrogen Bond Donor Count>
2

>  <Rotatable Bond Count>
7

>  <Topological Polar Surface Area>
92.63

>  <Molecular Formula>
C21H28N6O2

>  <InChI>
InChI=1S/C21H28N6O2/c1-2-17-14-23-27-19(22-13-16-6-5-9-25(29)15-16)12-20(24-21(17)27)26-10-4-3-7-18(26)8-11-28/h5-6,9,12,14-15,18,22,28H,2-4,7-8,10-11,13H2,1H3/t18-/m0/s1

>  <InChI Key>
PIMQWRZWLQKKBJ-SFHVURJKSA-N

>  <BindingDB>
50139171

>  <PubChem>
46926350

>  <ChEMBL>
CHEMBL2103840

$$$$
Compound 829
Actelion Java MolfileCreator 2.0

  0  0  0  0  0  0              0 V3000
M  V30 BEGIN CTAB
M  V30 COUNTS 29 32 0 0 0
M  V30 BEGIN ATOM
M  V30 1 O 0.0 0.0 0.0 0
M  V30 2 C 1.4906 0.0236 0.0 0
M  V30 3 C 2.2477 -1.254 0.0 0
M  V30 4 C 3.7383 -1.2303 0.0 0 CFG=1
M  V30 5 N 4.4954 -2.508 0.0 0
M  V30 6 C 4.4599 0.0946 0.0 0
M  V30 7 C 3.7501 -3.8093 0.0 0
M  V30 8 C 5.9861 -2.4843 0.0 0
M  V30 9 C 5.9506 0.1183 0.0 0
M  V30 10 N 4.5073 -5.087 0.0 0
M  V30 11 C 2.2359 -3.8093 0.0 0
M  V30 12 C 6.7077 -1.1593 0.0 0
M  V30 13 C 3.762 -6.3883 0.0 0
M  V30 14 C 1.4906 -5.1106 0.0 0
M  V30 15 N 2.2477 -6.3883 0.0 0
M  V30 16 C 4.2233 -7.7961 0.0 0
M  V30 17 N -0.0236 -5.1106 0.0 0
M  V30 18 N 1.7863 -7.8079 0.0 0
M  V30 19 C 3.0048 -8.6833 0.0 0
M  V30 20 C 5.643 -8.2338 0.0 0
M  V30 21 C -0.8044 -3.8093 0.0 0
M  V30 22 C 5.9624 -9.6889 0.0 0
M  V30 23 C -2.3187 -3.8093 0.0 0
M  V30 24 C -3.064 -5.1106 0.0 0
M  V30 25 C -3.0995 -2.508 0.0 0
M  V30 26 N -4.5783 -5.1106 0.0 0 CHG=1
M  V30 27 C -4.6137 -2.508 0.0 0
M  V30 28 O -5.3236 -6.4119 0.0 0 CHG=-1
M  V30 29 C -5.359 -3.8093 0.0 0
M  V30 END ATOM
M  V30 BEGIN BOND
M  V30 1 1 1 2
M  V30 2 1 2 3
M  V30 3 1 4 3 CFG=3
M  V30 4 1 4 5
M  V30 5 1 4 6
M  V30 6 1 5 7
M  V30 7 1 5 8
M  V30 8 1 6 9
M  V30 9 2 7 10
M  V30 10 1 7 11
M  V30 11 1 8 12
M  V30 12 1 10 13
M  V30 13 2 11 14
M  V30 14 1 13 15
M  V30 15 2 13 16
M  V30 16 1 14 17
M  V30 17 1 15 18
M  V30 18 1 16 19
M  V30 19 1 16 20
M  V30 20 1 17 21
M  V30 21 1 20 22
M  V30 22 1 21 23
M  V30 23 2 23 24
M  V30 24 1 23 25
M  V30 25 1 24 26
M  V30 26 2 25 27
M  V30 27 1 26 28
M  V30 28 2 26 29
M  V30 29 1 9 12
M  V30 30 1 14 15
M  V30 31 2 18 19
M  V30 32 1 27 29
M  V30 END BOND
M  V30 BEGIN COLLECTION
M  V30 MDLV30/STEABS ATOMS=(1 4)
M  V30 END COLLECTION
M  V30 END CTAB
M  END
>  <Compound ID>
228

>  <Name>
Dinaciclib

>  <Uniprot>
Q9P1W9

>  <Target>
PIM2

>  <Smiles>
CCC1=C2N=C(N3CCCC[C@H]3CCO)C=C(NCC3=CC=C[N+]([O-])=C3)N2N=C1

>  <Kd (nM)>
>30000

>  <Assay (Kd)>
Kd apparent of PIM2

>  <Ki (nM)>


>  <Assay (Ki)>


>  <IC50 (nM)>


>  <Assay (IC50)>


>  <EC50 (nM)>


>  <Assay (EC50)>


>  <Article DOI>
10.1126/science.aan4368

>  <Molecular Weight>
396.495

>  <Exact Mass>
396.227374136

>  <XLogP3>
1.91

>  <Heavy Atom Count>
29

>  <Ring Count>
4

>  <Hydrogen Bond Acceptor Count>
7

>  <Hydrogen Bond Donor Count>
2

>  <Rotatable Bond Count>
7

>  <Topological Polar Surface Area>
92.63

>  <Molecular Formula>
C21H28N6O2

>  <InChI>
InChI=1S/C21H28N6O2/c1-2-17-14-23-27-19(22-13-16-6-5-9-25(29)15-16)12-20(24-21(17)27)26-10-4-3-7-18(26)8-11-28/h5-6,9,12,14-15,18,22,28H,2-4,7-8,10-11,13H2,1H3/t18-/m0/s1

>  <InChI Key>
PIMQWRZWLQKKBJ-SFHVURJKSA-N

>  <BindingDB>
50139171

>  <PubChem>
46926350

>  <ChEMBL>
CHEMBL2103840

$$$$
Compound 830
Actelion Java MolfileCreator 2.0

  0  0  0  0  0  0              0 V3000
M  V30 BEGIN CTAB
M  V30 COUNTS 29 32 0 0 0
M  V30 BEGIN ATOM
M  V30 1 O 0.0 0.0 0.0 0
M  V30 2 C 1.4906 0.0236 0.0 0
M  V30 3 C 2.2477 -1.254 0.0 0
M  V30 4 C 3.7383 -1.2303 0.0 0 CFG=1
M  V30 5 N 4.4954 -2.508 0.0 0
M  V30 6 C 4.4599 0.0946 0.0 0
M  V30 7 C 3.7501 -3.8093 0.0 0
M  V30 8 C 5.9861 -2.4843 0.0 0
M  V30 9 C 5.9506 0.1183 0.0 0
M  V30 10 N 4.5073 -5.087 0.0 0
M  V30 11 C 2.2359 -3.8093 0.0 0
M  V30 12 C 6.7077 -1.1593 0.0 0
M  V30 13 C 3.762 -6.3883 0.0 0
M  V30 14 C 1.4906 -5.1106 0.0 0
M  V30 15 N 2.2477 -6.3883 0.0 0
M  V30 16 C 4.2233 -7.7961 0.0 0
M  V30 17 N -0.0236 -5.1106 0.0 0
M  V30 18 N 1.7863 -7.8079 0.0 0
M  V30 19 C 3.0048 -8.6833 0.0 0
M  V30 20 C 5.643 -8.2338 0.0 0
M  V30 21 C -0.8044 -3.8093 0.0 0
M  V30 22 C 5.9624 -9.6889 0.0 0
M  V30 23 C -2.3187 -3.8093 0.0 0
M  V30 24 C -3.064 -5.1106 0.0 0
M  V30 25 C -3.0995 -2.508 0.0 0
M  V30 26 N -4.5783 -5.1106 0.0 0 CHG=1
M  V30 27 C -4.6137 -2.508 0.0 0
M  V30 28 O -5.3236 -6.4119 0.0 0 CHG=-1
M  V30 29 C -5.359 -3.8093 0.0 0
M  V30 END ATOM
M  V30 BEGIN BOND
M  V30 1 1 1 2
M  V30 2 1 2 3
M  V30 3 1 4 3 CFG=3
M  V30 4 1 4 5
M  V30 5 1 4 6
M  V30 6 1 5 7
M  V30 7 1 5 8
M  V30 8 1 6 9
M  V30 9 2 7 10
M  V30 10 1 7 11
M  V30 11 1 8 12
M  V30 12 1 10 13
M  V30 13 2 11 14
M  V30 14 1 13 15
M  V30 15 2 13 16
M  V30 16 1 14 17
M  V30 17 1 15 18
M  V30 18 1 16 19
M  V30 19 1 16 20
M  V30 20 1 17 21
M  V30 21 1 20 22
M  V30 22 1 21 23
M  V30 23 2 23 24
M  V30 24 1 23 25
M  V30 25 1 24 26
M  V30 26 2 25 27
M  V30 27 1 26 28
M  V30 28 2 26 29
M  V30 29 1 9 12
M  V30 30 1 14 15
M  V30 31 2 18 19
M  V30 32 1 27 29
M  V30 END BOND
M  V30 BEGIN COLLECTION
M  V30 MDLV30/STEABS ATOMS=(1 4)
M  V30 END COLLECTION
M  V30 END CTAB
M  END
>  <Compound ID>
228

>  <Name>
Dinaciclib

>  <Uniprot>
P53350

>  <Target>
PLK1

>  <Smiles>
CCC1=C2N=C(N3CCCC[C@H]3CCO)C=C(NCC3=CC=C[N+]([O-])=C3)N2N=C1

>  <Kd (nM)>


>  <Assay (Kd)>


>  <Ki (nM)>


>  <Assay (Ki)>


>  <IC50 (nM)>


>  <Assay (IC50)>


>  <EC50 (nM)>


>  <Assay (EC50)>


>  <Article DOI>
10.1016/j.cell.2020.10.038

>  <Molecular Weight>
396.495

>  <Exact Mass>
396.227374136

>  <XLogP3>
1.91

>  <Heavy Atom Count>
29

>  <Ring Count>
4

>  <Hydrogen Bond Acceptor Count>
7

>  <Hydrogen Bond Donor Count>
2

>  <Rotatable Bond Count>
7

>  <Topological Polar Surface Area>
92.63

>  <Molecular Formula>
C21H28N6O2

>  <InChI>
InChI=1S/C21H28N6O2/c1-2-17-14-23-27-19(22-13-16-6-5-9-25(29)15-16)12-20(24-21(17)27)26-10-4-3-7-18(26)8-11-28/h5-6,9,12,14-15,18,22,28H,2-4,7-8,10-11,13H2,1H3/t18-/m0/s1

>  <InChI Key>
PIMQWRZWLQKKBJ-SFHVURJKSA-N

>  <BindingDB>
50139171

>  <PubChem>
46926350

>  <ChEMBL>
CHEMBL2103840

$$$$
Compound 831
Actelion Java MolfileCreator 2.0

  0  0  0  0  0  0              0 V3000
M  V30 BEGIN CTAB
M  V30 COUNTS 29 32 0 0 0
M  V30 BEGIN ATOM
M  V30 1 O 0.0 0.0 0.0 0
M  V30 2 C 1.4906 0.0236 0.0 0
M  V30 3 C 2.2477 -1.254 0.0 0
M  V30 4 C 3.7383 -1.2303 0.0 0 CFG=1
M  V30 5 N 4.4954 -2.508 0.0 0
M  V30 6 C 4.4599 0.0946 0.0 0
M  V30 7 C 3.7501 -3.8093 0.0 0
M  V30 8 C 5.9861 -2.4843 0.0 0
M  V30 9 C 5.9506 0.1183 0.0 0
M  V30 10 N 4.5073 -5.087 0.0 0
M  V30 11 C 2.2359 -3.8093 0.0 0
M  V30 12 C 6.7077 -1.1593 0.0 0
M  V30 13 C 3.762 -6.3883 0.0 0
M  V30 14 C 1.4906 -5.1106 0.0 0
M  V30 15 N 2.2477 -6.3883 0.0 0
M  V30 16 C 4.2233 -7.7961 0.0 0
M  V30 17 N -0.0236 -5.1106 0.0 0
M  V30 18 N 1.7863 -7.8079 0.0 0
M  V30 19 C 3.0048 -8.6833 0.0 0
M  V30 20 C 5.643 -8.2338 0.0 0
M  V30 21 C -0.8044 -3.8093 0.0 0
M  V30 22 C 5.9624 -9.6889 0.0 0
M  V30 23 C -2.3187 -3.8093 0.0 0
M  V30 24 C -3.064 -5.1106 0.0 0
M  V30 25 C -3.0995 -2.508 0.0 0
M  V30 26 N -4.5783 -5.1106 0.0 0 CHG=1
M  V30 27 C -4.6137 -2.508 0.0 0
M  V30 28 O -5.3236 -6.4119 0.0 0 CHG=-1
M  V30 29 C -5.359 -3.8093 0.0 0
M  V30 END ATOM
M  V30 BEGIN BOND
M  V30 1 1 1 2
M  V30 2 1 2 3
M  V30 3 1 4 3 CFG=3
M  V30 4 1 4 5
M  V30 5 1 4 6
M  V30 6 1 5 7
M  V30 7 1 5 8
M  V30 8 1 6 9
M  V30 9 2 7 10
M  V30 10 1 7 11
M  V30 11 1 8 12
M  V30 12 1 10 13
M  V30 13 2 11 14
M  V30 14 1 13 15
M  V30 15 2 13 16
M  V30 16 1 14 17
M  V30 17 1 15 18
M  V30 18 1 16 19
M  V30 19 1 16 20
M  V30 20 1 17 21
M  V30 21 1 20 22
M  V30 22 1 21 23
M  V30 23 2 23 24
M  V30 24 1 23 25
M  V30 25 1 24 26
M  V30 26 2 25 27
M  V30 27 1 26 28
M  V30 28 2 26 29
M  V30 29 1 9 12
M  V30 30 1 14 15
M  V30 31 2 18 19
M  V30 32 1 27 29
M  V30 END BOND
M  V30 BEGIN COLLECTION
M  V30 MDLV30/STEABS ATOMS=(1 4)
M  V30 END COLLECTION
M  V30 END CTAB
M  END
>  <Compound ID>
228

>  <Name>
Dinaciclib

>  <Uniprot>
Q9BVS4

>  <Target>
RIOK2

>  <Smiles>
CCC1=C2N=C(N3CCCC[C@H]3CCO)C=C(NCC3=CC=C[N+]([O-])=C3)N2N=C1

>  <Kd (nM)>


>  <Assay (Kd)>


>  <Ki (nM)>


>  <Assay (Ki)>


>  <IC50 (nM)>


>  <Assay (IC50)>


>  <EC50 (nM)>


>  <Assay (EC50)>


>  <Article DOI>
10.1016/j.cell.2020.10.038

>  <Molecular Weight>
396.495

>  <Exact Mass>
396.227374136

>  <XLogP3>
1.91

>  <Heavy Atom Count>
29

>  <Ring Count>
4

>  <Hydrogen Bond Acceptor Count>
7

>  <Hydrogen Bond Donor Count>
2

>  <Rotatable Bond Count>
7

>  <Topological Polar Surface Area>
92.63

>  <Molecular Formula>
C21H28N6O2

>  <InChI>
InChI=1S/C21H28N6O2/c1-2-17-14-23-27-19(22-13-16-6-5-9-25(29)15-16)12-20(24-21(17)27)26-10-4-3-7-18(26)8-11-28/h5-6,9,12,14-15,18,22,28H,2-4,7-8,10-11,13H2,1H3/t18-/m0/s1

>  <InChI Key>
PIMQWRZWLQKKBJ-SFHVURJKSA-N

>  <BindingDB>
50139171

>  <PubChem>
46926350

>  <ChEMBL>
CHEMBL2103840

$$$$
Compound 832
Actelion Java MolfileCreator 2.0

  0  0  0  0  0  0              0 V3000
M  V30 BEGIN CTAB
M  V30 COUNTS 29 32 0 0 0
M  V30 BEGIN ATOM
M  V30 1 O 0.0 0.0 0.0 0
M  V30 2 C 1.4906 0.0236 0.0 0
M  V30 3 C 2.2477 -1.254 0.0 0
M  V30 4 C 3.7383 -1.2303 0.0 0 CFG=1
M  V30 5 N 4.4954 -2.508 0.0 0
M  V30 6 C 4.4599 0.0946 0.0 0
M  V30 7 C 3.7501 -3.8093 0.0 0
M  V30 8 C 5.9861 -2.4843 0.0 0
M  V30 9 C 5.9506 0.1183 0.0 0
M  V30 10 N 4.5073 -5.087 0.0 0
M  V30 11 C 2.2359 -3.8093 0.0 0
M  V30 12 C 6.7077 -1.1593 0.0 0
M  V30 13 C 3.762 -6.3883 0.0 0
M  V30 14 C 1.4906 -5.1106 0.0 0
M  V30 15 N 2.2477 -6.3883 0.0 0
M  V30 16 C 4.2233 -7.7961 0.0 0
M  V30 17 N -0.0236 -5.1106 0.0 0
M  V30 18 N 1.7863 -7.8079 0.0 0
M  V30 19 C 3.0048 -8.6833 0.0 0
M  V30 20 C 5.643 -8.2338 0.0 0
M  V30 21 C -0.8044 -3.8093 0.0 0
M  V30 22 C 5.9624 -9.6889 0.0 0
M  V30 23 C -2.3187 -3.8093 0.0 0
M  V30 24 C -3.064 -5.1106 0.0 0
M  V30 25 C -3.0995 -2.508 0.0 0
M  V30 26 N -4.5783 -5.1106 0.0 0 CHG=1
M  V30 27 C -4.6137 -2.508 0.0 0
M  V30 28 O -5.3236 -6.4119 0.0 0 CHG=-1
M  V30 29 C -5.359 -3.8093 0.0 0
M  V30 END ATOM
M  V30 BEGIN BOND
M  V30 1 1 1 2
M  V30 2 1 2 3
M  V30 3 1 4 3 CFG=3
M  V30 4 1 4 5
M  V30 5 1 4 6
M  V30 6 1 5 7
M  V30 7 1 5 8
M  V30 8 1 6 9
M  V30 9 2 7 10
M  V30 10 1 7 11
M  V30 11 1 8 12
M  V30 12 1 10 13
M  V30 13 2 11 14
M  V30 14 1 13 15
M  V30 15 2 13 16
M  V30 16 1 14 17
M  V30 17 1 15 18
M  V30 18 1 16 19
M  V30 19 1 16 20
M  V30 20 1 17 21
M  V30 21 1 20 22
M  V30 22 1 21 23
M  V30 23 2 23 24
M  V30 24 1 23 25
M  V30 25 1 24 26
M  V30 26 2 25 27
M  V30 27 1 26 28
M  V30 28 2 26 29
M  V30 29 1 9 12
M  V30 30 1 14 15
M  V30 31 2 18 19
M  V30 32 1 27 29
M  V30 END BOND
M  V30 BEGIN COLLECTION
M  V30 MDLV30/STEABS ATOMS=(1 4)
M  V30 END COLLECTION
M  V30 END CTAB
M  END
>  <Compound ID>
228

>  <Name>
Dinaciclib

>  <Uniprot>
Q9UEE5

>  <Target>
STK17A

>  <Smiles>
CCC1=C2N=C(N3CCCC[C@H]3CCO)C=C(NCC3=CC=C[N+]([O-])=C3)N2N=C1

>  <Kd (nM)>


>  <Assay (Kd)>


>  <Ki (nM)>


>  <Assay (Ki)>


>  <IC50 (nM)>


>  <Assay (IC50)>


>  <EC50 (nM)>


>  <Assay (EC50)>


>  <Article DOI>
10.1016/j.cell.2020.10.038

>  <Molecular Weight>
396.495

>  <Exact Mass>
396.227374136

>  <XLogP3>
1.91

>  <Heavy Atom Count>
29

>  <Ring Count>
4

>  <Hydrogen Bond Acceptor Count>
7

>  <Hydrogen Bond Donor Count>
2

>  <Rotatable Bond Count>
7

>  <Topological Polar Surface Area>
92.63

>  <Molecular Formula>
C21H28N6O2

>  <InChI>
InChI=1S/C21H28N6O2/c1-2-17-14-23-27-19(22-13-16-6-5-9-25(29)15-16)12-20(24-21(17)27)26-10-4-3-7-18(26)8-11-28/h5-6,9,12,14-15,18,22,28H,2-4,7-8,10-11,13H2,1H3/t18-/m0/s1

>  <InChI Key>
PIMQWRZWLQKKBJ-SFHVURJKSA-N

>  <BindingDB>
50139171

>  <PubChem>
46926350

>  <ChEMBL>
CHEMBL2103840

$$$$
Compound 833
Actelion Java MolfileCreator 2.0

  0  0  0  0  0  0              0 V3000
M  V30 BEGIN CTAB
M  V30 COUNTS 29 32 0 0 0
M  V30 BEGIN ATOM
M  V30 1 O 0.0 0.0 0.0 0
M  V30 2 C 1.4906 0.0236 0.0 0
M  V30 3 C 2.2477 -1.254 0.0 0
M  V30 4 C 3.7383 -1.2303 0.0 0 CFG=1
M  V30 5 N 4.4954 -2.508 0.0 0
M  V30 6 C 4.4599 0.0946 0.0 0
M  V30 7 C 3.7501 -3.8093 0.0 0
M  V30 8 C 5.9861 -2.4843 0.0 0
M  V30 9 C 5.9506 0.1183 0.0 0
M  V30 10 N 4.5073 -5.087 0.0 0
M  V30 11 C 2.2359 -3.8093 0.0 0
M  V30 12 C 6.7077 -1.1593 0.0 0
M  V30 13 C 3.762 -6.3883 0.0 0
M  V30 14 C 1.4906 -5.1106 0.0 0
M  V30 15 N 2.2477 -6.3883 0.0 0
M  V30 16 C 4.2233 -7.7961 0.0 0
M  V30 17 N -0.0236 -5.1106 0.0 0
M  V30 18 N 1.7863 -7.8079 0.0 0
M  V30 19 C 3.0048 -8.6833 0.0 0
M  V30 20 C 5.643 -8.2338 0.0 0
M  V30 21 C -0.8044 -3.8093 0.0 0
M  V30 22 C 5.9624 -9.6889 0.0 0
M  V30 23 C -2.3187 -3.8093 0.0 0
M  V30 24 C -3.064 -5.1106 0.0 0
M  V30 25 C -3.0995 -2.508 0.0 0
M  V30 26 N -4.5783 -5.1106 0.0 0 CHG=1
M  V30 27 C -4.6137 -2.508 0.0 0
M  V30 28 O -5.3236 -6.4119 0.0 0 CHG=-1
M  V30 29 C -5.359 -3.8093 0.0 0
M  V30 END ATOM
M  V30 BEGIN BOND
M  V30 1 1 1 2
M  V30 2 1 2 3
M  V30 3 1 4 3 CFG=3
M  V30 4 1 4 5
M  V30 5 1 4 6
M  V30 6 1 5 7
M  V30 7 1 5 8
M  V30 8 1 6 9
M  V30 9 2 7 10
M  V30 10 1 7 11
M  V30 11 1 8 12
M  V30 12 1 10 13
M  V30 13 2 11 14
M  V30 14 1 13 15
M  V30 15 2 13 16
M  V30 16 1 14 17
M  V30 17 1 15 18
M  V30 18 1 16 19
M  V30 19 1 16 20
M  V30 20 1 17 21
M  V30 21 1 20 22
M  V30 22 1 21 23
M  V30 23 2 23 24
M  V30 24 1 23 25
M  V30 25 1 24 26
M  V30 26 2 25 27
M  V30 27 1 26 28
M  V30 28 2 26 29
M  V30 29 1 9 12
M  V30 30 1 14 15
M  V30 31 2 18 19
M  V30 32 1 27 29
M  V30 END BOND
M  V30 BEGIN COLLECTION
M  V30 MDLV30/STEABS ATOMS=(1 4)
M  V30 END COLLECTION
M  V30 END CTAB
M  END
>  <Compound ID>
228

>  <Name>
Dinaciclib

>  <Uniprot>
P33981

>  <Target>
TTK

>  <Smiles>
CCC1=C2N=C(N3CCCC[C@H]3CCO)C=C(NCC3=CC=C[N+]([O-])=C3)N2N=C1

>  <Kd (nM)>


>  <Assay (Kd)>


>  <Ki (nM)>


>  <Assay (Ki)>


>  <IC50 (nM)>


>  <Assay (IC50)>


>  <EC50 (nM)>


>  <Assay (EC50)>


>  <Article DOI>
10.1016/j.cell.2020.10.038

>  <Molecular Weight>
396.495

>  <Exact Mass>
396.227374136

>  <XLogP3>
1.91

>  <Heavy Atom Count>
29

>  <Ring Count>
4

>  <Hydrogen Bond Acceptor Count>
7

>  <Hydrogen Bond Donor Count>
2

>  <Rotatable Bond Count>
7

>  <Topological Polar Surface Area>
92.63

>  <Molecular Formula>
C21H28N6O2

>  <InChI>
InChI=1S/C21H28N6O2/c1-2-17-14-23-27-19(22-13-16-6-5-9-25(29)15-16)12-20(24-21(17)27)26-10-4-3-7-18(26)8-11-28/h5-6,9,12,14-15,18,22,28H,2-4,7-8,10-11,13H2,1H3/t18-/m0/s1

>  <InChI Key>
PIMQWRZWLQKKBJ-SFHVURJKSA-N

>  <BindingDB>
50139171

>  <PubChem>
46926350

>  <ChEMBL>
CHEMBL2103840

$$$$
Compound 834
Actelion Java MolfileCreator 2.0

  0  0  0  0  0  0              0 V3000
M  V30 BEGIN CTAB
M  V30 COUNTS 29 32 0 0 0
M  V30 BEGIN ATOM
M  V30 1 O 0.0 0.0 0.0 0
M  V30 2 C 1.4906 0.0236 0.0 0
M  V30 3 C 2.2477 -1.254 0.0 0
M  V30 4 C 3.7383 -1.2303 0.0 0 CFG=1
M  V30 5 N 4.4954 -2.508 0.0 0
M  V30 6 C 4.4599 0.0946 0.0 0
M  V30 7 C 3.7501 -3.8093 0.0 0
M  V30 8 C 5.9861 -2.4843 0.0 0
M  V30 9 C 5.9506 0.1183 0.0 0
M  V30 10 N 4.5073 -5.087 0.0 0
M  V30 11 C 2.2359 -3.8093 0.0 0
M  V30 12 C 6.7077 -1.1593 0.0 0
M  V30 13 C 3.762 -6.3883 0.0 0
M  V30 14 C 1.4906 -5.1106 0.0 0
M  V30 15 N 2.2477 -6.3883 0.0 0
M  V30 16 C 4.2233 -7.7961 0.0 0
M  V30 17 N -0.0236 -5.1106 0.0 0
M  V30 18 N 1.7863 -7.8079 0.0 0
M  V30 19 C 3.0048 -8.6833 0.0 0
M  V30 20 C 5.643 -8.2338 0.0 0
M  V30 21 C -0.8044 -3.8093 0.0 0
M  V30 22 C 5.9624 -9.6889 0.0 0
M  V30 23 C -2.3187 -3.8093 0.0 0
M  V30 24 C -3.064 -5.1106 0.0 0
M  V30 25 C -3.0995 -2.508 0.0 0
M  V30 26 N -4.5783 -5.1106 0.0 0 CHG=1
M  V30 27 C -4.6137 -2.508 0.0 0
M  V30 28 O -5.3236 -6.4119 0.0 0 CHG=-1
M  V30 29 C -5.359 -3.8093 0.0 0
M  V30 END ATOM
M  V30 BEGIN BOND
M  V30 1 1 1 2
M  V30 2 1 2 3
M  V30 3 1 4 3 CFG=3
M  V30 4 1 4 5
M  V30 5 1 4 6
M  V30 6 1 5 7
M  V30 7 1 5 8
M  V30 8 1 6 9
M  V30 9 2 7 10
M  V30 10 1 7 11
M  V30 11 1 8 12
M  V30 12 1 10 13
M  V30 13 2 11 14
M  V30 14 1 13 15
M  V30 15 2 13 16
M  V30 16 1 14 17
M  V30 17 1 15 18
M  V30 18 1 16 19
M  V30 19 1 16 20
M  V30 20 1 17 21
M  V30 21 1 20 22
M  V30 22 1 21 23
M  V30 23 2 23 24
M  V30 24 1 23 25
M  V30 25 1 24 26
M  V30 26 2 25 27
M  V30 27 1 26 28
M  V30 28 2 26 29
M  V30 29 1 9 12
M  V30 30 1 14 15
M  V30 31 2 18 19
M  V30 32 1 27 29
M  V30 END BOND
M  V30 BEGIN COLLECTION
M  V30 MDLV30/STEABS ATOMS=(1 4)
M  V30 END COLLECTION
M  V30 END CTAB
M  END
>  <Compound ID>
228

>  <Name>
Dinaciclib

>  <Uniprot>
Q8TAS1

>  <Target>
UHMK1

>  <Smiles>
CCC1=C2N=C(N3CCCC[C@H]3CCO)C=C(NCC3=CC=C[N+]([O-])=C3)N2N=C1

>  <Kd (nM)>


>  <Assay (Kd)>


>  <Ki (nM)>


>  <Assay (Ki)>


>  <IC50 (nM)>


>  <Assay (IC50)>


>  <EC50 (nM)>


>  <Assay (EC50)>


>  <Article DOI>
10.1016/j.cell.2020.10.038

>  <Molecular Weight>
396.495

>  <Exact Mass>
396.227374136

>  <XLogP3>
1.91

>  <Heavy Atom Count>
29

>  <Ring Count>
4

>  <Hydrogen Bond Acceptor Count>
7

>  <Hydrogen Bond Donor Count>
2

>  <Rotatable Bond Count>
7

>  <Topological Polar Surface Area>
92.63

>  <Molecular Formula>
C21H28N6O2

>  <InChI>
InChI=1S/C21H28N6O2/c1-2-17-14-23-27-19(22-13-16-6-5-9-25(29)15-16)12-20(24-21(17)27)26-10-4-3-7-18(26)8-11-28/h5-6,9,12,14-15,18,22,28H,2-4,7-8,10-11,13H2,1H3/t18-/m0/s1

>  <InChI Key>
PIMQWRZWLQKKBJ-SFHVURJKSA-N

>  <BindingDB>
50139171

>  <PubChem>
46926350

>  <ChEMBL>
CHEMBL2103840

$$$$
Compound 835
Actelion Java MolfileCreator 2.0

  0  0  0  0  0  0              0 V3000
M  V30 BEGIN CTAB
M  V30 COUNTS 29 32 0 0 0
M  V30 BEGIN ATOM
M  V30 1 O 0.0 0.0 0.0 0
M  V30 2 C 1.4906 0.0236 0.0 0
M  V30 3 C 2.2477 -1.254 0.0 0
M  V30 4 C 3.7383 -1.2303 0.0 0 CFG=1
M  V30 5 N 4.4954 -2.508 0.0 0
M  V30 6 C 4.4599 0.0946 0.0 0
M  V30 7 C 3.7501 -3.8093 0.0 0
M  V30 8 C 5.9861 -2.4843 0.0 0
M  V30 9 C 5.9506 0.1183 0.0 0
M  V30 10 N 4.5073 -5.087 0.0 0
M  V30 11 C 2.2359 -3.8093 0.0 0
M  V30 12 C 6.7077 -1.1593 0.0 0
M  V30 13 C 3.762 -6.3883 0.0 0
M  V30 14 C 1.4906 -5.1106 0.0 0
M  V30 15 N 2.2477 -6.3883 0.0 0
M  V30 16 C 4.2233 -7.7961 0.0 0
M  V30 17 N -0.0236 -5.1106 0.0 0
M  V30 18 N 1.7863 -7.8079 0.0 0
M  V30 19 C 3.0048 -8.6833 0.0 0
M  V30 20 C 5.643 -8.2338 0.0 0
M  V30 21 C -0.8044 -3.8093 0.0 0
M  V30 22 C 5.9624 -9.6889 0.0 0
M  V30 23 C -2.3187 -3.8093 0.0 0
M  V30 24 C -3.064 -5.1106 0.0 0
M  V30 25 C -3.0995 -2.508 0.0 0
M  V30 26 N -4.5783 -5.1106 0.0 0 CHG=1
M  V30 27 C -4.6137 -2.508 0.0 0
M  V30 28 O -5.3236 -6.4119 0.0 0 CHG=-1
M  V30 29 C -5.359 -3.8093 0.0 0
M  V30 END ATOM
M  V30 BEGIN BOND
M  V30 1 1 1 2
M  V30 2 1 2 3
M  V30 3 1 4 3 CFG=3
M  V30 4 1 4 5
M  V30 5 1 4 6
M  V30 6 1 5 7
M  V30 7 1 5 8
M  V30 8 1 6 9
M  V30 9 2 7 10
M  V30 10 1 7 11
M  V30 11 1 8 12
M  V30 12 1 10 13
M  V30 13 2 11 14
M  V30 14 1 13 15
M  V30 15 2 13 16
M  V30 16 1 14 17
M  V30 17 1 15 18
M  V30 18 1 16 19
M  V30 19 1 16 20
M  V30 20 1 17 21
M  V30 21 1 20 22
M  V30 22 1 21 23
M  V30 23 2 23 24
M  V30 24 1 23 25
M  V30 25 1 24 26
M  V30 26 2 25 27
M  V30 27 1 26 28
M  V30 28 2 26 29
M  V30 29 1 9 12
M  V30 30 1 14 15
M  V30 31 2 18 19
M  V30 32 1 27 29
M  V30 END BOND
M  V30 BEGIN COLLECTION
M  V30 MDLV30/STEABS ATOMS=(1 4)
M  V30 END COLLECTION
M  V30 END CTAB
M  END
>  <Compound ID>
228

>  <Name>
Dinaciclib

>  <Uniprot>
P30291

>  <Target>
Wee1

>  <Smiles>
CCC1=C2N=C(N3CCCC[C@H]3CCO)C=C(NCC3=CC=C[N+]([O-])=C3)N2N=C1

>  <Kd (nM)>
>30000

>  <Assay (Kd)>
Kd apparent of Wee1

>  <Ki (nM)>


>  <Assay (Ki)>


>  <IC50 (nM)>


>  <Assay (IC50)>


>  <EC50 (nM)>


>  <Assay (EC50)>


>  <Article DOI>
10.1126/science.aan4368

>  <Molecular Weight>
396.495

>  <Exact Mass>
396.227374136

>  <XLogP3>
1.91

>  <Heavy Atom Count>
29

>  <Ring Count>
4

>  <Hydrogen Bond Acceptor Count>
7

>  <Hydrogen Bond Donor Count>
2

>  <Rotatable Bond Count>
7

>  <Topological Polar Surface Area>
92.63

>  <Molecular Formula>
C21H28N6O2

>  <InChI>
InChI=1S/C21H28N6O2/c1-2-17-14-23-27-19(22-13-16-6-5-9-25(29)15-16)12-20(24-21(17)27)26-10-4-3-7-18(26)8-11-28/h5-6,9,12,14-15,18,22,28H,2-4,7-8,10-11,13H2,1H3/t18-/m0/s1

>  <InChI Key>
PIMQWRZWLQKKBJ-SFHVURJKSA-N

>  <BindingDB>
50139171

>  <PubChem>
46926350

>  <ChEMBL>
CHEMBL2103840

$$$$
Compound 836
Actelion Java MolfileCreator 2.0

  0  0  0  0  0  0              0 V3000
M  V30 BEGIN CTAB
M  V30 COUNTS 24 26 0 0 0
M  V30 BEGIN ATOM
M  V30 1 N 0.0 0.0 0.0 0
M  V30 2 C -0.7652 1.2951 0.0 0
M  V30 3 C -1.5305 2.6019 0.0 0
M  V30 4 C -3.0376 2.6019 0.0 0
M  V30 5 C -3.7911 1.3186 0.0 0
M  V30 6 C -3.8028 3.9088 0.0 0
M  V30 7 C -5.2981 1.3186 0.0 0
M  V30 8 C -5.3099 3.9088 0.0 0
M  V30 9 C -6.0634 2.6255 0.0 0
M  V30 10 N -7.5704 2.6255 0.0 0
M  V30 11 C -8.3239 1.3421 0.0 0
M  V30 12 N -9.831 1.3421 0.0 0
M  V30 13 N -7.5822 0.0588 0.0 0
M  V30 14 C -10.5845 0.0588 0.0 0
M  V30 15 C -8.3357 -1.2244 0.0 0
M  V30 16 N -12.0915 0.0588 0.0 0
M  V30 17 C -9.8427 -1.2244 0.0 0
M  V30 18 C -12.8568 1.3539 0.0 0
M  V30 19 N -14.352 1.507 0.0 0
M  V30 20 C -12.2681 2.7314 0.0 0
M  V30 21 N -14.6817 2.9787 0.0 0
M  V30 22 C -13.3984 3.7322 0.0 0
M  V30 23 C -10.8199 3.0611 0.0 0
M  V30 24 C -10.3843 4.4975 0.0 0
M  V30 END ATOM
M  V30 BEGIN BOND
M  V30 1 3 1 2
M  V30 2 1 2 3
M  V30 3 1 3 4
M  V30 4 2 4 5
M  V30 5 1 4 6
M  V30 6 1 5 7
M  V30 7 2 6 8
M  V30 8 2 7 9
M  V30 9 1 9 10
M  V30 10 1 10 11
M  V30 11 2 11 12
M  V30 12 1 11 13
M  V30 13 1 12 14
M  V30 14 2 13 15
M  V30 15 1 14 16
M  V30 16 2 14 17
M  V30 17 1 16 18
M  V30 18 2 18 19
M  V30 19 1 18 20
M  V30 20 1 19 21
M  V30 21 2 20 22
M  V30 22 1 20 23
M  V30 23 1 23 24
M  V30 24 1 8 9
M  V30 25 1 15 17
M  V30 26 1 21 22
M  V30 END BOND
M  V30 END CTAB
M  END
>  <Compound ID>
229

>  <Name>


>  <Uniprot>
P49840

>  <Target>
GSK3A

>  <Smiles>
CCC1=C[NH]N=C1NC1=CC=NC(NC2=CC=C(CC#N)C=C2)=N1

>  <Kd (nM)>


>  <Assay (Kd)>


>  <Ki (nM)>


>  <Assay (Ki)>


>  <IC50 (nM)>


>  <Assay (IC50)>


>  <EC50 (nM)>


>  <Assay (EC50)>


>  <Article DOI>


>  <Molecular Weight>
319.372

>  <Exact Mass>
319.154543544

>  <XLogP3>
3.03

>  <Heavy Atom Count>
24

>  <Ring Count>
3

>  <Hydrogen Bond Acceptor Count>
6

>  <Hydrogen Bond Donor Count>
3

>  <Rotatable Bond Count>
6

>  <Topological Polar Surface Area>
102.31

>  <Molecular Formula>
C17H17N7

>  <InChI>
InChI=1S/C17H17N7/c1-2-13-11-20-24-16(13)22-15-8-10-19-17(23-15)21-14-5-3-12(4-6-14)7-9-18/h3-6,8,10-11H,2,7H2,1H3,(H3,19,20,21,22,23,24)

>  <InChI Key>
CMWGEYVEJGMLQH-UHFFFAOYSA-N

>  <BindingDB>


>  <PubChem>


>  <ChEMBL>


$$$$
Compound 837
Actelion Java MolfileCreator 2.0

  0  0  0  0  0  0              0 V3000
M  V30 BEGIN CTAB
M  V30 COUNTS 24 26 0 0 0
M  V30 BEGIN ATOM
M  V30 1 N 0.0 0.0 0.0 0
M  V30 2 C -0.7652 1.2951 0.0 0
M  V30 3 C -1.5305 2.6019 0.0 0
M  V30 4 C -3.0376 2.6019 0.0 0
M  V30 5 C -3.7911 1.3186 0.0 0
M  V30 6 C -3.8028 3.9088 0.0 0
M  V30 7 C -5.2981 1.3186 0.0 0
M  V30 8 C -5.3099 3.9088 0.0 0
M  V30 9 C -6.0634 2.6255 0.0 0
M  V30 10 N -7.5704 2.6255 0.0 0
M  V30 11 C -8.3239 1.3421 0.0 0
M  V30 12 N -9.831 1.3421 0.0 0
M  V30 13 N -7.5822 0.0588 0.0 0
M  V30 14 C -10.5845 0.0588 0.0 0
M  V30 15 C -8.3357 -1.2244 0.0 0
M  V30 16 N -12.0915 0.0588 0.0 0
M  V30 17 C -9.8427 -1.2244 0.0 0
M  V30 18 C -12.8568 1.3539 0.0 0
M  V30 19 N -14.352 1.507 0.0 0
M  V30 20 C -12.2681 2.7314 0.0 0
M  V30 21 N -14.6817 2.9787 0.0 0
M  V30 22 C -13.3984 3.7322 0.0 0
M  V30 23 C -10.8199 3.0611 0.0 0
M  V30 24 C -10.3843 4.4975 0.0 0
M  V30 END ATOM
M  V30 BEGIN BOND
M  V30 1 3 1 2
M  V30 2 1 2 3
M  V30 3 1 3 4
M  V30 4 2 4 5
M  V30 5 1 4 6
M  V30 6 1 5 7
M  V30 7 2 6 8
M  V30 8 2 7 9
M  V30 9 1 9 10
M  V30 10 1 10 11
M  V30 11 2 11 12
M  V30 12 1 11 13
M  V30 13 1 12 14
M  V30 14 2 13 15
M  V30 15 1 14 16
M  V30 16 2 14 17
M  V30 17 1 16 18
M  V30 18 2 18 19
M  V30 19 1 18 20
M  V30 20 1 19 21
M  V30 21 2 20 22
M  V30 22 1 20 23
M  V30 23 1 23 24
M  V30 24 1 8 9
M  V30 25 1 15 17
M  V30 26 1 21 22
M  V30 END BOND
M  V30 END CTAB
M  END
>  <Compound ID>
229

>  <Name>


>  <Uniprot>
P49841

>  <Target>
GSK-3beta

>  <Smiles>
CCC1=C[NH]N=C1NC1=CC=NC(NC2=CC=C(CC#N)C=C2)=N1

>  <Kd (nM)>


>  <Assay (Kd)>


>  <Ki (nM)>


>  <Assay (Ki)>


>  <IC50 (nM)>


>  <Assay (IC50)>


>  <EC50 (nM)>


>  <Assay (EC50)>


>  <Article DOI>


>  <Molecular Weight>
319.372

>  <Exact Mass>
319.154543544

>  <XLogP3>
3.03

>  <Heavy Atom Count>
24

>  <Ring Count>
3

>  <Hydrogen Bond Acceptor Count>
6

>  <Hydrogen Bond Donor Count>
3

>  <Rotatable Bond Count>
6

>  <Topological Polar Surface Area>
102.31

>  <Molecular Formula>
C17H17N7

>  <InChI>
InChI=1S/C17H17N7/c1-2-13-11-20-24-16(13)22-15-8-10-19-17(23-15)21-14-5-3-12(4-6-14)7-9-18/h3-6,8,10-11H,2,7H2,1H3,(H3,19,20,21,22,23,24)

>  <InChI Key>
CMWGEYVEJGMLQH-UHFFFAOYSA-N

>  <BindingDB>


>  <PubChem>


>  <ChEMBL>


$$$$
Compound 838
Actelion Java MolfileCreator 2.0

  0  0  0  0  0  0              0 V3000
M  V30 BEGIN CTAB
M  V30 COUNTS 39 40 0 0 0
M  V30 BEGIN ATOM
M  V30 1 O 0.0 0.0 0.0 0
M  V30 2 C 1.3199 -0.6717 0.0 0
M  V30 3 N 2.5692 0.1532 0.0 0
M  V30 4 C 1.3906 -2.1567 0.0 0
M  V30 5 C 2.4749 1.6617 0.0 0 CFG=2
M  V30 6 C 3.8892 -0.5185 0.0 0
M  V30 7 C 2.7106 -2.8285 0.0 0
M  V30 8 C 1.1314 2.3571 0.0 0
M  V30 9 C 3.7242 2.4867 0.0 0
M  V30 10 C 2.7813 -4.3135 0.0 0
M  V30 11 O 1.0371 3.8656 0.0 0
M  V30 12 N -0.1414 1.5556 0.0 0
M  V30 13 N 4.1013 -4.9852 0.0 0
M  V30 14 C -1.4849 2.251 0.0 0
M  V30 15 C 4.172 -6.4702 0.0 0
M  V30 16 C 5.3506 -4.1603 0.0 0
M  V30 17 C -2.7578 1.4496 0.0 0
M  V30 18 C -4.1013 2.1449 0.0 0
M  V30 19 C -5.3742 1.3435 0.0 0
M  V30 20 C -6.647 0.5421 0.0 0
M  V30 21 C -7.9198 -0.2592 0.0 0
M  V30 22 C -7.8491 -1.7442 0.0 0
M  V30 23 C -9.2634 0.436 0.0 0
M  V30 24 N -9.122 -2.5456 0.0 0
M  V30 25 N -6.5292 -2.416 0.0 0
M  V30 26 N -10.5362 -0.3653 0.0 0
M  V30 27 C -10.4655 -1.8503 0.0 0
M  V30 28 C -6.4584 -3.901 0.0 0
M  V30 29 N -11.7384 -2.6517 0.0 0
M  V30 30 C -5.1385 -4.5727 0.0 0
M  V30 31 C -13.0819 -1.9564 0.0 0
M  V30 32 C -5.0677 -6.0577 0.0 0
M  V30 33 C -13.1762 -0.4478 0.0 0
M  V30 34 C -14.3548 -2.7578 0.0 0
M  V30 35 C -14.5198 0.2474 0.0 0
M  V30 36 C -15.6983 -2.0624 0.0 0
M  V30 37 C -15.7926 -0.5539 0.0 0
M  V30 38 C -17.1362 0.1414 0.0 0
M  V30 39 N -18.4797 0.8367 0.0 0
M  V30 END ATOM
M  V30 BEGIN BOND
M  V30 1 2 1 2
M  V30 2 1 2 3
M  V30 3 1 2 4
M  V30 4 1 5 3 CFG=3
M  V30 5 1 3 6
M  V30 6 2 4 7
M  V30 7 1 5 8
M  V30 8 1 5 9
M  V30 9 1 7 10
M  V30 10 2 8 11
M  V30 11 1 8 12
M  V30 12 1 10 13
M  V30 13 1 12 14
M  V30 14 1 13 15
M  V30 15 1 13 16
M  V30 16 1 14 17
M  V30 17 1 17 18
M  V30 18 1 18 19
M  V30 19 3 19 20
M  V30 20 1 20 21
M  V30 21 2 21 22
M  V30 22 1 21 23
M  V30 23 1 22 24
M  V30 24 1 22 25
M  V30 25 2 23 26
M  V30 26 2 24 27
M  V30 27 1 25 28
M  V30 28 1 27 29
M  V30 29 1 28 30
M  V30 30 1 29 31
M  V30 31 1 30 32
M  V30 32 2 31 33
M  V30 33 1 31 34
M  V30 34 1 33 35
M  V30 35 2 34 36
M  V30 36 2 35 37
M  V30 37 1 37 38
M  V30 38 3 38 39
M  V30 39 1 26 27
M  V30 40 1 36 37
M  V30 END BOND
M  V30 BEGIN COLLECTION
M  V30 MDLV30/STEABS ATOMS=(1 5)
M  V30 END COLLECTION
M  V30 END CTAB
M  END
>  <Compound ID>
230

>  <Name>
FF-10101

>  <Uniprot>
P36888

>  <Target>
FLT3

>  <Smiles>
CCCNC1=NC(NC2=CC=C(C#N)C=C2)=NC=C1C#CCCCNC(=O)[C@H](C)N(C)C(=O)/C=C/CN(C)C

>  <Kd (nM)>


>  <Assay (Kd)>


>  <Ki (nM)>


>  <Assay (Ki)>


>  <IC50 (nM)>
0.2

>  <Assay (IC50)>
Inhibition of FLT-3

>  <EC50 (nM)>


>  <Assay (EC50)>


>  <Article DOI>
10.1182/blood-2017-05-786657

>  <Molecular Weight>
530.677

>  <Exact Mass>
530.311772456

>  <XLogP3>
3.56

>  <Heavy Atom Count>
39

>  <Ring Count>
2

>  <Hydrogen Bond Acceptor Count>
8

>  <Hydrogen Bond Donor Count>
3

>  <Rotatable Bond Count>
13

>  <Topological Polar Surface Area>
126.28

>  <Molecular Formula>
C29H38N8O2

>  <InChI>
InChI=1S/C29H38N8O2/c1-6-17-31-27-24(21-33-29(35-27)34-25-15-13-23(20-30)14-16-25)11-8-7-9-18-32-28(39)22(2)37(5)26(38)12-10-19-36(3)4/h10,12-16,21-22H,6-7,9,17-19H2,1-5H3,(H,32,39)(H2,31,33,34,35)/b12-10+/t22-/m0/s1

>  <InChI Key>
HJFSVYUFOXAVAA-YUAYGMJFSA-N

>  <BindingDB>
397428

>  <PubChem>
90052320

>  <ChEMBL>


$$$$
Compound 839
Actelion Java MolfileCreator 2.0

  0  0  0  0  0  0              0 V3000
M  V30 BEGIN CTAB
M  V30 COUNTS 42 46 0 0 0
M  V30 BEGIN ATOM
M  V30 1 O 0.0 0.0 0.0 0
M  V30 2 C 1.1868 0.9282 0.0 0
M  V30 3 N 0.9752 2.4323 0.0 0
M  V30 4 C 2.5616 0.3642 0.0 0
M  V30 5 C 2.162 3.3606 0.0 0
M  V30 6 C 3.7484 1.2925 0.0 0
M  V30 7 C 2.7496 -1.1162 0.0 0
M  V30 8 C 3.5369 2.7966 0.0 0
M  V30 9 C 1.9505 4.8647 0.0 0
M  V30 10 C 5.1232 0.7285 0.0 0
M  V30 11 N 4.1244 -1.6803 0.0 0
M  V30 12 C 4.3124 -3.1608 0.0 0
M  V30 13 O 3.1021 -4.0656 0.0 0
M  V30 14 C 5.6872 -3.7249 0.0 0
M  V30 15 C 5.8752 -5.2054 0.0 0
M  V30 16 C 6.874 -2.7966 0.0 0
M  V30 17 C 7.25 -5.7695 0.0 0
M  V30 18 C 4.6649 -6.1102 0.0 0
M  V30 19 C 8.2488 -3.3606 0.0 0
M  V30 20 N 7.438 -7.25 0.0 0
M  V30 21 C 8.4368 -4.8412 0.0 0
M  V30 22 C 9.4356 -2.4323 0.0 0
M  V30 23 C 6.2277 -8.1548 0.0 0
M  V30 24 C 8.8128 -7.814 0.0 0
M  V30 25 C 10.8104 -2.9963 0.0 0
M  V30 26 C 9.2241 -0.9282 0.0 0
M  V30 27 C 4.8294 -7.5673 0.0 0
M  V30 28 C 6.4157 -9.6354 0.0 0
M  V30 29 C 9.0008 -9.2946 0.0 0
M  V30 30 C 11.9972 -2.068 0.0 0
M  V30 31 C 10.4109 0.0 0.0 0
M  V30 32 C 3.6191 -8.4721 0.0 0
M  V30 33 C 5.2054 -10.5402 0.0 0
M  V30 34 C 11.7857 -0.564 0.0 0
M  V30 35 O 3.8071 -9.9526 0.0 0
M  V30 36 C 12.9725 0.3642 0.0 0
M  V30 37 N 14.3473 -0.1997 0.0 0
M  V30 38 C 14.5353 -1.6803 0.0 0
M  V30 39 C 15.5341 0.7285 0.0 0
M  V30 40 C 15.9101 -2.2443 0.0 0
M  V30 41 C 16.9089 0.1645 0.0 0
M  V30 42 O 17.0969 -1.316 0.0 0
M  V30 END ATOM
M  V30 BEGIN BOND
M  V30 1 2 1 2
M  V30 2 1 2 3
M  V30 3 1 2 4
M  V30 4 1 3 5
M  V30 5 2 4 6
M  V30 6 1 4 7
M  V30 7 2 5 8
M  V30 8 1 5 9
M  V30 9 1 6 10
M  V30 10 1 7 11
M  V30 11 1 11 12
M  V30 12 2 12 13
M  V30 13 1 12 14
M  V30 14 2 14 15
M  V30 15 1 14 16
M  V30 16 1 15 17
M  V30 17 1 15 18
M  V30 18 2 16 19
M  V30 19 1 17 20
M  V30 20 2 17 21
M  V30 21 1 19 22
M  V30 22 1 20 23
M  V30 23 1 20 24
M  V30 24 2 22 25
M  V30 25 1 22 26
M  V30 26 1 23 27
M  V30 27 1 23 28
M  V30 28 1 24 29
M  V30 29 1 25 30
M  V30 30 2 26 31
M  V30 31 1 27 32
M  V30 32 1 28 33
M  V30 33 2 30 34
M  V30 34 1 32 35
M  V30 35 1 34 36
M  V30 36 1 36 37
M  V30 37 1 37 38
M  V30 38 1 37 39
M  V30 39 1 38 40
M  V30 40 1 39 41
M  V30 41 1 40 42
M  V30 42 1 6 8
M  V30 43 1 19 21
M  V30 44 1 31 34
M  V30 45 1 33 35
M  V30 46 1 41 42
M  V30 END BOND
M  V30 END CTAB
M  END
>  <Compound ID>
231

>  <Name>
EPZ6438

>  <Uniprot>
Q15910

>  <Target>
EZH2

>  <Smiles>
CCN(C1=CC(C2=CC=C(CN3CCOCC3)C=C2)=CC(C(=O)NCC2=C(C)C=C(C)[NH]C2=O)=C1C)C1CCOCC1

>  <Kd (nM)>


>  <Assay (Kd)>


>  <Ki (nM)>


>  <Assay (Ki)>


>  <IC50 (nM)>
3.7

>  <Assay (IC50)>
IC50 was assessed by an Alpha-Screen assay

>  <EC50 (nM)>


>  <Assay (EC50)>


>  <Article DOI>
10.1021/acs.jmedchem.0c02234

>  <Molecular Weight>
572.75

>  <Exact Mass>
572.336255888

>  <XLogP3>
4.18

>  <Heavy Atom Count>
42

>  <Ring Count>
5

>  <Hydrogen Bond Acceptor Count>
6

>  <Hydrogen Bond Donor Count>
2

>  <Rotatable Bond Count>
9

>  <Topological Polar Surface Area>
86.9

>  <Molecular Formula>
C34H44N4O4

>  <InChI>
InChI=1S/C34H44N4O4/c1-5-38(29-10-14-41-15-11-29)32-20-28(27-8-6-26(7-9-27)22-37-12-16-42-17-13-37)19-30(25(32)4)33(39)35-21-31-23(2)18-24(3)36-34(31)40/h6-9,18-20,29H,5,10-17,21-22H2,1-4H3,(H,35,39)(H,36,40)

>  <InChI Key>
NSQSAUGJQHDYNO-UHFFFAOYSA-N

>  <BindingDB>
172038

>  <PubChem>
66558664

>  <ChEMBL>
CHEMBL3414621

$$$$
Compound 840
Actelion Java MolfileCreator 2.0

  0  0  0  0  0  0              0 V3000
M  V30 BEGIN CTAB
M  V30 COUNTS 31 33 0 0 0
M  V30 BEGIN ATOM
M  V30 1 F 0.0 0.0 0.0 0
M  V30 2 C 0.0354 -1.4905 0.0 0
M  V30 3 C -1.2539 -2.2713 0.0 0
M  V30 4 C 1.3485 -2.1885 0.0 0
M  V30 5 C -2.5907 -1.5496 0.0 0
M  V30 6 C -1.2184 -3.7618 0.0 0
M  V30 7 C 1.384 -3.679 0.0 0
M  V30 8 O -2.6498 -0.0354 0.0 0
M  V30 9 N -3.8801 -2.3304 0.0 0
M  V30 10 C 0.0946 -4.4598 0.0 0
M  V30 11 N 2.6971 -4.377 0.0 0
M  V30 12 C -5.2169 -1.6088 0.0 0
M  V30 13 C -3.8446 -3.821 0.0 0
M  V30 14 O 0.1301 -5.9503 0.0 0
M  V30 15 C 3.9629 -3.5725 0.0 0
M  V30 16 C -6.5063 -2.3896 0.0 0
M  V30 17 C -5.1341 -4.6017 0.0 0
M  V30 18 C -1.1593 -6.7311 0.0 0
M  V30 19 N 5.276 -4.2705 0.0 0
M  V30 20 N 3.9038 -2.0583 0.0 0
M  V30 21 O -6.4708 -3.8801 0.0 0
M  V30 22 C 6.5418 -3.4661 0.0 0
M  V30 23 C 5.1696 -1.2539 0.0 0
M  V30 24 N 7.8549 -4.164 0.0 0
M  V30 25 C 6.4827 -1.9519 0.0 0
M  V30 26 C 7.8904 -5.6546 0.0 0
M  V30 27 C 7.7484 -1.1474 0.0 0
M  V30 28 C 9.2035 -6.3525 0.0 0
M  V30 29 F 9.0142 -0.343 0.0 0
M  V30 30 F 8.5292 -2.4132 0.0 0
M  V30 31 F 6.944 0.1419 0.0 0
M  V30 END ATOM
M  V30 BEGIN BOND
M  V30 1 1 1 2
M  V30 2 2 2 3
M  V30 3 1 2 4
M  V30 4 1 3 5
M  V30 5 1 3 6
M  V30 6 2 4 7
M  V30 7 2 5 8
M  V30 8 1 5 9
M  V30 9 2 6 10
M  V30 10 1 7 11
M  V30 11 1 9 12
M  V30 12 1 9 13
M  V30 13 1 10 14
M  V30 14 1 11 15
M  V30 15 1 12 16
M  V30 16 1 13 17
M  V30 17 1 14 18
M  V30 18 2 15 19
M  V30 19 1 15 20
M  V30 20 1 16 21
M  V30 21 1 19 22
M  V30 22 2 20 23
M  V30 23 1 22 24
M  V30 24 2 22 25
M  V30 25 1 24 26
M  V30 26 1 25 27
M  V30 27 1 26 28
M  V30 28 1 27 29
M  V30 29 1 27 30
M  V30 30 1 27 31
M  V30 31 1 7 10
M  V30 32 1 17 21
M  V30 33 1 23 25
M  V30 END BOND
M  V30 END CTAB
M  END
>  <Compound ID>
232

>  <Name>
GNE-7915

>  <Uniprot>
Q5S007

>  <Target>
LRRK2

>  <Smiles>
CCNC1=NC(NC2=CC(F)=C(C(=O)N3CCOCC3)C=C2OC)=NC=C1C(F)(F)F

>  <Kd (nM)>


>  <Assay (Kd)>


>  <Ki (nM)>
1

>  <Assay (Ki)>
Ki was assessed by microfluidic capillary electrophoresis assay

>  <IC50 (nM)>


>  <Assay (IC50)>


>  <EC50 (nM)>


>  <Assay (EC50)>


>  <Article DOI>
10.1021/jm301020q

>  <Molecular Weight>
443.401

>  <Exact Mass>
443.158052412

>  <XLogP3>
2.8

>  <Heavy Atom Count>
31

>  <Ring Count>
3

>  <Hydrogen Bond Acceptor Count>
7

>  <Hydrogen Bond Donor Count>
2

>  <Rotatable Bond Count>
6

>  <Topological Polar Surface Area>
88.61

>  <Molecular Formula>
C19H21F4N5O3

>  <InChI>
InChI=1S/C19H21F4N5O3/c1-3-24-16-12(19(21,22)23)10-25-18(27-16)26-14-9-13(20)11(8-15(14)30-2)17(29)28-4-6-31-7-5-28/h8-10H,3-7H2,1-2H3,(H2,24,25,26,27)

>  <InChI Key>
XCFLWTZSJYBCPF-UHFFFAOYSA-N

>  <BindingDB>
50398668

>  <PubChem>
58539171

>  <ChEMBL>
CHEMBL2178134

$$$$
Compound 841
Actelion Java MolfileCreator 2.0

  0  0  0  0  0  0              0 V3000
M  V30 BEGIN CTAB
M  V30 COUNTS 30 33 0 0 0
M  V30 BEGIN ATOM
M  V30 1 O 0.0 0.0 0.0 0
M  V30 2 C 1.4447 0.3758 0.0 0
M  V30 3 O 1.8441 1.8323 0.0 0
M  V30 4 C 2.4784 -0.693 0.0 0
M  V30 5 C 0.7869 2.9247 0.0 0
M  V30 6 C 3.9231 -0.3171 0.0 0
M  V30 7 C 2.0555 -2.126 0.0 0
M  V30 8 C 4.9568 -1.386 0.0 0
M  V30 9 C 3.0892 -3.1949 0.0 0
M  V30 10 C 4.5339 -2.819 0.0 0
M  V30 11 N 5.5676 -3.8879 0.0 0
M  V30 12 C 7.0124 -3.512 0.0 0
M  V30 13 N 7.4117 -2.0555 0.0 0
M  V30 14 N 8.046 -4.5809 0.0 0
M  V30 15 C 8.8565 -1.6796 0.0 0
M  V30 16 C 9.4908 -4.2051 0.0 0
M  V30 17 N 9.5495 -0.3406 0.0 0
M  V30 18 C 9.8902 -2.7485 0.0 0
M  V30 19 C 11.0178 -0.5873 0.0 0
M  V30 20 C 8.88 1.0219 0.0 0
M  V30 21 C 11.2292 -2.079 0.0 0
M  V30 22 C 12.0867 0.4698 0.0 0
M  V30 23 C 7.3882 1.292 0.0 0
M  V30 24 C 9.573 2.3609 0.0 0
M  V30 25 O 11.7108 1.9381 0.0 0
M  V30 26 N 13.5197 0.0704 0.0 0
M  V30 27 C 7.1651 2.7955 0.0 0
M  V30 28 C 8.5159 3.4533 0.0 0
M  V30 29 C 14.5886 1.1276 0.0 0
M  V30 30 C 13.8721 -1.3742 0.0 0
M  V30 END ATOM
M  V30 BEGIN BOND
M  V30 1 2 1 2
M  V30 2 1 2 3
M  V30 3 1 2 4
M  V30 4 1 3 5
M  V30 5 2 4 6
M  V30 6 1 4 7
M  V30 7 1 6 8
M  V30 8 2 7 9
M  V30 9 2 8 10
M  V30 10 1 10 11
M  V30 11 1 11 12
M  V30 12 2 12 13
M  V30 13 1 12 14
M  V30 14 1 13 15
M  V30 15 2 14 16
M  V30 16 1 15 17
M  V30 17 2 15 18
M  V30 18 1 17 19
M  V30 19 1 17 20
M  V30 20 1 18 21
M  V30 21 1 19 22
M  V30 22 1 20 23
M  V30 23 1 20 24
M  V30 24 2 22 25
M  V30 25 1 22 26
M  V30 26 1 23 27
M  V30 27 1 24 28
M  V30 28 1 26 29
M  V30 29 1 26 30
M  V30 30 1 9 10
M  V30 31 1 16 18
M  V30 32 2 19 21
M  V30 33 1 27 28
M  V30 END BOND
M  V30 END CTAB
M  END
>  <Compound ID>
233

>  <Name>


>  <Uniprot>
P24941

>  <Target>
CDK2

>  <Smiles>
COC(=O)C1=CC=C(NC2=NC=C3C=C(C(=O)N(C)C)N(C4CCCC4)C3=N2)C=C1

>  <Kd (nM)>


>  <Assay (Kd)>


>  <Ki (nM)>


>  <Assay (Ki)>


>  <IC50 (nM)>
390

>  <Assay (IC50)>
Inhibition of CDK2 Cyclin E

>  <EC50 (nM)>


>  <Assay (EC50)>


>  <Article DOI>
10.1016/j.ejmech.2020.112903

>  <Molecular Weight>
407.474

>  <Exact Mass>
407.19573966

>  <XLogP3>
3.31

>  <Heavy Atom Count>
30

>  <Ring Count>
4

>  <Hydrogen Bond Acceptor Count>
7

>  <Hydrogen Bond Donor Count>
1

>  <Rotatable Bond Count>
5

>  <Topological Polar Surface Area>
89.35

>  <Molecular Formula>
C22H25N5O3

>  <InChI>
InChI=1S/C22H25N5O3/c1-26(2)20(28)18-12-15-13-23-22(25-19(15)27(18)17-6-4-5-7-17)24-16-10-8-14(9-11-16)21(29)30-3/h8-13,17H,4-7H2,1-3H3,(H,23,24,25)

>  <InChI Key>
QKUPEYVJRBJWLO-UHFFFAOYSA-N

>  <BindingDB>


>  <PubChem>


>  <ChEMBL>


$$$$
Compound 842
Actelion Java MolfileCreator 2.0

  0  0  0  0  0  0              0 V3000
M  V30 BEGIN CTAB
M  V30 COUNTS 30 33 0 0 0
M  V30 BEGIN ATOM
M  V30 1 O 0.0 0.0 0.0 0
M  V30 2 C 1.4447 0.3758 0.0 0
M  V30 3 O 1.8441 1.8323 0.0 0
M  V30 4 C 2.4784 -0.693 0.0 0
M  V30 5 C 0.7869 2.9247 0.0 0
M  V30 6 C 3.9231 -0.3171 0.0 0
M  V30 7 C 2.0555 -2.126 0.0 0
M  V30 8 C 4.9568 -1.386 0.0 0
M  V30 9 C 3.0892 -3.1949 0.0 0
M  V30 10 C 4.5339 -2.819 0.0 0
M  V30 11 N 5.5676 -3.8879 0.0 0
M  V30 12 C 7.0124 -3.512 0.0 0
M  V30 13 N 7.4117 -2.0555 0.0 0
M  V30 14 N 8.046 -4.5809 0.0 0
M  V30 15 C 8.8565 -1.6796 0.0 0
M  V30 16 C 9.4908 -4.2051 0.0 0
M  V30 17 N 9.5495 -0.3406 0.0 0
M  V30 18 C 9.8902 -2.7485 0.0 0
M  V30 19 C 11.0178 -0.5873 0.0 0
M  V30 20 C 8.88 1.0219 0.0 0
M  V30 21 C 11.2292 -2.079 0.0 0
M  V30 22 C 12.0867 0.4698 0.0 0
M  V30 23 C 7.3882 1.292 0.0 0
M  V30 24 C 9.573 2.3609 0.0 0
M  V30 25 O 11.7108 1.9381 0.0 0
M  V30 26 N 13.5197 0.0704 0.0 0
M  V30 27 C 7.1651 2.7955 0.0 0
M  V30 28 C 8.5159 3.4533 0.0 0
M  V30 29 C 14.5886 1.1276 0.0 0
M  V30 30 C 13.8721 -1.3742 0.0 0
M  V30 END ATOM
M  V30 BEGIN BOND
M  V30 1 2 1 2
M  V30 2 1 2 3
M  V30 3 1 2 4
M  V30 4 1 3 5
M  V30 5 2 4 6
M  V30 6 1 4 7
M  V30 7 1 6 8
M  V30 8 2 7 9
M  V30 9 2 8 10
M  V30 10 1 10 11
M  V30 11 1 11 12
M  V30 12 2 12 13
M  V30 13 1 12 14
M  V30 14 1 13 15
M  V30 15 2 14 16
M  V30 16 1 15 17
M  V30 17 2 15 18
M  V30 18 1 17 19
M  V30 19 1 17 20
M  V30 20 1 18 21
M  V30 21 1 19 22
M  V30 22 1 20 23
M  V30 23 1 20 24
M  V30 24 2 22 25
M  V30 25 1 22 26
M  V30 26 1 23 27
M  V30 27 1 24 28
M  V30 28 1 26 29
M  V30 29 1 26 30
M  V30 30 1 9 10
M  V30 31 1 16 18
M  V30 32 2 19 21
M  V30 33 1 27 28
M  V30 END BOND
M  V30 END CTAB
M  END
>  <Compound ID>
233

>  <Name>


>  <Uniprot>
P11802

>  <Target>
CDK4

>  <Smiles>
COC(=O)C1=CC=C(NC2=NC=C3C=C(C(=O)N(C)C)N(C4CCCC4)C3=N2)C=C1

>  <Kd (nM)>


>  <Assay (Kd)>


>  <Ki (nM)>


>  <Assay (Ki)>


>  <IC50 (nM)>
112

>  <Assay (IC50)>
Inhibition of CDK4 Cyclin D

>  <EC50 (nM)>


>  <Assay (EC50)>


>  <Article DOI>
10.1016/j.ejmech.2020.112903

>  <Molecular Weight>
407.474

>  <Exact Mass>
407.19573966

>  <XLogP3>
3.31

>  <Heavy Atom Count>
30

>  <Ring Count>
4

>  <Hydrogen Bond Acceptor Count>
7

>  <Hydrogen Bond Donor Count>
1

>  <Rotatable Bond Count>
5

>  <Topological Polar Surface Area>
89.35

>  <Molecular Formula>
C22H25N5O3

>  <InChI>
InChI=1S/C22H25N5O3/c1-26(2)20(28)18-12-15-13-23-22(25-19(15)27(18)17-6-4-5-7-17)24-16-10-8-14(9-11-16)21(29)30-3/h8-13,17H,4-7H2,1-3H3,(H,23,24,25)

>  <InChI Key>
QKUPEYVJRBJWLO-UHFFFAOYSA-N

>  <BindingDB>


>  <PubChem>


>  <ChEMBL>


$$$$
Compound 843
Actelion Java MolfileCreator 2.0

  0  0  0  0  0  0              0 V3000
M  V30 BEGIN CTAB
M  V30 COUNTS 30 33 0 0 0
M  V30 BEGIN ATOM
M  V30 1 O 0.0 0.0 0.0 0
M  V30 2 C 1.4447 0.3758 0.0 0
M  V30 3 O 1.8441 1.8323 0.0 0
M  V30 4 C 2.4784 -0.693 0.0 0
M  V30 5 C 0.7869 2.9247 0.0 0
M  V30 6 C 3.9231 -0.3171 0.0 0
M  V30 7 C 2.0555 -2.126 0.0 0
M  V30 8 C 4.9568 -1.386 0.0 0
M  V30 9 C 3.0892 -3.1949 0.0 0
M  V30 10 C 4.5339 -2.819 0.0 0
M  V30 11 N 5.5676 -3.8879 0.0 0
M  V30 12 C 7.0124 -3.512 0.0 0
M  V30 13 N 7.4117 -2.0555 0.0 0
M  V30 14 N 8.046 -4.5809 0.0 0
M  V30 15 C 8.8565 -1.6796 0.0 0
M  V30 16 C 9.4908 -4.2051 0.0 0
M  V30 17 N 9.5495 -0.3406 0.0 0
M  V30 18 C 9.8902 -2.7485 0.0 0
M  V30 19 C 11.0178 -0.5873 0.0 0
M  V30 20 C 8.88 1.0219 0.0 0
M  V30 21 C 11.2292 -2.079 0.0 0
M  V30 22 C 12.0867 0.4698 0.0 0
M  V30 23 C 7.3882 1.292 0.0 0
M  V30 24 C 9.573 2.3609 0.0 0
M  V30 25 O 11.7108 1.9381 0.0 0
M  V30 26 N 13.5197 0.0704 0.0 0
M  V30 27 C 7.1651 2.7955 0.0 0
M  V30 28 C 8.5159 3.4533 0.0 0
M  V30 29 C 14.5886 1.1276 0.0 0
M  V30 30 C 13.8721 -1.3742 0.0 0
M  V30 END ATOM
M  V30 BEGIN BOND
M  V30 1 2 1 2
M  V30 2 1 2 3
M  V30 3 1 2 4
M  V30 4 1 3 5
M  V30 5 2 4 6
M  V30 6 1 4 7
M  V30 7 1 6 8
M  V30 8 2 7 9
M  V30 9 2 8 10
M  V30 10 1 10 11
M  V30 11 1 11 12
M  V30 12 2 12 13
M  V30 13 1 12 14
M  V30 14 1 13 15
M  V30 15 2 14 16
M  V30 16 1 15 17
M  V30 17 2 15 18
M  V30 18 1 17 19
M  V30 19 1 17 20
M  V30 20 1 18 21
M  V30 21 1 19 22
M  V30 22 1 20 23
M  V30 23 1 20 24
M  V30 24 2 22 25
M  V30 25 1 22 26
M  V30 26 1 23 27
M  V30 27 1 24 28
M  V30 28 1 26 29
M  V30 29 1 26 30
M  V30 30 1 9 10
M  V30 31 1 16 18
M  V30 32 2 19 21
M  V30 33 1 27 28
M  V30 END BOND
M  V30 END CTAB
M  END
>  <Compound ID>
233

>  <Name>


>  <Uniprot>
Q00534

>  <Target>
CDK6

>  <Smiles>
COC(=O)C1=CC=C(NC2=NC=C3C=C(C(=O)N(C)C)N(C4CCCC4)C3=N2)C=C1

>  <Kd (nM)>


>  <Assay (Kd)>


>  <Ki (nM)>


>  <Assay (Ki)>


>  <IC50 (nM)>
101

>  <Assay (IC50)>
Inhibition of CDK6 Cyclin D

>  <EC50 (nM)>


>  <Assay (EC50)>


>  <Article DOI>
10.1016/j.ejmech.2020.112903

>  <Molecular Weight>
407.474

>  <Exact Mass>
407.19573966

>  <XLogP3>
3.31

>  <Heavy Atom Count>
30

>  <Ring Count>
4

>  <Hydrogen Bond Acceptor Count>
7

>  <Hydrogen Bond Donor Count>
1

>  <Rotatable Bond Count>
5

>  <Topological Polar Surface Area>
89.35

>  <Molecular Formula>
C22H25N5O3

>  <InChI>
InChI=1S/C22H25N5O3/c1-26(2)20(28)18-12-15-13-23-22(25-19(15)27(18)17-6-4-5-7-17)24-16-10-8-14(9-11-16)21(29)30-3/h8-13,17H,4-7H2,1-3H3,(H,23,24,25)

>  <InChI Key>
QKUPEYVJRBJWLO-UHFFFAOYSA-N

>  <BindingDB>


>  <PubChem>


>  <ChEMBL>


$$$$
Compound 844
Actelion Java MolfileCreator 2.0

  0  0  0  0  0  0              0 V3000
M  V30 BEGIN CTAB
M  V30 COUNTS 27 29 0 0 0
M  V30 BEGIN ATOM
M  V30 1 Cl 0.0 0.0 0.0 0
M  V30 2 C 0.3769 -1.4372 0.0 0
M  V30 3 S 1.767 -1.9673 0.0 0
M  V30 4 C -0.5772 -2.5916 0.0 0
M  V30 5 C 1.6728 -3.4516 0.0 0
M  V30 6 C -2.0851 -2.4974 0.0 0
M  V30 7 C 0.2238 -3.8404 0.0 0
M  V30 8 C 2.8272 -4.3822 0.0 0
M  V30 9 N -2.9097 -1.2251 0.0 0
M  V30 10 C -3.0393 -3.6519 0.0 0
M  V30 11 O 2.5799 -5.8548 0.0 0
M  V30 12 N 4.2173 -3.8404 0.0 0
M  V30 13 N -4.3705 -1.6021 0.0 0
M  V30 14 C -2.3796 0.1884 0.0 0
M  V30 15 Cl -2.6623 -5.0891 0.0 0
M  V30 16 C -4.4529 -3.0982 0.0 0
M  V30 17 C 5.3718 -4.771 0.0 0 CFG=2
M  V30 18 C 5.1244 -6.2435 0.0 0
M  V30 19 C 6.7619 -4.2291 0.0 0
M  V30 20 N 3.7108 -6.7619 0.0 0
M  V30 21 C 6.9857 -2.733 0.0 0
M  V30 22 C 5.8077 -1.7788 0.0 0
M  V30 23 C 8.3758 -2.1911 0.0 0
M  V30 24 C 6.0315 -0.2827 0.0 0
M  V30 25 C 8.5996 -0.695 0.0 0
M  V30 26 F 4.8535 0.6714 0.0 0
M  V30 27 C 7.4216 0.2591 0.0 0
M  V30 END ATOM
M  V30 BEGIN BOND
M  V30 1 1 1 2
M  V30 2 1 2 3
M  V30 3 2 2 4
M  V30 4 1 3 5
M  V30 5 1 4 6
M  V30 6 1 4 7
M  V30 7 1 5 8
M  V30 8 1 6 9
M  V30 9 2 6 10
M  V30 10 2 8 11
M  V30 11 1 8 12
M  V30 12 1 9 13
M  V30 13 1 9 14
M  V30 14 1 10 15
M  V30 15 1 10 16
M  V30 16 1 17 12 CFG=1
M  V30 17 1 17 18
M  V30 18 1 17 19
M  V30 19 1 18 20
M  V30 20 1 19 21
M  V30 21 2 21 22
M  V30 22 1 21 23
M  V30 23 1 22 24
M  V30 24 2 23 25
M  V30 25 1 24 26
M  V30 26 2 24 27
M  V30 27 2 5 7
M  V30 28 2 13 16
M  V30 29 1 25 27
M  V30 END BOND
M  V30 BEGIN COLLECTION
M  V30 MDLV30/STEABS ATOMS=(1 17)
M  V30 END COLLECTION
M  V30 END CTAB
M  END
>  <Compound ID>
234

>  <Name>
Afuresertib

>  <Uniprot>
P31749

>  <Target>
AKT1

>  <Smiles>
CN1N=CC(Cl)=C1C1=C(Cl)SC(C(=O)N[C@H](CN)CC2=CC=CC(F)=C2)=C1

>  <Kd (nM)>


>  <Assay (Kd)>


>  <Ki (nM)>
0.08

>  <Assay (Ki)>
Ki of AKT1

>  <IC50 (nM)>


>  <Assay (IC50)>


>  <EC50 (nM)>


>  <Assay (EC50)>


>  <Article DOI>
10.1016/j.ejmech.2019.07.017

>  <Molecular Weight>
427.332

>  <Exact Mass>
426.048415744

>  <XLogP3>
3.96

>  <Heavy Atom Count>
27

>  <Ring Count>
3

>  <Hydrogen Bond Acceptor Count>
5

>  <Hydrogen Bond Donor Count>
2

>  <Rotatable Bond Count>
6

>  <Topological Polar Surface Area>
72.94

>  <Molecular Formula>
C18H17Cl2FN4OS

>  <InChI>
InChI=1S/C18H17Cl2FN4OS/c1-25-16(14(19)9-23-25)13-7-15(27-17(13)20)18(26)24-12(8-22)6-10-3-2-4-11(21)5-10/h2-5,7,9,12H,6,8,22H2,1H3,(H,24,26)/t12-/m0/s1

>  <InChI Key>
AFJRDFWMXUECEW-LBPRGKRZSA-N

>  <BindingDB>
50502477

>  <PubChem>
46843057

>  <ChEMBL>
CHEMBL2219422

$$$$
Compound 845
Actelion Java MolfileCreator 2.0

  0  0  0  0  0  0              0 V3000
M  V30 BEGIN CTAB
M  V30 COUNTS 27 29 0 0 0
M  V30 BEGIN ATOM
M  V30 1 Cl 0.0 0.0 0.0 0
M  V30 2 C 0.3769 -1.4372 0.0 0
M  V30 3 S 1.767 -1.9673 0.0 0
M  V30 4 C -0.5772 -2.5916 0.0 0
M  V30 5 C 1.6728 -3.4516 0.0 0
M  V30 6 C -2.0851 -2.4974 0.0 0
M  V30 7 C 0.2238 -3.8404 0.0 0
M  V30 8 C 2.8272 -4.3822 0.0 0
M  V30 9 N -2.9097 -1.2251 0.0 0
M  V30 10 C -3.0393 -3.6519 0.0 0
M  V30 11 O 2.5799 -5.8548 0.0 0
M  V30 12 N 4.2173 -3.8404 0.0 0
M  V30 13 N -4.3705 -1.6021 0.0 0
M  V30 14 C -2.3796 0.1884 0.0 0
M  V30 15 Cl -2.6623 -5.0891 0.0 0
M  V30 16 C -4.4529 -3.0982 0.0 0
M  V30 17 C 5.3718 -4.771 0.0 0 CFG=2
M  V30 18 C 5.1244 -6.2435 0.0 0
M  V30 19 C 6.7619 -4.2291 0.0 0
M  V30 20 N 3.7108 -6.7619 0.0 0
M  V30 21 C 6.9857 -2.733 0.0 0
M  V30 22 C 5.8077 -1.7788 0.0 0
M  V30 23 C 8.3758 -2.1911 0.0 0
M  V30 24 C 6.0315 -0.2827 0.0 0
M  V30 25 C 8.5996 -0.695 0.0 0
M  V30 26 F 4.8535 0.6714 0.0 0
M  V30 27 C 7.4216 0.2591 0.0 0
M  V30 END ATOM
M  V30 BEGIN BOND
M  V30 1 1 1 2
M  V30 2 1 2 3
M  V30 3 2 2 4
M  V30 4 1 3 5
M  V30 5 1 4 6
M  V30 6 1 4 7
M  V30 7 1 5 8
M  V30 8 1 6 9
M  V30 9 2 6 10
M  V30 10 2 8 11
M  V30 11 1 8 12
M  V30 12 1 9 13
M  V30 13 1 9 14
M  V30 14 1 10 15
M  V30 15 1 10 16
M  V30 16 1 17 12 CFG=1
M  V30 17 1 17 18
M  V30 18 1 17 19
M  V30 19 1 18 20
M  V30 20 1 19 21
M  V30 21 2 21 22
M  V30 22 1 21 23
M  V30 23 1 22 24
M  V30 24 2 23 25
M  V30 25 1 24 26
M  V30 26 2 24 27
M  V30 27 2 5 7
M  V30 28 2 13 16
M  V30 29 1 25 27
M  V30 END BOND
M  V30 BEGIN COLLECTION
M  V30 MDLV30/STEABS ATOMS=(1 17)
M  V30 END COLLECTION
M  V30 END CTAB
M  END
>  <Compound ID>
234

>  <Name>
Afuresertib

>  <Uniprot>
P31751

>  <Target>
AKT2

>  <Smiles>
CN1N=CC(Cl)=C1C1=C(Cl)SC(C(=O)N[C@H](CN)CC2=CC=CC(F)=C2)=C1

>  <Kd (nM)>
2800

>  <Assay (Kd)>
Kd apparent of AKT2

>  <Ki (nM)>


>  <Assay (Ki)>


>  <IC50 (nM)>


>  <Assay (IC50)>


>  <EC50 (nM)>


>  <Assay (EC50)>


>  <Article DOI>
10.1126/science.aan4368

>  <Molecular Weight>
427.332

>  <Exact Mass>
426.048415744

>  <XLogP3>
3.96

>  <Heavy Atom Count>
27

>  <Ring Count>
3

>  <Hydrogen Bond Acceptor Count>
5

>  <Hydrogen Bond Donor Count>
2

>  <Rotatable Bond Count>
6

>  <Topological Polar Surface Area>
72.94

>  <Molecular Formula>
C18H17Cl2FN4OS

>  <InChI>
InChI=1S/C18H17Cl2FN4OS/c1-25-16(14(19)9-23-25)13-7-15(27-17(13)20)18(26)24-12(8-22)6-10-3-2-4-11(21)5-10/h2-5,7,9,12H,6,8,22H2,1H3,(H,24,26)/t12-/m0/s1

>  <InChI Key>
AFJRDFWMXUECEW-LBPRGKRZSA-N

>  <BindingDB>
50502477

>  <PubChem>
46843057

>  <ChEMBL>
CHEMBL2219422

$$$$
Compound 846
Actelion Java MolfileCreator 2.0

  0  0  0  0  0  0              0 V3000
M  V30 BEGIN CTAB
M  V30 COUNTS 27 29 0 0 0
M  V30 BEGIN ATOM
M  V30 1 Cl 0.0 0.0 0.0 0
M  V30 2 C 0.3769 -1.4372 0.0 0
M  V30 3 S 1.767 -1.9673 0.0 0
M  V30 4 C -0.5772 -2.5916 0.0 0
M  V30 5 C 1.6728 -3.4516 0.0 0
M  V30 6 C -2.0851 -2.4974 0.0 0
M  V30 7 C 0.2238 -3.8404 0.0 0
M  V30 8 C 2.8272 -4.3822 0.0 0
M  V30 9 N -2.9097 -1.2251 0.0 0
M  V30 10 C -3.0393 -3.6519 0.0 0
M  V30 11 O 2.5799 -5.8548 0.0 0
M  V30 12 N 4.2173 -3.8404 0.0 0
M  V30 13 N -4.3705 -1.6021 0.0 0
M  V30 14 C -2.3796 0.1884 0.0 0
M  V30 15 Cl -2.6623 -5.0891 0.0 0
M  V30 16 C -4.4529 -3.0982 0.0 0
M  V30 17 C 5.3718 -4.771 0.0 0 CFG=2
M  V30 18 C 5.1244 -6.2435 0.0 0
M  V30 19 C 6.7619 -4.2291 0.0 0
M  V30 20 N 3.7108 -6.7619 0.0 0
M  V30 21 C 6.9857 -2.733 0.0 0
M  V30 22 C 5.8077 -1.7788 0.0 0
M  V30 23 C 8.3758 -2.1911 0.0 0
M  V30 24 C 6.0315 -0.2827 0.0 0
M  V30 25 C 8.5996 -0.695 0.0 0
M  V30 26 F 4.8535 0.6714 0.0 0
M  V30 27 C 7.4216 0.2591 0.0 0
M  V30 END ATOM
M  V30 BEGIN BOND
M  V30 1 1 1 2
M  V30 2 1 2 3
M  V30 3 2 2 4
M  V30 4 1 3 5
M  V30 5 1 4 6
M  V30 6 1 4 7
M  V30 7 1 5 8
M  V30 8 1 6 9
M  V30 9 2 6 10
M  V30 10 2 8 11
M  V30 11 1 8 12
M  V30 12 1 9 13
M  V30 13 1 9 14
M  V30 14 1 10 15
M  V30 15 1 10 16
M  V30 16 1 17 12 CFG=1
M  V30 17 1 17 18
M  V30 18 1 17 19
M  V30 19 1 18 20
M  V30 20 1 19 21
M  V30 21 2 21 22
M  V30 22 1 21 23
M  V30 23 1 22 24
M  V30 24 2 23 25
M  V30 25 1 24 26
M  V30 26 2 24 27
M  V30 27 2 5 7
M  V30 28 2 13 16
M  V30 29 1 25 27
M  V30 END BOND
M  V30 BEGIN COLLECTION
M  V30 MDLV30/STEABS ATOMS=(1 17)
M  V30 END COLLECTION
M  V30 END CTAB
M  END
>  <Compound ID>
234

>  <Name>
Afuresertib

>  <Uniprot>
Q9Y243

>  <Target>
AKT3

>  <Smiles>
CN1N=CC(Cl)=C1C1=C(Cl)SC(C(=O)N[C@H](CN)CC2=CC=CC(F)=C2)=C1

>  <Kd (nM)>
7

>  <Assay (Kd)>
Kd apparent of AKT3

>  <Ki (nM)>


>  <Assay (Ki)>


>  <IC50 (nM)>


>  <Assay (IC50)>


>  <EC50 (nM)>


>  <Assay (EC50)>


>  <Article DOI>
10.1126/science.aan4368

>  <Molecular Weight>
427.332

>  <Exact Mass>
426.048415744

>  <XLogP3>
3.96

>  <Heavy Atom Count>
27

>  <Ring Count>
3

>  <Hydrogen Bond Acceptor Count>
5

>  <Hydrogen Bond Donor Count>
2

>  <Rotatable Bond Count>
6

>  <Topological Polar Surface Area>
72.94

>  <Molecular Formula>
C18H17Cl2FN4OS

>  <InChI>
InChI=1S/C18H17Cl2FN4OS/c1-25-16(14(19)9-23-25)13-7-15(27-17(13)20)18(26)24-12(8-22)6-10-3-2-4-11(21)5-10/h2-5,7,9,12H,6,8,22H2,1H3,(H,24,26)/t12-/m0/s1

>  <InChI Key>
AFJRDFWMXUECEW-LBPRGKRZSA-N

>  <BindingDB>
50502477

>  <PubChem>
46843057

>  <ChEMBL>
CHEMBL2219422

$$$$
Compound 847
Actelion Java MolfileCreator 2.0

  0  0  0  0  0  0              0 V3000
M  V30 BEGIN CTAB
M  V30 COUNTS 36 40 0 0 0
M  V30 BEGIN ATOM
M  V30 1 F 0.0 0.0 0.0 0
M  V30 2 C 0.4144 -1.4328 0.0 0
M  V30 3 C -0.6276 -2.5104 0.0 0
M  V30 4 C 1.871 -1.7762 0.0 0
M  V30 5 O -2.1078 -2.1433 0.0 0
M  V30 6 C -0.2131 -3.9433 0.0 0
M  V30 7 C 2.2854 -3.2091 0.0 0
M  V30 8 C -3.1499 -3.2209 0.0 0
M  V30 9 C 1.2433 -4.2867 0.0 0
M  V30 10 N 3.742 -3.5525 0.0 0
M  V30 11 C -2.7354 -4.6538 0.0 0
M  V30 12 C -4.6301 -2.8538 0.0 0
M  V30 13 F 1.6578 -5.7195 0.0 0
M  V30 14 C 4.7603 -2.4512 0.0 0
M  V30 15 C -3.7775 -5.7314 0.0 0
M  V30 16 C -5.6722 -3.9314 0.0 0
M  V30 17 O 4.3222 -0.9947 0.0 0
M  V30 18 C 6.2169 -2.7946 0.0 0
M  V30 19 N -5.2577 -5.3643 0.0 0
M  V30 20 C -3.363 -7.1642 0.0 0
M  V30 21 C 6.1103 -4.2867 0.0 0
M  V30 22 C 7.6971 -2.617 0.0 0
M  V30 23 C 6.809 -1.3973 0.0 0
M  V30 24 C -4.2867 -8.3484 0.0 0
M  V30 25 C -1.9538 -7.6497 0.0 0
M  V30 26 O 4.7485 -4.9498 0.0 0
M  V30 27 N 7.3537 -5.1038 0.0 0
M  V30 28 N -3.4459 -9.5799 0.0 0
M  V30 29 N -2.0012 -9.1418 0.0 0
M  V30 30 C 7.2471 -6.5958 0.0 0
M  V30 31 C -0.817 -10.0418 0.0 0
M  V30 32 C 5.8853 -7.259 0.0 0
M  V30 33 C 8.4905 -7.4129 0.0 0
M  V30 34 C 5.7787 -8.751 0.0 0
M  V30 35 C 8.3839 -8.905 0.0 0
M  V30 36 C 7.0221 -9.5681 0.0 0
M  V30 END ATOM
M  V30 BEGIN BOND
M  V30 1 1 1 2
M  V30 2 2 2 3
M  V30 3 1 2 4
M  V30 4 1 3 5
M  V30 5 1 3 6
M  V30 6 2 4 7
M  V30 7 1 5 8
M  V30 8 2 6 9
M  V30 9 1 7 10
M  V30 10 2 8 11
M  V30 11 1 8 12
M  V30 12 1 9 13
M  V30 13 1 10 14
M  V30 14 1 11 15
M  V30 15 2 12 16
M  V30 16 2 14 17
M  V30 17 1 14 18
M  V30 18 2 15 19
M  V30 19 1 15 20
M  V30 20 1 18 21
M  V30 21 1 18 22
M  V30 22 1 18 23
M  V30 23 1 20 24
M  V30 24 2 20 25
M  V30 25 2 21 26
M  V30 26 1 21 27
M  V30 27 2 24 28
M  V30 28 1 25 29
M  V30 29 1 27 30
M  V30 30 1 29 31
M  V30 31 2 30 32
M  V30 32 1 30 33
M  V30 33 1 32 34
M  V30 34 2 33 35
M  V30 35 2 34 36
M  V30 36 1 7 9
M  V30 37 1 16 19
M  V30 38 1 22 23
M  V30 39 1 28 29
M  V30 40 1 35 36
M  V30 END BOND
M  V30 END CTAB
M  END
>  <Compound ID>
235

>  <Name>
c-Kit-IN-1

>  <Uniprot>
P10721

>  <Target>
c-KIT

>  <Smiles>
CN1C=C(C2=CC(OC3=CC(F)=C(NC(=O)C4(C(=O)NC5=CC=CC=C5)CC4)C=C3F)=CC=N2)C=N1

>  <Kd (nM)>


>  <Assay (Kd)>


>  <Ki (nM)>


>  <Assay (Ki)>


>  <IC50 (nM)>


>  <Assay (IC50)>


>  <EC50 (nM)>


>  <Assay (EC50)>


>  <Article DOI>
10.1016/j.cell.2020.10.038

>  <Molecular Weight>
489.482

>  <Exact Mass>
489.161245972

>  <XLogP3>
4.18

>  <Heavy Atom Count>
36

>  <Ring Count>
5

>  <Hydrogen Bond Acceptor Count>
6

>  <Hydrogen Bond Donor Count>
2

>  <Rotatable Bond Count>
7

>  <Topological Polar Surface Area>
98.14

>  <Molecular Formula>
C26H21F2N5O3

>  <InChI>
InChI=1S/C26H21F2N5O3/c1-33-15-16(14-30-33)21-11-18(7-10-29-21)36-23-13-19(27)22(12-20(23)28)32-25(35)26(8-9-26)24(34)31-17-5-3-2-4-6-17/h2-7,10-15H,8-9H2,1H3,(H,31,34)(H,32,35)

>  <InChI Key>
WWOXKWLDMLMYQY-UHFFFAOYSA-N

>  <BindingDB>


>  <PubChem>
46208890

>  <ChEMBL>
CHEMBL4303619

$$$$
Compound 848
Actelion Java MolfileCreator 2.0

  0  0  0  0  0  0              0 V3000
M  V30 BEGIN CTAB
M  V30 COUNTS 31 34 0 0 0
M  V30 BEGIN ATOM
M  V30 1 Cl 0.0 0.0 0.0 0
M  V30 2 C 0.0592 -1.493 0.0 0
M  V30 3 C 1.3864 -2.1803 0.0 0
M  V30 4 C -1.2205 -2.287 0.0 0
M  V30 5 C 2.6425 -1.3627 0.0 0
M  V30 6 C 1.4456 -3.6734 0.0 0
M  V30 7 C -1.1612 -3.7801 0.0 0
M  V30 8 C 2.5595 0.154 0.0 0
M  V30 9 C 3.9697 -2.05 0.0 0
M  V30 10 Cl 2.7728 -4.3607 0.0 0
M  V30 11 C 0.1658 -4.4674 0.0 0
M  V30 12 O 1.2086 0.865 0.0 0
M  V30 13 N 3.8156 0.9716 0.0 0
M  V30 14 C 5.2258 -1.2323 0.0 0
M  V30 15 C 5.1428 0.2843 0.0 0
M  V30 16 C 3.7327 2.4884 0.0 0
M  V30 17 C 6.5529 -1.9196 0.0 0
M  V30 18 N 6.3989 1.102 0.0 0
M  V30 19 N 7.809 -1.102 0.0 0
M  V30 20 C 7.7261 0.4147 0.0 0
M  V30 21 N 8.9822 1.2323 0.0 0
M  V30 22 C 10.3094 0.545 0.0 0
M  V30 23 C 10.3686 -0.9479 0.0 0
M  V30 24 C 11.5655 1.3627 0.0 0
M  V30 25 C 11.6958 -1.6352 0.0 0
M  V30 26 C 12.8927 0.6754 0.0 0
M  V30 27 C 12.9519 -0.8176 0.0 0
M  V30 28 O 14.2791 -1.5049 0.0 0
M  V30 29 C 14.3383 -2.998 0.0 0
M  V30 30 C 15.6655 -3.6853 0.0 0
M  V30 31 N 15.7248 -5.1784 0.0 0
M  V30 END ATOM
M  V30 BEGIN BOND
M  V30 1 1 1 2
M  V30 2 2 2 3
M  V30 3 1 2 4
M  V30 4 1 3 5
M  V30 5 1 3 6
M  V30 6 2 4 7
M  V30 7 1 5 8
M  V30 8 2 5 9
M  V30 9 1 6 10
M  V30 10 2 6 11
M  V30 11 2 8 12
M  V30 12 1 8 13
M  V30 13 1 9 14
M  V30 14 1 13 15
M  V30 15 1 13 16
M  V30 16 1 14 17
M  V30 17 1 15 18
M  V30 18 2 17 19
M  V30 19 2 18 20
M  V30 20 1 20 21
M  V30 21 1 21 22
M  V30 22 2 22 23
M  V30 23 1 22 24
M  V30 24 1 23 25
M  V30 25 2 24 26
M  V30 26 2 25 27
M  V30 27 1 27 28
M  V30 28 1 28 29
M  V30 29 1 29 30
M  V30 30 1 30 31
M  V30 31 1 7 11
M  V30 32 2 14 15
M  V30 33 1 19 20
M  V30 34 1 26 27
M  V30 END BOND
M  V30 END CTAB
M  END
>  <Compound ID>
236

>  <Name>
PP58

>  <Uniprot>
P00519

>  <Target>
ABL1

>  <Smiles>
CN1C(=O)C(C2=C(Cl)C=CC=C2Cl)=CC2=CN=C(NC3=CC=C(OCCN)C=C3)N=C21

>  <Kd (nM)>


>  <Assay (Kd)>


>  <Ki (nM)>


>  <Assay (Ki)>


>  <IC50 (nM)>


>  <Assay (IC50)>


>  <EC50 (nM)>


>  <Assay (EC50)>


>  <Article DOI>
10.1016/j.cell.2020.10.038

>  <Molecular Weight>
456.333

>  <Exact Mass>
455.091580208

>  <XLogP3>
3.93

>  <Heavy Atom Count>
31

>  <Ring Count>
4

>  <Hydrogen Bond Acceptor Count>
7

>  <Hydrogen Bond Donor Count>
2

>  <Rotatable Bond Count>
6

>  <Topological Polar Surface Area>
95.06

>  <Molecular Formula>
C22H19Cl2N5O2

>  <InChI>
InChI=1S/C22H19Cl2N5O2/c1-29-20-13(11-16(21(29)30)19-17(23)3-2-4-18(19)24)12-26-22(28-20)27-14-5-7-15(8-6-14)31-10-9-25/h2-8,11-12H,9-10,25H2,1H3,(H,26,27,28)

>  <InChI Key>
MAXZESONWXTISA-UHFFFAOYSA-N

>  <BindingDB>
3091

>  <PubChem>
5327904

>  <ChEMBL>
CHEMBL331366

$$$$
Compound 849
Actelion Java MolfileCreator 2.0

  0  0  0  0  0  0              0 V3000
M  V30 BEGIN CTAB
M  V30 COUNTS 31 34 0 0 0
M  V30 BEGIN ATOM
M  V30 1 Cl 0.0 0.0 0.0 0
M  V30 2 C 0.0592 -1.493 0.0 0
M  V30 3 C 1.3864 -2.1803 0.0 0
M  V30 4 C -1.2205 -2.287 0.0 0
M  V30 5 C 2.6425 -1.3627 0.0 0
M  V30 6 C 1.4456 -3.6734 0.0 0
M  V30 7 C -1.1612 -3.7801 0.0 0
M  V30 8 C 2.5595 0.154 0.0 0
M  V30 9 C 3.9697 -2.05 0.0 0
M  V30 10 Cl 2.7728 -4.3607 0.0 0
M  V30 11 C 0.1658 -4.4674 0.0 0
M  V30 12 O 1.2086 0.865 0.0 0
M  V30 13 N 3.8156 0.9716 0.0 0
M  V30 14 C 5.2258 -1.2323 0.0 0
M  V30 15 C 5.1428 0.2843 0.0 0
M  V30 16 C 3.7327 2.4884 0.0 0
M  V30 17 C 6.5529 -1.9196 0.0 0
M  V30 18 N 6.3989 1.102 0.0 0
M  V30 19 N 7.809 -1.102 0.0 0
M  V30 20 C 7.7261 0.4147 0.0 0
M  V30 21 N 8.9822 1.2323 0.0 0
M  V30 22 C 10.3094 0.545 0.0 0
M  V30 23 C 10.3686 -0.9479 0.0 0
M  V30 24 C 11.5655 1.3627 0.0 0
M  V30 25 C 11.6958 -1.6352 0.0 0
M  V30 26 C 12.8927 0.6754 0.0 0
M  V30 27 C 12.9519 -0.8176 0.0 0
M  V30 28 O 14.2791 -1.5049 0.0 0
M  V30 29 C 14.3383 -2.998 0.0 0
M  V30 30 C 15.6655 -3.6853 0.0 0
M  V30 31 N 15.7248 -5.1784 0.0 0
M  V30 END ATOM
M  V30 BEGIN BOND
M  V30 1 1 1 2
M  V30 2 2 2 3
M  V30 3 1 2 4
M  V30 4 1 3 5
M  V30 5 1 3 6
M  V30 6 2 4 7
M  V30 7 1 5 8
M  V30 8 2 5 9
M  V30 9 1 6 10
M  V30 10 2 6 11
M  V30 11 2 8 12
M  V30 12 1 8 13
M  V30 13 1 9 14
M  V30 14 1 13 15
M  V30 15 1 13 16
M  V30 16 1 14 17
M  V30 17 1 15 18
M  V30 18 2 17 19
M  V30 19 2 18 20
M  V30 20 1 20 21
M  V30 21 1 21 22
M  V30 22 2 22 23
M  V30 23 1 22 24
M  V30 24 1 23 25
M  V30 25 2 24 26
M  V30 26 2 25 27
M  V30 27 1 27 28
M  V30 28 1 28 29
M  V30 29 1 29 30
M  V30 30 1 30 31
M  V30 31 1 7 11
M  V30 32 2 14 15
M  V30 33 1 19 20
M  V30 34 1 26 27
M  V30 END BOND
M  V30 END CTAB
M  END
>  <Compound ID>
236

>  <Name>
PP58

>  <Uniprot>
P42684

>  <Target>
ABL2

>  <Smiles>
CN1C(=O)C(C2=C(Cl)C=CC=C2Cl)=CC2=CN=C(NC3=CC=C(OCCN)C=C3)N=C21

>  <Kd (nM)>


>  <Assay (Kd)>


>  <Ki (nM)>


>  <Assay (Ki)>


>  <IC50 (nM)>


>  <Assay (IC50)>


>  <EC50 (nM)>


>  <Assay (EC50)>


>  <Article DOI>
10.1016/j.cell.2020.10.038

>  <Molecular Weight>
456.333

>  <Exact Mass>
455.091580208

>  <XLogP3>
3.93

>  <Heavy Atom Count>
31

>  <Ring Count>
4

>  <Hydrogen Bond Acceptor Count>
7

>  <Hydrogen Bond Donor Count>
2

>  <Rotatable Bond Count>
6

>  <Topological Polar Surface Area>
95.06

>  <Molecular Formula>
C22H19Cl2N5O2

>  <InChI>
InChI=1S/C22H19Cl2N5O2/c1-29-20-13(11-16(21(29)30)19-17(23)3-2-4-18(19)24)12-26-22(28-20)27-14-5-7-15(8-6-14)31-10-9-25/h2-8,11-12H,9-10,25H2,1H3,(H,26,27,28)

>  <InChI Key>
MAXZESONWXTISA-UHFFFAOYSA-N

>  <BindingDB>
3091

>  <PubChem>
5327904

>  <ChEMBL>
CHEMBL331366

$$$$
Compound 850
Actelion Java MolfileCreator 2.0

  0  0  0  0  0  0              0 V3000
M  V30 BEGIN CTAB
M  V30 COUNTS 31 34 0 0 0
M  V30 BEGIN ATOM
M  V30 1 Cl 0.0 0.0 0.0 0
M  V30 2 C 0.0592 -1.493 0.0 0
M  V30 3 C 1.3864 -2.1803 0.0 0
M  V30 4 C -1.2205 -2.287 0.0 0
M  V30 5 C 2.6425 -1.3627 0.0 0
M  V30 6 C 1.4456 -3.6734 0.0 0
M  V30 7 C -1.1612 -3.7801 0.0 0
M  V30 8 C 2.5595 0.154 0.0 0
M  V30 9 C 3.9697 -2.05 0.0 0
M  V30 10 Cl 2.7728 -4.3607 0.0 0
M  V30 11 C 0.1658 -4.4674 0.0 0
M  V30 12 O 1.2086 0.865 0.0 0
M  V30 13 N 3.8156 0.9716 0.0 0
M  V30 14 C 5.2258 -1.2323 0.0 0
M  V30 15 C 5.1428 0.2843 0.0 0
M  V30 16 C 3.7327 2.4884 0.0 0
M  V30 17 C 6.5529 -1.9196 0.0 0
M  V30 18 N 6.3989 1.102 0.0 0
M  V30 19 N 7.809 -1.102 0.0 0
M  V30 20 C 7.7261 0.4147 0.0 0
M  V30 21 N 8.9822 1.2323 0.0 0
M  V30 22 C 10.3094 0.545 0.0 0
M  V30 23 C 10.3686 -0.9479 0.0 0
M  V30 24 C 11.5655 1.3627 0.0 0
M  V30 25 C 11.6958 -1.6352 0.0 0
M  V30 26 C 12.8927 0.6754 0.0 0
M  V30 27 C 12.9519 -0.8176 0.0 0
M  V30 28 O 14.2791 -1.5049 0.0 0
M  V30 29 C 14.3383 -2.998 0.0 0
M  V30 30 C 15.6655 -3.6853 0.0 0
M  V30 31 N 15.7248 -5.1784 0.0 0
M  V30 END ATOM
M  V30 BEGIN BOND
M  V30 1 1 1 2
M  V30 2 2 2 3
M  V30 3 1 2 4
M  V30 4 1 3 5
M  V30 5 1 3 6
M  V30 6 2 4 7
M  V30 7 1 5 8
M  V30 8 2 5 9
M  V30 9 1 6 10
M  V30 10 2 6 11
M  V30 11 2 8 12
M  V30 12 1 8 13
M  V30 13 1 9 14
M  V30 14 1 13 15
M  V30 15 1 13 16
M  V30 16 1 14 17
M  V30 17 1 15 18
M  V30 18 2 17 19
M  V30 19 2 18 20
M  V30 20 1 20 21
M  V30 21 1 21 22
M  V30 22 2 22 23
M  V30 23 1 22 24
M  V30 24 1 23 25
M  V30 25 2 24 26
M  V30 26 2 25 27
M  V30 27 1 27 28
M  V30 28 1 28 29
M  V30 29 1 29 30
M  V30 30 1 30 31
M  V30 31 1 7 11
M  V30 32 2 14 15
M  V30 33 1 19 20
M  V30 34 1 26 27
M  V30 END BOND
M  V30 END CTAB
M  END
>  <Compound ID>
236

>  <Name>
PP58

>  <Uniprot>
O14965

>  <Target>
AURKA

>  <Smiles>
CN1C(=O)C(C2=C(Cl)C=CC=C2Cl)=CC2=CN=C(NC3=CC=C(OCCN)C=C3)N=C21

>  <Kd (nM)>


>  <Assay (Kd)>


>  <Ki (nM)>


>  <Assay (Ki)>


>  <IC50 (nM)>


>  <Assay (IC50)>


>  <EC50 (nM)>


>  <Assay (EC50)>


>  <Article DOI>
10.1016/j.cell.2020.10.038

>  <Molecular Weight>
456.333

>  <Exact Mass>
455.091580208

>  <XLogP3>
3.93

>  <Heavy Atom Count>
31

>  <Ring Count>
4

>  <Hydrogen Bond Acceptor Count>
7

>  <Hydrogen Bond Donor Count>
2

>  <Rotatable Bond Count>
6

>  <Topological Polar Surface Area>
95.06

>  <Molecular Formula>
C22H19Cl2N5O2

>  <InChI>
InChI=1S/C22H19Cl2N5O2/c1-29-20-13(11-16(21(29)30)19-17(23)3-2-4-18(19)24)12-26-22(28-20)27-14-5-7-15(8-6-14)31-10-9-25/h2-8,11-12H,9-10,25H2,1H3,(H,26,27,28)

>  <InChI Key>
MAXZESONWXTISA-UHFFFAOYSA-N

>  <BindingDB>
3091

>  <PubChem>
5327904

>  <ChEMBL>
CHEMBL331366

$$$$
Compound 851
Actelion Java MolfileCreator 2.0

  0  0  0  0  0  0              0 V3000
M  V30 BEGIN CTAB
M  V30 COUNTS 31 34 0 0 0
M  V30 BEGIN ATOM
M  V30 1 Cl 0.0 0.0 0.0 0
M  V30 2 C 0.0592 -1.493 0.0 0
M  V30 3 C 1.3864 -2.1803 0.0 0
M  V30 4 C -1.2205 -2.287 0.0 0
M  V30 5 C 2.6425 -1.3627 0.0 0
M  V30 6 C 1.4456 -3.6734 0.0 0
M  V30 7 C -1.1612 -3.7801 0.0 0
M  V30 8 C 2.5595 0.154 0.0 0
M  V30 9 C 3.9697 -2.05 0.0 0
M  V30 10 Cl 2.7728 -4.3607 0.0 0
M  V30 11 C 0.1658 -4.4674 0.0 0
M  V30 12 O 1.2086 0.865 0.0 0
M  V30 13 N 3.8156 0.9716 0.0 0
M  V30 14 C 5.2258 -1.2323 0.0 0
M  V30 15 C 5.1428 0.2843 0.0 0
M  V30 16 C 3.7327 2.4884 0.0 0
M  V30 17 C 6.5529 -1.9196 0.0 0
M  V30 18 N 6.3989 1.102 0.0 0
M  V30 19 N 7.809 -1.102 0.0 0
M  V30 20 C 7.7261 0.4147 0.0 0
M  V30 21 N 8.9822 1.2323 0.0 0
M  V30 22 C 10.3094 0.545 0.0 0
M  V30 23 C 10.3686 -0.9479 0.0 0
M  V30 24 C 11.5655 1.3627 0.0 0
M  V30 25 C 11.6958 -1.6352 0.0 0
M  V30 26 C 12.8927 0.6754 0.0 0
M  V30 27 C 12.9519 -0.8176 0.0 0
M  V30 28 O 14.2791 -1.5049 0.0 0
M  V30 29 C 14.3383 -2.998 0.0 0
M  V30 30 C 15.6655 -3.6853 0.0 0
M  V30 31 N 15.7248 -5.1784 0.0 0
M  V30 END ATOM
M  V30 BEGIN BOND
M  V30 1 1 1 2
M  V30 2 2 2 3
M  V30 3 1 2 4
M  V30 4 1 3 5
M  V30 5 1 3 6
M  V30 6 2 4 7
M  V30 7 1 5 8
M  V30 8 2 5 9
M  V30 9 1 6 10
M  V30 10 2 6 11
M  V30 11 2 8 12
M  V30 12 1 8 13
M  V30 13 1 9 14
M  V30 14 1 13 15
M  V30 15 1 13 16
M  V30 16 1 14 17
M  V30 17 1 15 18
M  V30 18 2 17 19
M  V30 19 2 18 20
M  V30 20 1 20 21
M  V30 21 1 21 22
M  V30 22 2 22 23
M  V30 23 1 22 24
M  V30 24 1 23 25
M  V30 25 2 24 26
M  V30 26 2 25 27
M  V30 27 1 27 28
M  V30 28 1 28 29
M  V30 29 1 29 30
M  V30 30 1 30 31
M  V30 31 1 7 11
M  V30 32 2 14 15
M  V30 33 1 19 20
M  V30 34 1 26 27
M  V30 END BOND
M  V30 END CTAB
M  END
>  <Compound ID>
236

>  <Name>
PP58

>  <Uniprot>
P51451

>  <Target>
BLK

>  <Smiles>
CN1C(=O)C(C2=C(Cl)C=CC=C2Cl)=CC2=CN=C(NC3=CC=C(OCCN)C=C3)N=C21

>  <Kd (nM)>


>  <Assay (Kd)>


>  <Ki (nM)>


>  <Assay (Ki)>


>  <IC50 (nM)>


>  <Assay (IC50)>


>  <EC50 (nM)>


>  <Assay (EC50)>


>  <Article DOI>
10.1016/j.cell.2020.10.038

>  <Molecular Weight>
456.333

>  <Exact Mass>
455.091580208

>  <XLogP3>
3.93

>  <Heavy Atom Count>
31

>  <Ring Count>
4

>  <Hydrogen Bond Acceptor Count>
7

>  <Hydrogen Bond Donor Count>
2

>  <Rotatable Bond Count>
6

>  <Topological Polar Surface Area>
95.06

>  <Molecular Formula>
C22H19Cl2N5O2

>  <InChI>
InChI=1S/C22H19Cl2N5O2/c1-29-20-13(11-16(21(29)30)19-17(23)3-2-4-18(19)24)12-26-22(28-20)27-14-5-7-15(8-6-14)31-10-9-25/h2-8,11-12H,9-10,25H2,1H3,(H,26,27,28)

>  <InChI Key>
MAXZESONWXTISA-UHFFFAOYSA-N

>  <BindingDB>
3091

>  <PubChem>
5327904

>  <ChEMBL>
CHEMBL331366

$$$$
Compound 852
Actelion Java MolfileCreator 2.0

  0  0  0  0  0  0              0 V3000
M  V30 BEGIN CTAB
M  V30 COUNTS 31 34 0 0 0
M  V30 BEGIN ATOM
M  V30 1 Cl 0.0 0.0 0.0 0
M  V30 2 C 0.0592 -1.493 0.0 0
M  V30 3 C 1.3864 -2.1803 0.0 0
M  V30 4 C -1.2205 -2.287 0.0 0
M  V30 5 C 2.6425 -1.3627 0.0 0
M  V30 6 C 1.4456 -3.6734 0.0 0
M  V30 7 C -1.1612 -3.7801 0.0 0
M  V30 8 C 2.5595 0.154 0.0 0
M  V30 9 C 3.9697 -2.05 0.0 0
M  V30 10 Cl 2.7728 -4.3607 0.0 0
M  V30 11 C 0.1658 -4.4674 0.0 0
M  V30 12 O 1.2086 0.865 0.0 0
M  V30 13 N 3.8156 0.9716 0.0 0
M  V30 14 C 5.2258 -1.2323 0.0 0
M  V30 15 C 5.1428 0.2843 0.0 0
M  V30 16 C 3.7327 2.4884 0.0 0
M  V30 17 C 6.5529 -1.9196 0.0 0
M  V30 18 N 6.3989 1.102 0.0 0
M  V30 19 N 7.809 -1.102 0.0 0
M  V30 20 C 7.7261 0.4147 0.0 0
M  V30 21 N 8.9822 1.2323 0.0 0
M  V30 22 C 10.3094 0.545 0.0 0
M  V30 23 C 10.3686 -0.9479 0.0 0
M  V30 24 C 11.5655 1.3627 0.0 0
M  V30 25 C 11.6958 -1.6352 0.0 0
M  V30 26 C 12.8927 0.6754 0.0 0
M  V30 27 C 12.9519 -0.8176 0.0 0
M  V30 28 O 14.2791 -1.5049 0.0 0
M  V30 29 C 14.3383 -2.998 0.0 0
M  V30 30 C 15.6655 -3.6853 0.0 0
M  V30 31 N 15.7248 -5.1784 0.0 0
M  V30 END ATOM
M  V30 BEGIN BOND
M  V30 1 1 1 2
M  V30 2 2 2 3
M  V30 3 1 2 4
M  V30 4 1 3 5
M  V30 5 1 3 6
M  V30 6 2 4 7
M  V30 7 1 5 8
M  V30 8 2 5 9
M  V30 9 1 6 10
M  V30 10 2 6 11
M  V30 11 2 8 12
M  V30 12 1 8 13
M  V30 13 1 9 14
M  V30 14 1 13 15
M  V30 15 1 13 16
M  V30 16 1 14 17
M  V30 17 1 15 18
M  V30 18 2 17 19
M  V30 19 2 18 20
M  V30 20 1 20 21
M  V30 21 1 21 22
M  V30 22 2 22 23
M  V30 23 1 22 24
M  V30 24 1 23 25
M  V30 25 2 24 26
M  V30 26 2 25 27
M  V30 27 1 27 28
M  V30 28 1 28 29
M  V30 29 1 29 30
M  V30 30 1 30 31
M  V30 31 1 7 11
M  V30 32 2 14 15
M  V30 33 1 19 20
M  V30 34 1 26 27
M  V30 END BOND
M  V30 END CTAB
M  END
>  <Compound ID>
236

>  <Name>
PP58

>  <Uniprot>
P41240

>  <Target>
CSK

>  <Smiles>
CN1C(=O)C(C2=C(Cl)C=CC=C2Cl)=CC2=CN=C(NC3=CC=C(OCCN)C=C3)N=C21

>  <Kd (nM)>


>  <Assay (Kd)>


>  <Ki (nM)>


>  <Assay (Ki)>


>  <IC50 (nM)>


>  <Assay (IC50)>


>  <EC50 (nM)>


>  <Assay (EC50)>


>  <Article DOI>
10.1016/j.cell.2020.10.038

>  <Molecular Weight>
456.333

>  <Exact Mass>
455.091580208

>  <XLogP3>
3.93

>  <Heavy Atom Count>
31

>  <Ring Count>
4

>  <Hydrogen Bond Acceptor Count>
7

>  <Hydrogen Bond Donor Count>
2

>  <Rotatable Bond Count>
6

>  <Topological Polar Surface Area>
95.06

>  <Molecular Formula>
C22H19Cl2N5O2

>  <InChI>
InChI=1S/C22H19Cl2N5O2/c1-29-20-13(11-16(21(29)30)19-17(23)3-2-4-18(19)24)12-26-22(28-20)27-14-5-7-15(8-6-14)31-10-9-25/h2-8,11-12H,9-10,25H2,1H3,(H,26,27,28)

>  <InChI Key>
MAXZESONWXTISA-UHFFFAOYSA-N

>  <BindingDB>
3091

>  <PubChem>
5327904

>  <ChEMBL>
CHEMBL331366

$$$$
Compound 853
Actelion Java MolfileCreator 2.0

  0  0  0  0  0  0              0 V3000
M  V30 BEGIN CTAB
M  V30 COUNTS 31 34 0 0 0
M  V30 BEGIN ATOM
M  V30 1 Cl 0.0 0.0 0.0 0
M  V30 2 C 0.0592 -1.493 0.0 0
M  V30 3 C 1.3864 -2.1803 0.0 0
M  V30 4 C -1.2205 -2.287 0.0 0
M  V30 5 C 2.6425 -1.3627 0.0 0
M  V30 6 C 1.4456 -3.6734 0.0 0
M  V30 7 C -1.1612 -3.7801 0.0 0
M  V30 8 C 2.5595 0.154 0.0 0
M  V30 9 C 3.9697 -2.05 0.0 0
M  V30 10 Cl 2.7728 -4.3607 0.0 0
M  V30 11 C 0.1658 -4.4674 0.0 0
M  V30 12 O 1.2086 0.865 0.0 0
M  V30 13 N 3.8156 0.9716 0.0 0
M  V30 14 C 5.2258 -1.2323 0.0 0
M  V30 15 C 5.1428 0.2843 0.0 0
M  V30 16 C 3.7327 2.4884 0.0 0
M  V30 17 C 6.5529 -1.9196 0.0 0
M  V30 18 N 6.3989 1.102 0.0 0
M  V30 19 N 7.809 -1.102 0.0 0
M  V30 20 C 7.7261 0.4147 0.0 0
M  V30 21 N 8.9822 1.2323 0.0 0
M  V30 22 C 10.3094 0.545 0.0 0
M  V30 23 C 10.3686 -0.9479 0.0 0
M  V30 24 C 11.5655 1.3627 0.0 0
M  V30 25 C 11.6958 -1.6352 0.0 0
M  V30 26 C 12.8927 0.6754 0.0 0
M  V30 27 C 12.9519 -0.8176 0.0 0
M  V30 28 O 14.2791 -1.5049 0.0 0
M  V30 29 C 14.3383 -2.998 0.0 0
M  V30 30 C 15.6655 -3.6853 0.0 0
M  V30 31 N 15.7248 -5.1784 0.0 0
M  V30 END ATOM
M  V30 BEGIN BOND
M  V30 1 1 1 2
M  V30 2 2 2 3
M  V30 3 1 2 4
M  V30 4 1 3 5
M  V30 5 1 3 6
M  V30 6 2 4 7
M  V30 7 1 5 8
M  V30 8 2 5 9
M  V30 9 1 6 10
M  V30 10 2 6 11
M  V30 11 2 8 12
M  V30 12 1 8 13
M  V30 13 1 9 14
M  V30 14 1 13 15
M  V30 15 1 13 16
M  V30 16 1 14 17
M  V30 17 1 15 18
M  V30 18 2 17 19
M  V30 19 2 18 20
M  V30 20 1 20 21
M  V30 21 1 21 22
M  V30 22 2 22 23
M  V30 23 1 22 24
M  V30 24 1 23 25
M  V30 25 2 24 26
M  V30 26 2 25 27
M  V30 27 1 27 28
M  V30 28 1 28 29
M  V30 29 1 29 30
M  V30 30 1 30 31
M  V30 31 1 7 11
M  V30 32 2 14 15
M  V30 33 1 19 20
M  V30 34 1 26 27
M  V30 END BOND
M  V30 END CTAB
M  END
>  <Compound ID>
236

>  <Name>
PP58

>  <Uniprot>
P29320

>  <Target>
EPHA3

>  <Smiles>
CN1C(=O)C(C2=C(Cl)C=CC=C2Cl)=CC2=CN=C(NC3=CC=C(OCCN)C=C3)N=C21

>  <Kd (nM)>


>  <Assay (Kd)>


>  <Ki (nM)>


>  <Assay (Ki)>


>  <IC50 (nM)>


>  <Assay (IC50)>


>  <EC50 (nM)>


>  <Assay (EC50)>


>  <Article DOI>
10.1016/j.cell.2020.10.038

>  <Molecular Weight>
456.333

>  <Exact Mass>
455.091580208

>  <XLogP3>
3.93

>  <Heavy Atom Count>
31

>  <Ring Count>
4

>  <Hydrogen Bond Acceptor Count>
7

>  <Hydrogen Bond Donor Count>
2

>  <Rotatable Bond Count>
6

>  <Topological Polar Surface Area>
95.06

>  <Molecular Formula>
C22H19Cl2N5O2

>  <InChI>
InChI=1S/C22H19Cl2N5O2/c1-29-20-13(11-16(21(29)30)19-17(23)3-2-4-18(19)24)12-26-22(28-20)27-14-5-7-15(8-6-14)31-10-9-25/h2-8,11-12H,9-10,25H2,1H3,(H,26,27,28)

>  <InChI Key>
MAXZESONWXTISA-UHFFFAOYSA-N

>  <BindingDB>
3091

>  <PubChem>
5327904

>  <ChEMBL>
CHEMBL331366

$$$$
Compound 854
Actelion Java MolfileCreator 2.0

  0  0  0  0  0  0              0 V3000
M  V30 BEGIN CTAB
M  V30 COUNTS 31 34 0 0 0
M  V30 BEGIN ATOM
M  V30 1 Cl 0.0 0.0 0.0 0
M  V30 2 C 0.0592 -1.493 0.0 0
M  V30 3 C 1.3864 -2.1803 0.0 0
M  V30 4 C -1.2205 -2.287 0.0 0
M  V30 5 C 2.6425 -1.3627 0.0 0
M  V30 6 C 1.4456 -3.6734 0.0 0
M  V30 7 C -1.1612 -3.7801 0.0 0
M  V30 8 C 2.5595 0.154 0.0 0
M  V30 9 C 3.9697 -2.05 0.0 0
M  V30 10 Cl 2.7728 -4.3607 0.0 0
M  V30 11 C 0.1658 -4.4674 0.0 0
M  V30 12 O 1.2086 0.865 0.0 0
M  V30 13 N 3.8156 0.9716 0.0 0
M  V30 14 C 5.2258 -1.2323 0.0 0
M  V30 15 C 5.1428 0.2843 0.0 0
M  V30 16 C 3.7327 2.4884 0.0 0
M  V30 17 C 6.5529 -1.9196 0.0 0
M  V30 18 N 6.3989 1.102 0.0 0
M  V30 19 N 7.809 -1.102 0.0 0
M  V30 20 C 7.7261 0.4147 0.0 0
M  V30 21 N 8.9822 1.2323 0.0 0
M  V30 22 C 10.3094 0.545 0.0 0
M  V30 23 C 10.3686 -0.9479 0.0 0
M  V30 24 C 11.5655 1.3627 0.0 0
M  V30 25 C 11.6958 -1.6352 0.0 0
M  V30 26 C 12.8927 0.6754 0.0 0
M  V30 27 C 12.9519 -0.8176 0.0 0
M  V30 28 O 14.2791 -1.5049 0.0 0
M  V30 29 C 14.3383 -2.998 0.0 0
M  V30 30 C 15.6655 -3.6853 0.0 0
M  V30 31 N 15.7248 -5.1784 0.0 0
M  V30 END ATOM
M  V30 BEGIN BOND
M  V30 1 1 1 2
M  V30 2 2 2 3
M  V30 3 1 2 4
M  V30 4 1 3 5
M  V30 5 1 3 6
M  V30 6 2 4 7
M  V30 7 1 5 8
M  V30 8 2 5 9
M  V30 9 1 6 10
M  V30 10 2 6 11
M  V30 11 2 8 12
M  V30 12 1 8 13
M  V30 13 1 9 14
M  V30 14 1 13 15
M  V30 15 1 13 16
M  V30 16 1 14 17
M  V30 17 1 15 18
M  V30 18 2 17 19
M  V30 19 2 18 20
M  V30 20 1 20 21
M  V30 21 1 21 22
M  V30 22 2 22 23
M  V30 23 1 22 24
M  V30 24 1 23 25
M  V30 25 2 24 26
M  V30 26 2 25 27
M  V30 27 1 27 28
M  V30 28 1 28 29
M  V30 29 1 29 30
M  V30 30 1 30 31
M  V30 31 1 7 11
M  V30 32 2 14 15
M  V30 33 1 19 20
M  V30 34 1 26 27
M  V30 END BOND
M  V30 END CTAB
M  END
>  <Compound ID>
236

>  <Name>
PP58

>  <Uniprot>
O15197

>  <Target>
EPHB6

>  <Smiles>
CN1C(=O)C(C2=C(Cl)C=CC=C2Cl)=CC2=CN=C(NC3=CC=C(OCCN)C=C3)N=C21

>  <Kd (nM)>


>  <Assay (Kd)>


>  <Ki (nM)>


>  <Assay (Ki)>


>  <IC50 (nM)>


>  <Assay (IC50)>


>  <EC50 (nM)>


>  <Assay (EC50)>


>  <Article DOI>
10.1016/j.cell.2020.10.038

>  <Molecular Weight>
456.333

>  <Exact Mass>
455.091580208

>  <XLogP3>
3.93

>  <Heavy Atom Count>
31

>  <Ring Count>
4

>  <Hydrogen Bond Acceptor Count>
7

>  <Hydrogen Bond Donor Count>
2

>  <Rotatable Bond Count>
6

>  <Topological Polar Surface Area>
95.06

>  <Molecular Formula>
C22H19Cl2N5O2

>  <InChI>
InChI=1S/C22H19Cl2N5O2/c1-29-20-13(11-16(21(29)30)19-17(23)3-2-4-18(19)24)12-26-22(28-20)27-14-5-7-15(8-6-14)31-10-9-25/h2-8,11-12H,9-10,25H2,1H3,(H,26,27,28)

>  <InChI Key>
MAXZESONWXTISA-UHFFFAOYSA-N

>  <BindingDB>
3091

>  <PubChem>
5327904

>  <ChEMBL>
CHEMBL331366

$$$$
Compound 855
Actelion Java MolfileCreator 2.0

  0  0  0  0  0  0              0 V3000
M  V30 BEGIN CTAB
M  V30 COUNTS 31 34 0 0 0
M  V30 BEGIN ATOM
M  V30 1 Cl 0.0 0.0 0.0 0
M  V30 2 C 0.0592 -1.493 0.0 0
M  V30 3 C 1.3864 -2.1803 0.0 0
M  V30 4 C -1.2205 -2.287 0.0 0
M  V30 5 C 2.6425 -1.3627 0.0 0
M  V30 6 C 1.4456 -3.6734 0.0 0
M  V30 7 C -1.1612 -3.7801 0.0 0
M  V30 8 C 2.5595 0.154 0.0 0
M  V30 9 C 3.9697 -2.05 0.0 0
M  V30 10 Cl 2.7728 -4.3607 0.0 0
M  V30 11 C 0.1658 -4.4674 0.0 0
M  V30 12 O 1.2086 0.865 0.0 0
M  V30 13 N 3.8156 0.9716 0.0 0
M  V30 14 C 5.2258 -1.2323 0.0 0
M  V30 15 C 5.1428 0.2843 0.0 0
M  V30 16 C 3.7327 2.4884 0.0 0
M  V30 17 C 6.5529 -1.9196 0.0 0
M  V30 18 N 6.3989 1.102 0.0 0
M  V30 19 N 7.809 -1.102 0.0 0
M  V30 20 C 7.7261 0.4147 0.0 0
M  V30 21 N 8.9822 1.2323 0.0 0
M  V30 22 C 10.3094 0.545 0.0 0
M  V30 23 C 10.3686 -0.9479 0.0 0
M  V30 24 C 11.5655 1.3627 0.0 0
M  V30 25 C 11.6958 -1.6352 0.0 0
M  V30 26 C 12.8927 0.6754 0.0 0
M  V30 27 C 12.9519 -0.8176 0.0 0
M  V30 28 O 14.2791 -1.5049 0.0 0
M  V30 29 C 14.3383 -2.998 0.0 0
M  V30 30 C 15.6655 -3.6853 0.0 0
M  V30 31 N 15.7248 -5.1784 0.0 0
M  V30 END ATOM
M  V30 BEGIN BOND
M  V30 1 1 1 2
M  V30 2 2 2 3
M  V30 3 1 2 4
M  V30 4 1 3 5
M  V30 5 1 3 6
M  V30 6 2 4 7
M  V30 7 1 5 8
M  V30 8 2 5 9
M  V30 9 1 6 10
M  V30 10 2 6 11
M  V30 11 2 8 12
M  V30 12 1 8 13
M  V30 13 1 9 14
M  V30 14 1 13 15
M  V30 15 1 13 16
M  V30 16 1 14 17
M  V30 17 1 15 18
M  V30 18 2 17 19
M  V30 19 2 18 20
M  V30 20 1 20 21
M  V30 21 1 21 22
M  V30 22 2 22 23
M  V30 23 1 22 24
M  V30 24 1 23 25
M  V30 25 2 24 26
M  V30 26 2 25 27
M  V30 27 1 27 28
M  V30 28 1 28 29
M  V30 29 1 29 30
M  V30 30 1 30 31
M  V30 31 1 7 11
M  V30 32 2 14 15
M  V30 33 1 19 20
M  V30 34 1 26 27
M  V30 END BOND
M  V30 END CTAB
M  END
>  <Compound ID>
236

>  <Name>
PP58

>  <Uniprot>
P06241

>  <Target>
FYN

>  <Smiles>
CN1C(=O)C(C2=C(Cl)C=CC=C2Cl)=CC2=CN=C(NC3=CC=C(OCCN)C=C3)N=C21

>  <Kd (nM)>


>  <Assay (Kd)>


>  <Ki (nM)>


>  <Assay (Ki)>


>  <IC50 (nM)>


>  <Assay (IC50)>


>  <EC50 (nM)>


>  <Assay (EC50)>


>  <Article DOI>
10.1016/j.cell.2020.10.038

>  <Molecular Weight>
456.333

>  <Exact Mass>
455.091580208

>  <XLogP3>
3.93

>  <Heavy Atom Count>
31

>  <Ring Count>
4

>  <Hydrogen Bond Acceptor Count>
7

>  <Hydrogen Bond Donor Count>
2

>  <Rotatable Bond Count>
6

>  <Topological Polar Surface Area>
95.06

>  <Molecular Formula>
C22H19Cl2N5O2

>  <InChI>
InChI=1S/C22H19Cl2N5O2/c1-29-20-13(11-16(21(29)30)19-17(23)3-2-4-18(19)24)12-26-22(28-20)27-14-5-7-15(8-6-14)31-10-9-25/h2-8,11-12H,9-10,25H2,1H3,(H,26,27,28)

>  <InChI Key>
MAXZESONWXTISA-UHFFFAOYSA-N

>  <BindingDB>
3091

>  <PubChem>
5327904

>  <ChEMBL>
CHEMBL331366

$$$$
Compound 856
Actelion Java MolfileCreator 2.0

  0  0  0  0  0  0              0 V3000
M  V30 BEGIN CTAB
M  V30 COUNTS 31 34 0 0 0
M  V30 BEGIN ATOM
M  V30 1 Cl 0.0 0.0 0.0 0
M  V30 2 C 0.0592 -1.493 0.0 0
M  V30 3 C 1.3864 -2.1803 0.0 0
M  V30 4 C -1.2205 -2.287 0.0 0
M  V30 5 C 2.6425 -1.3627 0.0 0
M  V30 6 C 1.4456 -3.6734 0.0 0
M  V30 7 C -1.1612 -3.7801 0.0 0
M  V30 8 C 2.5595 0.154 0.0 0
M  V30 9 C 3.9697 -2.05 0.0 0
M  V30 10 Cl 2.7728 -4.3607 0.0 0
M  V30 11 C 0.1658 -4.4674 0.0 0
M  V30 12 O 1.2086 0.865 0.0 0
M  V30 13 N 3.8156 0.9716 0.0 0
M  V30 14 C 5.2258 -1.2323 0.0 0
M  V30 15 C 5.1428 0.2843 0.0 0
M  V30 16 C 3.7327 2.4884 0.0 0
M  V30 17 C 6.5529 -1.9196 0.0 0
M  V30 18 N 6.3989 1.102 0.0 0
M  V30 19 N 7.809 -1.102 0.0 0
M  V30 20 C 7.7261 0.4147 0.0 0
M  V30 21 N 8.9822 1.2323 0.0 0
M  V30 22 C 10.3094 0.545 0.0 0
M  V30 23 C 10.3686 -0.9479 0.0 0
M  V30 24 C 11.5655 1.3627 0.0 0
M  V30 25 C 11.6958 -1.6352 0.0 0
M  V30 26 C 12.8927 0.6754 0.0 0
M  V30 27 C 12.9519 -0.8176 0.0 0
M  V30 28 O 14.2791 -1.5049 0.0 0
M  V30 29 C 14.3383 -2.998 0.0 0
M  V30 30 C 15.6655 -3.6853 0.0 0
M  V30 31 N 15.7248 -5.1784 0.0 0
M  V30 END ATOM
M  V30 BEGIN BOND
M  V30 1 1 1 2
M  V30 2 2 2 3
M  V30 3 1 2 4
M  V30 4 1 3 5
M  V30 5 1 3 6
M  V30 6 2 4 7
M  V30 7 1 5 8
M  V30 8 2 5 9
M  V30 9 1 6 10
M  V30 10 2 6 11
M  V30 11 2 8 12
M  V30 12 1 8 13
M  V30 13 1 9 14
M  V30 14 1 13 15
M  V30 15 1 13 16
M  V30 16 1 14 17
M  V30 17 1 15 18
M  V30 18 2 17 19
M  V30 19 2 18 20
M  V30 20 1 20 21
M  V30 21 1 21 22
M  V30 22 2 22 23
M  V30 23 1 22 24
M  V30 24 1 23 25
M  V30 25 2 24 26
M  V30 26 2 25 27
M  V30 27 1 27 28
M  V30 28 1 28 29
M  V30 29 1 29 30
M  V30 30 1 30 31
M  V30 31 1 7 11
M  V30 32 2 14 15
M  V30 33 1 19 20
M  V30 34 1 26 27
M  V30 END BOND
M  V30 END CTAB
M  END
>  <Compound ID>
236

>  <Name>
PP58

>  <Uniprot>
O14976

>  <Target>
GAK

>  <Smiles>
CN1C(=O)C(C2=C(Cl)C=CC=C2Cl)=CC2=CN=C(NC3=CC=C(OCCN)C=C3)N=C21

>  <Kd (nM)>


>  <Assay (Kd)>


>  <Ki (nM)>


>  <Assay (Ki)>


>  <IC50 (nM)>


>  <Assay (IC50)>


>  <EC50 (nM)>


>  <Assay (EC50)>


>  <Article DOI>
10.1016/j.cell.2020.10.038

>  <Molecular Weight>
456.333

>  <Exact Mass>
455.091580208

>  <XLogP3>
3.93

>  <Heavy Atom Count>
31

>  <Ring Count>
4

>  <Hydrogen Bond Acceptor Count>
7

>  <Hydrogen Bond Donor Count>
2

>  <Rotatable Bond Count>
6

>  <Topological Polar Surface Area>
95.06

>  <Molecular Formula>
C22H19Cl2N5O2

>  <InChI>
InChI=1S/C22H19Cl2N5O2/c1-29-20-13(11-16(21(29)30)19-17(23)3-2-4-18(19)24)12-26-22(28-20)27-14-5-7-15(8-6-14)31-10-9-25/h2-8,11-12H,9-10,25H2,1H3,(H,26,27,28)

>  <InChI Key>
MAXZESONWXTISA-UHFFFAOYSA-N

>  <BindingDB>
3091

>  <PubChem>
5327904

>  <ChEMBL>
CHEMBL331366

$$$$
Compound 857
Actelion Java MolfileCreator 2.0

  0  0  0  0  0  0              0 V3000
M  V30 BEGIN CTAB
M  V30 COUNTS 31 34 0 0 0
M  V30 BEGIN ATOM
M  V30 1 Cl 0.0 0.0 0.0 0
M  V30 2 C 0.0592 -1.493 0.0 0
M  V30 3 C 1.3864 -2.1803 0.0 0
M  V30 4 C -1.2205 -2.287 0.0 0
M  V30 5 C 2.6425 -1.3627 0.0 0
M  V30 6 C 1.4456 -3.6734 0.0 0
M  V30 7 C -1.1612 -3.7801 0.0 0
M  V30 8 C 2.5595 0.154 0.0 0
M  V30 9 C 3.9697 -2.05 0.0 0
M  V30 10 Cl 2.7728 -4.3607 0.0 0
M  V30 11 C 0.1658 -4.4674 0.0 0
M  V30 12 O 1.2086 0.865 0.0 0
M  V30 13 N 3.8156 0.9716 0.0 0
M  V30 14 C 5.2258 -1.2323 0.0 0
M  V30 15 C 5.1428 0.2843 0.0 0
M  V30 16 C 3.7327 2.4884 0.0 0
M  V30 17 C 6.5529 -1.9196 0.0 0
M  V30 18 N 6.3989 1.102 0.0 0
M  V30 19 N 7.809 -1.102 0.0 0
M  V30 20 C 7.7261 0.4147 0.0 0
M  V30 21 N 8.9822 1.2323 0.0 0
M  V30 22 C 10.3094 0.545 0.0 0
M  V30 23 C 10.3686 -0.9479 0.0 0
M  V30 24 C 11.5655 1.3627 0.0 0
M  V30 25 C 11.6958 -1.6352 0.0 0
M  V30 26 C 12.8927 0.6754 0.0 0
M  V30 27 C 12.9519 -0.8176 0.0 0
M  V30 28 O 14.2791 -1.5049 0.0 0
M  V30 29 C 14.3383 -2.998 0.0 0
M  V30 30 C 15.6655 -3.6853 0.0 0
M  V30 31 N 15.7248 -5.1784 0.0 0
M  V30 END ATOM
M  V30 BEGIN BOND
M  V30 1 1 1 2
M  V30 2 2 2 3
M  V30 3 1 2 4
M  V30 4 1 3 5
M  V30 5 1 3 6
M  V30 6 2 4 7
M  V30 7 1 5 8
M  V30 8 2 5 9
M  V30 9 1 6 10
M  V30 10 2 6 11
M  V30 11 2 8 12
M  V30 12 1 8 13
M  V30 13 1 9 14
M  V30 14 1 13 15
M  V30 15 1 13 16
M  V30 16 1 14 17
M  V30 17 1 15 18
M  V30 18 2 17 19
M  V30 19 2 18 20
M  V30 20 1 20 21
M  V30 21 1 21 22
M  V30 22 2 22 23
M  V30 23 1 22 24
M  V30 24 1 23 25
M  V30 25 2 24 26
M  V30 26 2 25 27
M  V30 27 1 27 28
M  V30 28 1 28 29
M  V30 29 1 29 30
M  V30 30 1 30 31
M  V30 31 1 7 11
M  V30 32 2 14 15
M  V30 33 1 19 20
M  V30 34 1 26 27
M  V30 END BOND
M  V30 END CTAB
M  END
>  <Compound ID>
236

>  <Name>
PP58

>  <Uniprot>
P06239

>  <Target>
LCK

>  <Smiles>
CN1C(=O)C(C2=C(Cl)C=CC=C2Cl)=CC2=CN=C(NC3=CC=C(OCCN)C=C3)N=C21

>  <Kd (nM)>


>  <Assay (Kd)>


>  <Ki (nM)>


>  <Assay (Ki)>


>  <IC50 (nM)>


>  <Assay (IC50)>


>  <EC50 (nM)>


>  <Assay (EC50)>


>  <Article DOI>
10.1016/j.cell.2020.10.038

>  <Molecular Weight>
456.333

>  <Exact Mass>
455.091580208

>  <XLogP3>
3.93

>  <Heavy Atom Count>
31

>  <Ring Count>
4

>  <Hydrogen Bond Acceptor Count>
7

>  <Hydrogen Bond Donor Count>
2

>  <Rotatable Bond Count>
6

>  <Topological Polar Surface Area>
95.06

>  <Molecular Formula>
C22H19Cl2N5O2

>  <InChI>
InChI=1S/C22H19Cl2N5O2/c1-29-20-13(11-16(21(29)30)19-17(23)3-2-4-18(19)24)12-26-22(28-20)27-14-5-7-15(8-6-14)31-10-9-25/h2-8,11-12H,9-10,25H2,1H3,(H,26,27,28)

>  <InChI Key>
MAXZESONWXTISA-UHFFFAOYSA-N

>  <BindingDB>
3091

>  <PubChem>
5327904

>  <ChEMBL>
CHEMBL331366

$$$$
Compound 858
Actelion Java MolfileCreator 2.0

  0  0  0  0  0  0              0 V3000
M  V30 BEGIN CTAB
M  V30 COUNTS 31 34 0 0 0
M  V30 BEGIN ATOM
M  V30 1 Cl 0.0 0.0 0.0 0
M  V30 2 C 0.0592 -1.493 0.0 0
M  V30 3 C 1.3864 -2.1803 0.0 0
M  V30 4 C -1.2205 -2.287 0.0 0
M  V30 5 C 2.6425 -1.3627 0.0 0
M  V30 6 C 1.4456 -3.6734 0.0 0
M  V30 7 C -1.1612 -3.7801 0.0 0
M  V30 8 C 2.5595 0.154 0.0 0
M  V30 9 C 3.9697 -2.05 0.0 0
M  V30 10 Cl 2.7728 -4.3607 0.0 0
M  V30 11 C 0.1658 -4.4674 0.0 0
M  V30 12 O 1.2086 0.865 0.0 0
M  V30 13 N 3.8156 0.9716 0.0 0
M  V30 14 C 5.2258 -1.2323 0.0 0
M  V30 15 C 5.1428 0.2843 0.0 0
M  V30 16 C 3.7327 2.4884 0.0 0
M  V30 17 C 6.5529 -1.9196 0.0 0
M  V30 18 N 6.3989 1.102 0.0 0
M  V30 19 N 7.809 -1.102 0.0 0
M  V30 20 C 7.7261 0.4147 0.0 0
M  V30 21 N 8.9822 1.2323 0.0 0
M  V30 22 C 10.3094 0.545 0.0 0
M  V30 23 C 10.3686 -0.9479 0.0 0
M  V30 24 C 11.5655 1.3627 0.0 0
M  V30 25 C 11.6958 -1.6352 0.0 0
M  V30 26 C 12.8927 0.6754 0.0 0
M  V30 27 C 12.9519 -0.8176 0.0 0
M  V30 28 O 14.2791 -1.5049 0.0 0
M  V30 29 C 14.3383 -2.998 0.0 0
M  V30 30 C 15.6655 -3.6853 0.0 0
M  V30 31 N 15.7248 -5.1784 0.0 0
M  V30 END ATOM
M  V30 BEGIN BOND
M  V30 1 1 1 2
M  V30 2 2 2 3
M  V30 3 1 2 4
M  V30 4 1 3 5
M  V30 5 1 3 6
M  V30 6 2 4 7
M  V30 7 1 5 8
M  V30 8 2 5 9
M  V30 9 1 6 10
M  V30 10 2 6 11
M  V30 11 2 8 12
M  V30 12 1 8 13
M  V30 13 1 9 14
M  V30 14 1 13 15
M  V30 15 1 13 16
M  V30 16 1 14 17
M  V30 17 1 15 18
M  V30 18 2 17 19
M  V30 19 2 18 20
M  V30 20 1 20 21
M  V30 21 1 21 22
M  V30 22 2 22 23
M  V30 23 1 22 24
M  V30 24 1 23 25
M  V30 25 2 24 26
M  V30 26 2 25 27
M  V30 27 1 27 28
M  V30 28 1 28 29
M  V30 29 1 29 30
M  V30 30 1 30 31
M  V30 31 1 7 11
M  V30 32 2 14 15
M  V30 33 1 19 20
M  V30 34 1 26 27
M  V30 END BOND
M  V30 END CTAB
M  END
>  <Compound ID>
236

>  <Name>
PP58

>  <Uniprot>
P53671

>  <Target>
LIMK2

>  <Smiles>
CN1C(=O)C(C2=C(Cl)C=CC=C2Cl)=CC2=CN=C(NC3=CC=C(OCCN)C=C3)N=C21

>  <Kd (nM)>


>  <Assay (Kd)>


>  <Ki (nM)>


>  <Assay (Ki)>


>  <IC50 (nM)>


>  <Assay (IC50)>


>  <EC50 (nM)>


>  <Assay (EC50)>


>  <Article DOI>
10.1016/j.cell.2020.10.038

>  <Molecular Weight>
456.333

>  <Exact Mass>
455.091580208

>  <XLogP3>
3.93

>  <Heavy Atom Count>
31

>  <Ring Count>
4

>  <Hydrogen Bond Acceptor Count>
7

>  <Hydrogen Bond Donor Count>
2

>  <Rotatable Bond Count>
6

>  <Topological Polar Surface Area>
95.06

>  <Molecular Formula>
C22H19Cl2N5O2

>  <InChI>
InChI=1S/C22H19Cl2N5O2/c1-29-20-13(11-16(21(29)30)19-17(23)3-2-4-18(19)24)12-26-22(28-20)27-14-5-7-15(8-6-14)31-10-9-25/h2-8,11-12H,9-10,25H2,1H3,(H,26,27,28)

>  <InChI Key>
MAXZESONWXTISA-UHFFFAOYSA-N

>  <BindingDB>
3091

>  <PubChem>
5327904

>  <ChEMBL>
CHEMBL331366

$$$$
Compound 859
Actelion Java MolfileCreator 2.0

  0  0  0  0  0  0              0 V3000
M  V30 BEGIN CTAB
M  V30 COUNTS 31 34 0 0 0
M  V30 BEGIN ATOM
M  V30 1 Cl 0.0 0.0 0.0 0
M  V30 2 C 0.0592 -1.493 0.0 0
M  V30 3 C 1.3864 -2.1803 0.0 0
M  V30 4 C -1.2205 -2.287 0.0 0
M  V30 5 C 2.6425 -1.3627 0.0 0
M  V30 6 C 1.4456 -3.6734 0.0 0
M  V30 7 C -1.1612 -3.7801 0.0 0
M  V30 8 C 2.5595 0.154 0.0 0
M  V30 9 C 3.9697 -2.05 0.0 0
M  V30 10 Cl 2.7728 -4.3607 0.0 0
M  V30 11 C 0.1658 -4.4674 0.0 0
M  V30 12 O 1.2086 0.865 0.0 0
M  V30 13 N 3.8156 0.9716 0.0 0
M  V30 14 C 5.2258 -1.2323 0.0 0
M  V30 15 C 5.1428 0.2843 0.0 0
M  V30 16 C 3.7327 2.4884 0.0 0
M  V30 17 C 6.5529 -1.9196 0.0 0
M  V30 18 N 6.3989 1.102 0.0 0
M  V30 19 N 7.809 -1.102 0.0 0
M  V30 20 C 7.7261 0.4147 0.0 0
M  V30 21 N 8.9822 1.2323 0.0 0
M  V30 22 C 10.3094 0.545 0.0 0
M  V30 23 C 10.3686 -0.9479 0.0 0
M  V30 24 C 11.5655 1.3627 0.0 0
M  V30 25 C 11.6958 -1.6352 0.0 0
M  V30 26 C 12.8927 0.6754 0.0 0
M  V30 27 C 12.9519 -0.8176 0.0 0
M  V30 28 O 14.2791 -1.5049 0.0 0
M  V30 29 C 14.3383 -2.998 0.0 0
M  V30 30 C 15.6655 -3.6853 0.0 0
M  V30 31 N 15.7248 -5.1784 0.0 0
M  V30 END ATOM
M  V30 BEGIN BOND
M  V30 1 1 1 2
M  V30 2 2 2 3
M  V30 3 1 2 4
M  V30 4 1 3 5
M  V30 5 1 3 6
M  V30 6 2 4 7
M  V30 7 1 5 8
M  V30 8 2 5 9
M  V30 9 1 6 10
M  V30 10 2 6 11
M  V30 11 2 8 12
M  V30 12 1 8 13
M  V30 13 1 9 14
M  V30 14 1 13 15
M  V30 15 1 13 16
M  V30 16 1 14 17
M  V30 17 1 15 18
M  V30 18 2 17 19
M  V30 19 2 18 20
M  V30 20 1 20 21
M  V30 21 1 21 22
M  V30 22 2 22 23
M  V30 23 1 22 24
M  V30 24 1 23 25
M  V30 25 2 24 26
M  V30 26 2 25 27
M  V30 27 1 27 28
M  V30 28 1 28 29
M  V30 29 1 29 30
M  V30 30 1 30 31
M  V30 31 1 7 11
M  V30 32 2 14 15
M  V30 33 1 19 20
M  V30 34 1 26 27
M  V30 END BOND
M  V30 END CTAB
M  END
>  <Compound ID>
236

>  <Name>
PP58

>  <Uniprot>
Q9UBE8

>  <Target>
NLK

>  <Smiles>
CN1C(=O)C(C2=C(Cl)C=CC=C2Cl)=CC2=CN=C(NC3=CC=C(OCCN)C=C3)N=C21

>  <Kd (nM)>


>  <Assay (Kd)>


>  <Ki (nM)>


>  <Assay (Ki)>


>  <IC50 (nM)>


>  <Assay (IC50)>


>  <EC50 (nM)>


>  <Assay (EC50)>


>  <Article DOI>
10.1016/j.cell.2020.10.038

>  <Molecular Weight>
456.333

>  <Exact Mass>
455.091580208

>  <XLogP3>
3.93

>  <Heavy Atom Count>
31

>  <Ring Count>
4

>  <Hydrogen Bond Acceptor Count>
7

>  <Hydrogen Bond Donor Count>
2

>  <Rotatable Bond Count>
6

>  <Topological Polar Surface Area>
95.06

>  <Molecular Formula>
C22H19Cl2N5O2

>  <InChI>
InChI=1S/C22H19Cl2N5O2/c1-29-20-13(11-16(21(29)30)19-17(23)3-2-4-18(19)24)12-26-22(28-20)27-14-5-7-15(8-6-14)31-10-9-25/h2-8,11-12H,9-10,25H2,1H3,(H,26,27,28)

>  <InChI Key>
MAXZESONWXTISA-UHFFFAOYSA-N

>  <BindingDB>
3091

>  <PubChem>
5327904

>  <ChEMBL>
CHEMBL331366

$$$$
Compound 860
Actelion Java MolfileCreator 2.0

  0  0  0  0  0  0              0 V3000
M  V30 BEGIN CTAB
M  V30 COUNTS 31 34 0 0 0
M  V30 BEGIN ATOM
M  V30 1 Cl 0.0 0.0 0.0 0
M  V30 2 C 0.0592 -1.493 0.0 0
M  V30 3 C 1.3864 -2.1803 0.0 0
M  V30 4 C -1.2205 -2.287 0.0 0
M  V30 5 C 2.6425 -1.3627 0.0 0
M  V30 6 C 1.4456 -3.6734 0.0 0
M  V30 7 C -1.1612 -3.7801 0.0 0
M  V30 8 C 2.5595 0.154 0.0 0
M  V30 9 C 3.9697 -2.05 0.0 0
M  V30 10 Cl 2.7728 -4.3607 0.0 0
M  V30 11 C 0.1658 -4.4674 0.0 0
M  V30 12 O 1.2086 0.865 0.0 0
M  V30 13 N 3.8156 0.9716 0.0 0
M  V30 14 C 5.2258 -1.2323 0.0 0
M  V30 15 C 5.1428 0.2843 0.0 0
M  V30 16 C 3.7327 2.4884 0.0 0
M  V30 17 C 6.5529 -1.9196 0.0 0
M  V30 18 N 6.3989 1.102 0.0 0
M  V30 19 N 7.809 -1.102 0.0 0
M  V30 20 C 7.7261 0.4147 0.0 0
M  V30 21 N 8.9822 1.2323 0.0 0
M  V30 22 C 10.3094 0.545 0.0 0
M  V30 23 C 10.3686 -0.9479 0.0 0
M  V30 24 C 11.5655 1.3627 0.0 0
M  V30 25 C 11.6958 -1.6352 0.0 0
M  V30 26 C 12.8927 0.6754 0.0 0
M  V30 27 C 12.9519 -0.8176 0.0 0
M  V30 28 O 14.2791 -1.5049 0.0 0
M  V30 29 C 14.3383 -2.998 0.0 0
M  V30 30 C 15.6655 -3.6853 0.0 0
M  V30 31 N 15.7248 -5.1784 0.0 0
M  V30 END ATOM
M  V30 BEGIN BOND
M  V30 1 1 1 2
M  V30 2 2 2 3
M  V30 3 1 2 4
M  V30 4 1 3 5
M  V30 5 1 3 6
M  V30 6 2 4 7
M  V30 7 1 5 8
M  V30 8 2 5 9
M  V30 9 1 6 10
M  V30 10 2 6 11
M  V30 11 2 8 12
M  V30 12 1 8 13
M  V30 13 1 9 14
M  V30 14 1 13 15
M  V30 15 1 13 16
M  V30 16 1 14 17
M  V30 17 1 15 18
M  V30 18 2 17 19
M  V30 19 2 18 20
M  V30 20 1 20 21
M  V30 21 1 21 22
M  V30 22 2 22 23
M  V30 23 1 22 24
M  V30 24 1 23 25
M  V30 25 2 24 26
M  V30 26 2 25 27
M  V30 27 1 27 28
M  V30 28 1 28 29
M  V30 29 1 29 30
M  V30 30 1 30 31
M  V30 31 1 7 11
M  V30 32 2 14 15
M  V30 33 1 19 20
M  V30 34 1 26 27
M  V30 END BOND
M  V30 END CTAB
M  END
>  <Compound ID>
236

>  <Name>
PP58

>  <Uniprot>
Q16539

>  <Target>
p38alpha

>  <Smiles>
CN1C(=O)C(C2=C(Cl)C=CC=C2Cl)=CC2=CN=C(NC3=CC=C(OCCN)C=C3)N=C21

>  <Kd (nM)>


>  <Assay (Kd)>


>  <Ki (nM)>


>  <Assay (Ki)>


>  <IC50 (nM)>


>  <Assay (IC50)>


>  <EC50 (nM)>


>  <Assay (EC50)>


>  <Article DOI>
10.1016/j.cell.2020.10.038

>  <Molecular Weight>
456.333

>  <Exact Mass>
455.091580208

>  <XLogP3>
3.93

>  <Heavy Atom Count>
31

>  <Ring Count>
4

>  <Hydrogen Bond Acceptor Count>
7

>  <Hydrogen Bond Donor Count>
2

>  <Rotatable Bond Count>
6

>  <Topological Polar Surface Area>
95.06

>  <Molecular Formula>
C22H19Cl2N5O2

>  <InChI>
InChI=1S/C22H19Cl2N5O2/c1-29-20-13(11-16(21(29)30)19-17(23)3-2-4-18(19)24)12-26-22(28-20)27-14-5-7-15(8-6-14)31-10-9-25/h2-8,11-12H,9-10,25H2,1H3,(H,26,27,28)

>  <InChI Key>
MAXZESONWXTISA-UHFFFAOYSA-N

>  <BindingDB>
3091

>  <PubChem>
5327904

>  <ChEMBL>
CHEMBL331366

$$$$
Compound 861
Actelion Java MolfileCreator 2.0

  0  0  0  0  0  0              0 V3000
M  V30 BEGIN CTAB
M  V30 COUNTS 31 34 0 0 0
M  V30 BEGIN ATOM
M  V30 1 Cl 0.0 0.0 0.0 0
M  V30 2 C 0.0592 -1.493 0.0 0
M  V30 3 C 1.3864 -2.1803 0.0 0
M  V30 4 C -1.2205 -2.287 0.0 0
M  V30 5 C 2.6425 -1.3627 0.0 0
M  V30 6 C 1.4456 -3.6734 0.0 0
M  V30 7 C -1.1612 -3.7801 0.0 0
M  V30 8 C 2.5595 0.154 0.0 0
M  V30 9 C 3.9697 -2.05 0.0 0
M  V30 10 Cl 2.7728 -4.3607 0.0 0
M  V30 11 C 0.1658 -4.4674 0.0 0
M  V30 12 O 1.2086 0.865 0.0 0
M  V30 13 N 3.8156 0.9716 0.0 0
M  V30 14 C 5.2258 -1.2323 0.0 0
M  V30 15 C 5.1428 0.2843 0.0 0
M  V30 16 C 3.7327 2.4884 0.0 0
M  V30 17 C 6.5529 -1.9196 0.0 0
M  V30 18 N 6.3989 1.102 0.0 0
M  V30 19 N 7.809 -1.102 0.0 0
M  V30 20 C 7.7261 0.4147 0.0 0
M  V30 21 N 8.9822 1.2323 0.0 0
M  V30 22 C 10.3094 0.545 0.0 0
M  V30 23 C 10.3686 -0.9479 0.0 0
M  V30 24 C 11.5655 1.3627 0.0 0
M  V30 25 C 11.6958 -1.6352 0.0 0
M  V30 26 C 12.8927 0.6754 0.0 0
M  V30 27 C 12.9519 -0.8176 0.0 0
M  V30 28 O 14.2791 -1.5049 0.0 0
M  V30 29 C 14.3383 -2.998 0.0 0
M  V30 30 C 15.6655 -3.6853 0.0 0
M  V30 31 N 15.7248 -5.1784 0.0 0
M  V30 END ATOM
M  V30 BEGIN BOND
M  V30 1 1 1 2
M  V30 2 2 2 3
M  V30 3 1 2 4
M  V30 4 1 3 5
M  V30 5 1 3 6
M  V30 6 2 4 7
M  V30 7 1 5 8
M  V30 8 2 5 9
M  V30 9 1 6 10
M  V30 10 2 6 11
M  V30 11 2 8 12
M  V30 12 1 8 13
M  V30 13 1 9 14
M  V30 14 1 13 15
M  V30 15 1 13 16
M  V30 16 1 14 17
M  V30 17 1 15 18
M  V30 18 2 17 19
M  V30 19 2 18 20
M  V30 20 1 20 21
M  V30 21 1 21 22
M  V30 22 2 22 23
M  V30 23 1 22 24
M  V30 24 1 23 25
M  V30 25 2 24 26
M  V30 26 2 25 27
M  V30 27 1 27 28
M  V30 28 1 28 29
M  V30 29 1 29 30
M  V30 30 1 30 31
M  V30 31 1 7 11
M  V30 32 2 14 15
M  V30 33 1 19 20
M  V30 34 1 26 27
M  V30 END BOND
M  V30 END CTAB
M  END
>  <Compound ID>
236

>  <Name>
PP58

>  <Uniprot>
Q15118

>  <Target>
PDK1

>  <Smiles>
CN1C(=O)C(C2=C(Cl)C=CC=C2Cl)=CC2=CN=C(NC3=CC=C(OCCN)C=C3)N=C21

>  <Kd (nM)>


>  <Assay (Kd)>


>  <Ki (nM)>


>  <Assay (Ki)>


>  <IC50 (nM)>


>  <Assay (IC50)>


>  <EC50 (nM)>


>  <Assay (EC50)>


>  <Article DOI>
10.1016/j.cell.2020.10.038

>  <Molecular Weight>
456.333

>  <Exact Mass>
455.091580208

>  <XLogP3>
3.93

>  <Heavy Atom Count>
31

>  <Ring Count>
4

>  <Hydrogen Bond Acceptor Count>
7

>  <Hydrogen Bond Donor Count>
2

>  <Rotatable Bond Count>
6

>  <Topological Polar Surface Area>
95.06

>  <Molecular Formula>
C22H19Cl2N5O2

>  <InChI>
InChI=1S/C22H19Cl2N5O2/c1-29-20-13(11-16(21(29)30)19-17(23)3-2-4-18(19)24)12-26-22(28-20)27-14-5-7-15(8-6-14)31-10-9-25/h2-8,11-12H,9-10,25H2,1H3,(H,26,27,28)

>  <InChI Key>
MAXZESONWXTISA-UHFFFAOYSA-N

>  <BindingDB>
3091

>  <PubChem>
5327904

>  <ChEMBL>
CHEMBL331366

$$$$
Compound 862
Actelion Java MolfileCreator 2.0

  0  0  0  0  0  0              0 V3000
M  V30 BEGIN CTAB
M  V30 COUNTS 31 34 0 0 0
M  V30 BEGIN ATOM
M  V30 1 Cl 0.0 0.0 0.0 0
M  V30 2 C 0.0592 -1.493 0.0 0
M  V30 3 C 1.3864 -2.1803 0.0 0
M  V30 4 C -1.2205 -2.287 0.0 0
M  V30 5 C 2.6425 -1.3627 0.0 0
M  V30 6 C 1.4456 -3.6734 0.0 0
M  V30 7 C -1.1612 -3.7801 0.0 0
M  V30 8 C 2.5595 0.154 0.0 0
M  V30 9 C 3.9697 -2.05 0.0 0
M  V30 10 Cl 2.7728 -4.3607 0.0 0
M  V30 11 C 0.1658 -4.4674 0.0 0
M  V30 12 O 1.2086 0.865 0.0 0
M  V30 13 N 3.8156 0.9716 0.0 0
M  V30 14 C 5.2258 -1.2323 0.0 0
M  V30 15 C 5.1428 0.2843 0.0 0
M  V30 16 C 3.7327 2.4884 0.0 0
M  V30 17 C 6.5529 -1.9196 0.0 0
M  V30 18 N 6.3989 1.102 0.0 0
M  V30 19 N 7.809 -1.102 0.0 0
M  V30 20 C 7.7261 0.4147 0.0 0
M  V30 21 N 8.9822 1.2323 0.0 0
M  V30 22 C 10.3094 0.545 0.0 0
M  V30 23 C 10.3686 -0.9479 0.0 0
M  V30 24 C 11.5655 1.3627 0.0 0
M  V30 25 C 11.6958 -1.6352 0.0 0
M  V30 26 C 12.8927 0.6754 0.0 0
M  V30 27 C 12.9519 -0.8176 0.0 0
M  V30 28 O 14.2791 -1.5049 0.0 0
M  V30 29 C 14.3383 -2.998 0.0 0
M  V30 30 C 15.6655 -3.6853 0.0 0
M  V30 31 N 15.7248 -5.1784 0.0 0
M  V30 END ATOM
M  V30 BEGIN BOND
M  V30 1 1 1 2
M  V30 2 2 2 3
M  V30 3 1 2 4
M  V30 4 1 3 5
M  V30 5 1 3 6
M  V30 6 2 4 7
M  V30 7 1 5 8
M  V30 8 2 5 9
M  V30 9 1 6 10
M  V30 10 2 6 11
M  V30 11 2 8 12
M  V30 12 1 8 13
M  V30 13 1 9 14
M  V30 14 1 13 15
M  V30 15 1 13 16
M  V30 16 1 14 17
M  V30 17 1 15 18
M  V30 18 2 17 19
M  V30 19 2 18 20
M  V30 20 1 20 21
M  V30 21 1 21 22
M  V30 22 2 22 23
M  V30 23 1 22 24
M  V30 24 1 23 25
M  V30 25 2 24 26
M  V30 26 2 25 27
M  V30 27 1 27 28
M  V30 28 1 28 29
M  V30 29 1 29 30
M  V30 30 1 30 31
M  V30 31 1 7 11
M  V30 32 2 14 15
M  V30 33 1 19 20
M  V30 34 1 26 27
M  V30 END BOND
M  V30 END CTAB
M  END
>  <Compound ID>
236

>  <Name>
PP58

>  <Uniprot>
Q99640

>  <Target>
PKMYT1

>  <Smiles>
CN1C(=O)C(C2=C(Cl)C=CC=C2Cl)=CC2=CN=C(NC3=CC=C(OCCN)C=C3)N=C21

>  <Kd (nM)>


>  <Assay (Kd)>


>  <Ki (nM)>


>  <Assay (Ki)>


>  <IC50 (nM)>


>  <Assay (IC50)>


>  <EC50 (nM)>


>  <Assay (EC50)>


>  <Article DOI>
10.1016/j.cell.2020.10.038

>  <Molecular Weight>
456.333

>  <Exact Mass>
455.091580208

>  <XLogP3>
3.93

>  <Heavy Atom Count>
31

>  <Ring Count>
4

>  <Hydrogen Bond Acceptor Count>
7

>  <Hydrogen Bond Donor Count>
2

>  <Rotatable Bond Count>
6

>  <Topological Polar Surface Area>
95.06

>  <Molecular Formula>
C22H19Cl2N5O2

>  <InChI>
InChI=1S/C22H19Cl2N5O2/c1-29-20-13(11-16(21(29)30)19-17(23)3-2-4-18(19)24)12-26-22(28-20)27-14-5-7-15(8-6-14)31-10-9-25/h2-8,11-12H,9-10,25H2,1H3,(H,26,27,28)

>  <InChI Key>
MAXZESONWXTISA-UHFFFAOYSA-N

>  <BindingDB>
3091

>  <PubChem>
5327904

>  <ChEMBL>
CHEMBL331366

$$$$
Compound 863
Actelion Java MolfileCreator 2.0

  0  0  0  0  0  0              0 V3000
M  V30 BEGIN CTAB
M  V30 COUNTS 31 34 0 0 0
M  V30 BEGIN ATOM
M  V30 1 Cl 0.0 0.0 0.0 0
M  V30 2 C 0.0592 -1.493 0.0 0
M  V30 3 C 1.3864 -2.1803 0.0 0
M  V30 4 C -1.2205 -2.287 0.0 0
M  V30 5 C 2.6425 -1.3627 0.0 0
M  V30 6 C 1.4456 -3.6734 0.0 0
M  V30 7 C -1.1612 -3.7801 0.0 0
M  V30 8 C 2.5595 0.154 0.0 0
M  V30 9 C 3.9697 -2.05 0.0 0
M  V30 10 Cl 2.7728 -4.3607 0.0 0
M  V30 11 C 0.1658 -4.4674 0.0 0
M  V30 12 O 1.2086 0.865 0.0 0
M  V30 13 N 3.8156 0.9716 0.0 0
M  V30 14 C 5.2258 -1.2323 0.0 0
M  V30 15 C 5.1428 0.2843 0.0 0
M  V30 16 C 3.7327 2.4884 0.0 0
M  V30 17 C 6.5529 -1.9196 0.0 0
M  V30 18 N 6.3989 1.102 0.0 0
M  V30 19 N 7.809 -1.102 0.0 0
M  V30 20 C 7.7261 0.4147 0.0 0
M  V30 21 N 8.9822 1.2323 0.0 0
M  V30 22 C 10.3094 0.545 0.0 0
M  V30 23 C 10.3686 -0.9479 0.0 0
M  V30 24 C 11.5655 1.3627 0.0 0
M  V30 25 C 11.6958 -1.6352 0.0 0
M  V30 26 C 12.8927 0.6754 0.0 0
M  V30 27 C 12.9519 -0.8176 0.0 0
M  V30 28 O 14.2791 -1.5049 0.0 0
M  V30 29 C 14.3383 -2.998 0.0 0
M  V30 30 C 15.6655 -3.6853 0.0 0
M  V30 31 N 15.7248 -5.1784 0.0 0
M  V30 END ATOM
M  V30 BEGIN BOND
M  V30 1 1 1 2
M  V30 2 2 2 3
M  V30 3 1 2 4
M  V30 4 1 3 5
M  V30 5 1 3 6
M  V30 6 2 4 7
M  V30 7 1 5 8
M  V30 8 2 5 9
M  V30 9 1 6 10
M  V30 10 2 6 11
M  V30 11 2 8 12
M  V30 12 1 8 13
M  V30 13 1 9 14
M  V30 14 1 13 15
M  V30 15 1 13 16
M  V30 16 1 14 17
M  V30 17 1 15 18
M  V30 18 2 17 19
M  V30 19 2 18 20
M  V30 20 1 20 21
M  V30 21 1 21 22
M  V30 22 2 22 23
M  V30 23 1 22 24
M  V30 24 1 23 25
M  V30 25 2 24 26
M  V30 26 2 25 27
M  V30 27 1 27 28
M  V30 28 1 28 29
M  V30 29 1 29 30
M  V30 30 1 30 31
M  V30 31 1 7 11
M  V30 32 2 14 15
M  V30 33 1 19 20
M  V30 34 1 26 27
M  V30 END BOND
M  V30 END CTAB
M  END
>  <Compound ID>
236

>  <Name>
PP58

>  <Uniprot>
Q9H0K1

>  <Target>
SIK2

>  <Smiles>
CN1C(=O)C(C2=C(Cl)C=CC=C2Cl)=CC2=CN=C(NC3=CC=C(OCCN)C=C3)N=C21

>  <Kd (nM)>


>  <Assay (Kd)>


>  <Ki (nM)>


>  <Assay (Ki)>


>  <IC50 (nM)>


>  <Assay (IC50)>


>  <EC50 (nM)>


>  <Assay (EC50)>


>  <Article DOI>
10.1016/j.cell.2020.10.038

>  <Molecular Weight>
456.333

>  <Exact Mass>
455.091580208

>  <XLogP3>
3.93

>  <Heavy Atom Count>
31

>  <Ring Count>
4

>  <Hydrogen Bond Acceptor Count>
7

>  <Hydrogen Bond Donor Count>
2

>  <Rotatable Bond Count>
6

>  <Topological Polar Surface Area>
95.06

>  <Molecular Formula>
C22H19Cl2N5O2

>  <InChI>
InChI=1S/C22H19Cl2N5O2/c1-29-20-13(11-16(21(29)30)19-17(23)3-2-4-18(19)24)12-26-22(28-20)27-14-5-7-15(8-6-14)31-10-9-25/h2-8,11-12H,9-10,25H2,1H3,(H,26,27,28)

>  <InChI Key>
MAXZESONWXTISA-UHFFFAOYSA-N

>  <BindingDB>
3091

>  <PubChem>
5327904

>  <ChEMBL>
CHEMBL331366

$$$$
Compound 864
Actelion Java MolfileCreator 2.0

  0  0  0  0  0  0              0 V3000
M  V30 BEGIN CTAB
M  V30 COUNTS 31 34 0 0 0
M  V30 BEGIN ATOM
M  V30 1 Cl 0.0 0.0 0.0 0
M  V30 2 C 0.0592 -1.493 0.0 0
M  V30 3 C 1.3864 -2.1803 0.0 0
M  V30 4 C -1.2205 -2.287 0.0 0
M  V30 5 C 2.6425 -1.3627 0.0 0
M  V30 6 C 1.4456 -3.6734 0.0 0
M  V30 7 C -1.1612 -3.7801 0.0 0
M  V30 8 C 2.5595 0.154 0.0 0
M  V30 9 C 3.9697 -2.05 0.0 0
M  V30 10 Cl 2.7728 -4.3607 0.0 0
M  V30 11 C 0.1658 -4.4674 0.0 0
M  V30 12 O 1.2086 0.865 0.0 0
M  V30 13 N 3.8156 0.9716 0.0 0
M  V30 14 C 5.2258 -1.2323 0.0 0
M  V30 15 C 5.1428 0.2843 0.0 0
M  V30 16 C 3.7327 2.4884 0.0 0
M  V30 17 C 6.5529 -1.9196 0.0 0
M  V30 18 N 6.3989 1.102 0.0 0
M  V30 19 N 7.809 -1.102 0.0 0
M  V30 20 C 7.7261 0.4147 0.0 0
M  V30 21 N 8.9822 1.2323 0.0 0
M  V30 22 C 10.3094 0.545 0.0 0
M  V30 23 C 10.3686 -0.9479 0.0 0
M  V30 24 C 11.5655 1.3627 0.0 0
M  V30 25 C 11.6958 -1.6352 0.0 0
M  V30 26 C 12.8927 0.6754 0.0 0
M  V30 27 C 12.9519 -0.8176 0.0 0
M  V30 28 O 14.2791 -1.5049 0.0 0
M  V30 29 C 14.3383 -2.998 0.0 0
M  V30 30 C 15.6655 -3.6853 0.0 0
M  V30 31 N 15.7248 -5.1784 0.0 0
M  V30 END ATOM
M  V30 BEGIN BOND
M  V30 1 1 1 2
M  V30 2 2 2 3
M  V30 3 1 2 4
M  V30 4 1 3 5
M  V30 5 1 3 6
M  V30 6 2 4 7
M  V30 7 1 5 8
M  V30 8 2 5 9
M  V30 9 1 6 10
M  V30 10 2 6 11
M  V30 11 2 8 12
M  V30 12 1 8 13
M  V30 13 1 9 14
M  V30 14 1 13 15
M  V30 15 1 13 16
M  V30 16 1 14 17
M  V30 17 1 15 18
M  V30 18 2 17 19
M  V30 19 2 18 20
M  V30 20 1 20 21
M  V30 21 1 21 22
M  V30 22 2 22 23
M  V30 23 1 22 24
M  V30 24 1 23 25
M  V30 25 2 24 26
M  V30 26 2 25 27
M  V30 27 1 27 28
M  V30 28 1 28 29
M  V30 29 1 29 30
M  V30 30 1 30 31
M  V30 31 1 7 11
M  V30 32 2 14 15
M  V30 33 1 19 20
M  V30 34 1 26 27
M  V30 END BOND
M  V30 END CTAB
M  END
>  <Compound ID>
236

>  <Name>
PP58

>  <Uniprot>
P12931

>  <Target>
Src

>  <Smiles>
CN1C(=O)C(C2=C(Cl)C=CC=C2Cl)=CC2=CN=C(NC3=CC=C(OCCN)C=C3)N=C21

>  <Kd (nM)>


>  <Assay (Kd)>


>  <Ki (nM)>


>  <Assay (Ki)>


>  <IC50 (nM)>
13

>  <Assay (IC50)>
Inhibition of Src

>  <EC50 (nM)>


>  <Assay (EC50)>


>  <Article DOI>
10.1021/jm9802259

>  <Molecular Weight>
456.333

>  <Exact Mass>
455.091580208

>  <XLogP3>
3.93

>  <Heavy Atom Count>
31

>  <Ring Count>
4

>  <Hydrogen Bond Acceptor Count>
7

>  <Hydrogen Bond Donor Count>
2

>  <Rotatable Bond Count>
6

>  <Topological Polar Surface Area>
95.06

>  <Molecular Formula>
C22H19Cl2N5O2

>  <InChI>
InChI=1S/C22H19Cl2N5O2/c1-29-20-13(11-16(21(29)30)19-17(23)3-2-4-18(19)24)12-26-22(28-20)27-14-5-7-15(8-6-14)31-10-9-25/h2-8,11-12H,9-10,25H2,1H3,(H,26,27,28)

>  <InChI Key>
MAXZESONWXTISA-UHFFFAOYSA-N

>  <BindingDB>
3091

>  <PubChem>
5327904

>  <ChEMBL>
CHEMBL331366

$$$$
Compound 865
Actelion Java MolfileCreator 2.0

  0  0  0  0  0  0              0 V3000
M  V30 BEGIN CTAB
M  V30 COUNTS 31 34 0 0 0
M  V30 BEGIN ATOM
M  V30 1 Cl 0.0 0.0 0.0 0
M  V30 2 C 0.0592 -1.493 0.0 0
M  V30 3 C 1.3864 -2.1803 0.0 0
M  V30 4 C -1.2205 -2.287 0.0 0
M  V30 5 C 2.6425 -1.3627 0.0 0
M  V30 6 C 1.4456 -3.6734 0.0 0
M  V30 7 C -1.1612 -3.7801 0.0 0
M  V30 8 C 2.5595 0.154 0.0 0
M  V30 9 C 3.9697 -2.05 0.0 0
M  V30 10 Cl 2.7728 -4.3607 0.0 0
M  V30 11 C 0.1658 -4.4674 0.0 0
M  V30 12 O 1.2086 0.865 0.0 0
M  V30 13 N 3.8156 0.9716 0.0 0
M  V30 14 C 5.2258 -1.2323 0.0 0
M  V30 15 C 5.1428 0.2843 0.0 0
M  V30 16 C 3.7327 2.4884 0.0 0
M  V30 17 C 6.5529 -1.9196 0.0 0
M  V30 18 N 6.3989 1.102 0.0 0
M  V30 19 N 7.809 -1.102 0.0 0
M  V30 20 C 7.7261 0.4147 0.0 0
M  V30 21 N 8.9822 1.2323 0.0 0
M  V30 22 C 10.3094 0.545 0.0 0
M  V30 23 C 10.3686 -0.9479 0.0 0
M  V30 24 C 11.5655 1.3627 0.0 0
M  V30 25 C 11.6958 -1.6352 0.0 0
M  V30 26 C 12.8927 0.6754 0.0 0
M  V30 27 C 12.9519 -0.8176 0.0 0
M  V30 28 O 14.2791 -1.5049 0.0 0
M  V30 29 C 14.3383 -2.998 0.0 0
M  V30 30 C 15.6655 -3.6853 0.0 0
M  V30 31 N 15.7248 -5.1784 0.0 0
M  V30 END ATOM
M  V30 BEGIN BOND
M  V30 1 1 1 2
M  V30 2 2 2 3
M  V30 3 1 2 4
M  V30 4 1 3 5
M  V30 5 1 3 6
M  V30 6 2 4 7
M  V30 7 1 5 8
M  V30 8 2 5 9
M  V30 9 1 6 10
M  V30 10 2 6 11
M  V30 11 2 8 12
M  V30 12 1 8 13
M  V30 13 1 9 14
M  V30 14 1 13 15
M  V30 15 1 13 16
M  V30 16 1 14 17
M  V30 17 1 15 18
M  V30 18 2 17 19
M  V30 19 2 18 20
M  V30 20 1 20 21
M  V30 21 1 21 22
M  V30 22 2 22 23
M  V30 23 1 22 24
M  V30 24 1 23 25
M  V30 25 2 24 26
M  V30 26 2 25 27
M  V30 27 1 27 28
M  V30 28 1 28 29
M  V30 29 1 29 30
M  V30 30 1 30 31
M  V30 31 1 7 11
M  V30 32 2 14 15
M  V30 33 1 19 20
M  V30 34 1 26 27
M  V30 END BOND
M  V30 END CTAB
M  END
>  <Compound ID>
236

>  <Name>
PP58

>  <Uniprot>
Q07912

>  <Target>
TNK2

>  <Smiles>
CN1C(=O)C(C2=C(Cl)C=CC=C2Cl)=CC2=CN=C(NC3=CC=C(OCCN)C=C3)N=C21

>  <Kd (nM)>


>  <Assay (Kd)>


>  <Ki (nM)>


>  <Assay (Ki)>


>  <IC50 (nM)>


>  <Assay (IC50)>


>  <EC50 (nM)>


>  <Assay (EC50)>


>  <Article DOI>
10.1016/j.cell.2020.10.038

>  <Molecular Weight>
456.333

>  <Exact Mass>
455.091580208

>  <XLogP3>
3.93

>  <Heavy Atom Count>
31

>  <Ring Count>
4

>  <Hydrogen Bond Acceptor Count>
7

>  <Hydrogen Bond Donor Count>
2

>  <Rotatable Bond Count>
6

>  <Topological Polar Surface Area>
95.06

>  <Molecular Formula>
C22H19Cl2N5O2

>  <InChI>
InChI=1S/C22H19Cl2N5O2/c1-29-20-13(11-16(21(29)30)19-17(23)3-2-4-18(19)24)12-26-22(28-20)27-14-5-7-15(8-6-14)31-10-9-25/h2-8,11-12H,9-10,25H2,1H3,(H,26,27,28)

>  <InChI Key>
MAXZESONWXTISA-UHFFFAOYSA-N

>  <BindingDB>
3091

>  <PubChem>
5327904

>  <ChEMBL>
CHEMBL331366

$$$$
Compound 866
Actelion Java MolfileCreator 2.0

  0  0  0  0  0  0              0 V3000
M  V30 BEGIN CTAB
M  V30 COUNTS 31 34 0 0 0
M  V30 BEGIN ATOM
M  V30 1 Cl 0.0 0.0 0.0 0
M  V30 2 C 0.0592 -1.493 0.0 0
M  V30 3 C 1.3864 -2.1803 0.0 0
M  V30 4 C -1.2205 -2.287 0.0 0
M  V30 5 C 2.6425 -1.3627 0.0 0
M  V30 6 C 1.4456 -3.6734 0.0 0
M  V30 7 C -1.1612 -3.7801 0.0 0
M  V30 8 C 2.5595 0.154 0.0 0
M  V30 9 C 3.9697 -2.05 0.0 0
M  V30 10 Cl 2.7728 -4.3607 0.0 0
M  V30 11 C 0.1658 -4.4674 0.0 0
M  V30 12 O 1.2086 0.865 0.0 0
M  V30 13 N 3.8156 0.9716 0.0 0
M  V30 14 C 5.2258 -1.2323 0.0 0
M  V30 15 C 5.1428 0.2843 0.0 0
M  V30 16 C 3.7327 2.4884 0.0 0
M  V30 17 C 6.5529 -1.9196 0.0 0
M  V30 18 N 6.3989 1.102 0.0 0
M  V30 19 N 7.809 -1.102 0.0 0
M  V30 20 C 7.7261 0.4147 0.0 0
M  V30 21 N 8.9822 1.2323 0.0 0
M  V30 22 C 10.3094 0.545 0.0 0
M  V30 23 C 10.3686 -0.9479 0.0 0
M  V30 24 C 11.5655 1.3627 0.0 0
M  V30 25 C 11.6958 -1.6352 0.0 0
M  V30 26 C 12.8927 0.6754 0.0 0
M  V30 27 C 12.9519 -0.8176 0.0 0
M  V30 28 O 14.2791 -1.5049 0.0 0
M  V30 29 C 14.3383 -2.998 0.0 0
M  V30 30 C 15.6655 -3.6853 0.0 0
M  V30 31 N 15.7248 -5.1784 0.0 0
M  V30 END ATOM
M  V30 BEGIN BOND
M  V30 1 1 1 2
M  V30 2 2 2 3
M  V30 3 1 2 4
M  V30 4 1 3 5
M  V30 5 1 3 6
M  V30 6 2 4 7
M  V30 7 1 5 8
M  V30 8 2 5 9
M  V30 9 1 6 10
M  V30 10 2 6 11
M  V30 11 2 8 12
M  V30 12 1 8 13
M  V30 13 1 9 14
M  V30 14 1 13 15
M  V30 15 1 13 16
M  V30 16 1 14 17
M  V30 17 1 15 18
M  V30 18 2 17 19
M  V30 19 2 18 20
M  V30 20 1 20 21
M  V30 21 1 21 22
M  V30 22 2 22 23
M  V30 23 1 22 24
M  V30 24 1 23 25
M  V30 25 2 24 26
M  V30 26 2 25 27
M  V30 27 1 27 28
M  V30 28 1 28 29
M  V30 29 1 29 30
M  V30 30 1 30 31
M  V30 31 1 7 11
M  V30 32 2 14 15
M  V30 33 1 19 20
M  V30 34 1 26 27
M  V30 END BOND
M  V30 END CTAB
M  END
>  <Compound ID>
236

>  <Name>
PP58

>  <Uniprot>
P30291

>  <Target>
Wee1

>  <Smiles>
CN1C(=O)C(C2=C(Cl)C=CC=C2Cl)=CC2=CN=C(NC3=CC=C(OCCN)C=C3)N=C21

>  <Kd (nM)>


>  <Assay (Kd)>


>  <Ki (nM)>


>  <Assay (Ki)>


>  <IC50 (nM)>


>  <Assay (IC50)>


>  <EC50 (nM)>


>  <Assay (EC50)>


>  <Article DOI>
10.1016/j.cell.2020.10.038

>  <Molecular Weight>
456.333

>  <Exact Mass>
455.091580208

>  <XLogP3>
3.93

>  <Heavy Atom Count>
31

>  <Ring Count>
4

>  <Hydrogen Bond Acceptor Count>
7

>  <Hydrogen Bond Donor Count>
2

>  <Rotatable Bond Count>
6

>  <Topological Polar Surface Area>
95.06

>  <Molecular Formula>
C22H19Cl2N5O2

>  <InChI>
InChI=1S/C22H19Cl2N5O2/c1-29-20-13(11-16(21(29)30)19-17(23)3-2-4-18(19)24)12-26-22(28-20)27-14-5-7-15(8-6-14)31-10-9-25/h2-8,11-12H,9-10,25H2,1H3,(H,26,27,28)

>  <InChI Key>
MAXZESONWXTISA-UHFFFAOYSA-N

>  <BindingDB>
3091

>  <PubChem>
5327904

>  <ChEMBL>
CHEMBL331366

$$$$
Compound 867
Actelion Java MolfileCreator 2.0

  0  0  0  0  0  0              0 V3000
M  V30 BEGIN CTAB
M  V30 COUNTS 31 34 0 0 0
M  V30 BEGIN ATOM
M  V30 1 Cl 0.0 0.0 0.0 0
M  V30 2 C 0.0592 -1.493 0.0 0
M  V30 3 C 1.3864 -2.1803 0.0 0
M  V30 4 C -1.2205 -2.287 0.0 0
M  V30 5 C 2.6425 -1.3627 0.0 0
M  V30 6 C 1.4456 -3.6734 0.0 0
M  V30 7 C -1.1612 -3.7801 0.0 0
M  V30 8 C 2.5595 0.154 0.0 0
M  V30 9 C 3.9697 -2.05 0.0 0
M  V30 10 Cl 2.7728 -4.3607 0.0 0
M  V30 11 C 0.1658 -4.4674 0.0 0
M  V30 12 O 1.2086 0.865 0.0 0
M  V30 13 N 3.8156 0.9716 0.0 0
M  V30 14 C 5.2258 -1.2323 0.0 0
M  V30 15 C 5.1428 0.2843 0.0 0
M  V30 16 C 3.7327 2.4884 0.0 0
M  V30 17 C 6.5529 -1.9196 0.0 0
M  V30 18 N 6.3989 1.102 0.0 0
M  V30 19 N 7.809 -1.102 0.0 0
M  V30 20 C 7.7261 0.4147 0.0 0
M  V30 21 N 8.9822 1.2323 0.0 0
M  V30 22 C 10.3094 0.545 0.0 0
M  V30 23 C 10.3686 -0.9479 0.0 0
M  V30 24 C 11.5655 1.3627 0.0 0
M  V30 25 C 11.6958 -1.6352 0.0 0
M  V30 26 C 12.8927 0.6754 0.0 0
M  V30 27 C 12.9519 -0.8176 0.0 0
M  V30 28 O 14.2791 -1.5049 0.0 0
M  V30 29 C 14.3383 -2.998 0.0 0
M  V30 30 C 15.6655 -3.6853 0.0 0
M  V30 31 N 15.7248 -5.1784 0.0 0
M  V30 END ATOM
M  V30 BEGIN BOND
M  V30 1 1 1 2
M  V30 2 2 2 3
M  V30 3 1 2 4
M  V30 4 1 3 5
M  V30 5 1 3 6
M  V30 6 2 4 7
M  V30 7 1 5 8
M  V30 8 2 5 9
M  V30 9 1 6 10
M  V30 10 2 6 11
M  V30 11 2 8 12
M  V30 12 1 8 13
M  V30 13 1 9 14
M  V30 14 1 13 15
M  V30 15 1 13 16
M  V30 16 1 14 17
M  V30 17 1 15 18
M  V30 18 2 17 19
M  V30 19 2 18 20
M  V30 20 1 20 21
M  V30 21 1 21 22
M  V30 22 2 22 23
M  V30 23 1 22 24
M  V30 24 1 23 25
M  V30 25 2 24 26
M  V30 26 2 25 27
M  V30 27 1 27 28
M  V30 28 1 28 29
M  V30 29 1 29 30
M  V30 30 1 30 31
M  V30 31 1 7 11
M  V30 32 2 14 15
M  V30 33 1 19 20
M  V30 34 1 26 27
M  V30 END BOND
M  V30 END CTAB
M  END
>  <Compound ID>
236

>  <Name>
PP58

>  <Uniprot>
P07947

>  <Target>
YES1

>  <Smiles>
CN1C(=O)C(C2=C(Cl)C=CC=C2Cl)=CC2=CN=C(NC3=CC=C(OCCN)C=C3)N=C21

>  <Kd (nM)>


>  <Assay (Kd)>


>  <Ki (nM)>


>  <Assay (Ki)>


>  <IC50 (nM)>


>  <Assay (IC50)>


>  <EC50 (nM)>


>  <Assay (EC50)>


>  <Article DOI>
10.1016/j.cell.2020.10.038

>  <Molecular Weight>
456.333

>  <Exact Mass>
455.091580208

>  <XLogP3>
3.93

>  <Heavy Atom Count>
31

>  <Ring Count>
4

>  <Hydrogen Bond Acceptor Count>
7

>  <Hydrogen Bond Donor Count>
2

>  <Rotatable Bond Count>
6

>  <Topological Polar Surface Area>
95.06

>  <Molecular Formula>
C22H19Cl2N5O2

>  <InChI>
InChI=1S/C22H19Cl2N5O2/c1-29-20-13(11-16(21(29)30)19-17(23)3-2-4-18(19)24)12-26-22(28-20)27-14-5-7-15(8-6-14)31-10-9-25/h2-8,11-12H,9-10,25H2,1H3,(H,26,27,28)

>  <InChI Key>
MAXZESONWXTISA-UHFFFAOYSA-N

>  <BindingDB>
3091

>  <PubChem>
5327904

>  <ChEMBL>
CHEMBL331366

$$$$
Compound 868
Actelion Java MolfileCreator 2.0

  0  0  0  0  0  0              0 V3000
M  V30 BEGIN CTAB
M  V30 COUNTS 36 39 0 0 0
M  V30 BEGIN ATOM
M  V30 1 F 0.0 0.0 0.0 0
M  V30 2 C 1.447 0.3904 0.0 0
M  V30 3 F 1.0565 1.8605 0.0 0
M  V30 4 F 1.8145 -1.0565 0.0 0
M  V30 5 C 2.8941 0.7809 0.0 0
M  V30 6 C 3.9392 -0.2756 0.0 0
M  V30 7 C 3.2846 2.251 0.0 0
M  V30 8 N 3.5258 -1.7227 0.0 0
M  V30 9 C 5.3863 0.1148 0.0 0
M  V30 10 N 4.7317 2.6414 0.0 0
M  V30 11 C 4.5709 -2.7793 0.0 0
M  V30 12 C 5.7768 1.5848 0.0 0
M  V30 13 C 4.1574 -4.2263 0.0 0
M  V30 14 C 6.018 -2.3888 0.0 0
M  V30 15 N 7.2239 1.9753 0.0 0
M  V30 16 C 2.6874 -4.5939 0.0 0
M  V30 17 C 5.2025 -5.2829 0.0 0
M  V30 18 C 7.0631 -3.4454 0.0 0
M  V30 19 C 8.269 0.9187 0.0 0
M  V30 20 O 1.6193 -3.5143 0.0 0
M  V30 21 N 2.2739 -6.0409 0.0 0
M  V30 22 C 6.6496 -4.8925 0.0 0
M  V30 23 C 9.7161 1.3092 0.0 0
M  V30 24 C 7.8555 -0.5282 0.0 0
M  V30 25 C 0.8039 -6.4084 0.0 0
M  V30 26 O 10.1065 2.7793 0.0 0
M  V30 27 C 10.7612 0.2526 0.0 0
M  V30 28 C 8.9006 -1.5848 0.0 0
M  V30 29 C 11.5536 3.1697 0.0 0
M  V30 30 C 10.3477 -1.1944 0.0 0
M  V30 31 N 11.3928 -2.251 0.0 0
M  V30 32 C 10.9794 -3.698 0.0 0
M  V30 33 C 12.8399 -1.8605 0.0 0
M  V30 34 C 12.0245 -4.7546 0.0 0
M  V30 35 C 13.885 -2.9171 0.0 0
M  V30 36 O 13.4716 -4.3642 0.0 0
M  V30 END ATOM
M  V30 BEGIN BOND
M  V30 1 1 1 2
M  V30 2 1 2 3
M  V30 3 1 2 4
M  V30 4 1 2 5
M  V30 5 2 5 6
M  V30 6 1 5 7
M  V30 7 1 6 8
M  V30 8 1 6 9
M  V30 9 2 7 10
M  V30 10 1 8 11
M  V30 11 2 9 12
M  V30 12 2 11 13
M  V30 13 1 11 14
M  V30 14 1 12 15
M  V30 15 1 13 16
M  V30 16 1 13 17
M  V30 17 2 14 18
M  V30 18 1 15 19
M  V30 19 2 16 20
M  V30 20 1 16 21
M  V30 21 2 17 22
M  V30 22 2 19 23
M  V30 23 1 19 24
M  V30 24 1 21 25
M  V30 25 1 23 26
M  V30 26 1 23 27
M  V30 27 2 24 28
M  V30 28 1 26 29
M  V30 29 2 27 30
M  V30 30 1 30 31
M  V30 31 1 31 32
M  V30 32 1 31 33
M  V30 33 1 32 34
M  V30 34 1 33 35
M  V30 35 1 34 36
M  V30 36 1 10 12
M  V30 37 1 18 22
M  V30 38 1 28 30
M  V30 39 1 35 36
M  V30 END BOND
M  V30 END CTAB
M  END
>  <Compound ID>
237

>  <Name>
PND-1186

>  <Uniprot>
O14965

>  <Target>
AURKA

>  <Smiles>
CNC(=O)C1=CC=CC=C1NC1=CC(NC2=CC=C(N3CCOCC3)C=C2OC)=NC=C1C(F)(F)F

>  <Kd (nM)>


>  <Assay (Kd)>


>  <Ki (nM)>


>  <Assay (Ki)>


>  <IC50 (nM)>


>  <Assay (IC50)>


>  <EC50 (nM)>


>  <Assay (EC50)>


>  <Article DOI>
10.1016/j.cell.2020.10.038

>  <Molecular Weight>
501.509

>  <Exact Mass>
501.198774352

>  <XLogP3>
4.7

>  <Heavy Atom Count>
36

>  <Ring Count>
4

>  <Hydrogen Bond Acceptor Count>
7

>  <Hydrogen Bond Donor Count>
3

>  <Rotatable Bond Count>
7

>  <Topological Polar Surface Area>
87.75

>  <Molecular Formula>
C25H26F3N5O3

>  <InChI>
InChI=1S/C25H26F3N5O3/c1-29-24(34)17-5-3-4-6-19(17)31-21-14-23(30-15-18(21)25(26,27)28)32-20-8-7-16(13-22(20)35-2)33-9-11-36-12-10-33/h3-8,13-15H,9-12H2,1-2H3,(H,29,34)(H2,30,31,32)

>  <InChI Key>
IGUBBWJDMLCRIK-UHFFFAOYSA-N

>  <BindingDB>
50440659

>  <PubChem>
25073775

>  <ChEMBL>
CHEMBL3040440

$$$$
Compound 869
Actelion Java MolfileCreator 2.0

  0  0  0  0  0  0              0 V3000
M  V30 BEGIN CTAB
M  V30 COUNTS 36 39 0 0 0
M  V30 BEGIN ATOM
M  V30 1 F 0.0 0.0 0.0 0
M  V30 2 C 1.447 0.3904 0.0 0
M  V30 3 F 1.0565 1.8605 0.0 0
M  V30 4 F 1.8145 -1.0565 0.0 0
M  V30 5 C 2.8941 0.7809 0.0 0
M  V30 6 C 3.9392 -0.2756 0.0 0
M  V30 7 C 3.2846 2.251 0.0 0
M  V30 8 N 3.5258 -1.7227 0.0 0
M  V30 9 C 5.3863 0.1148 0.0 0
M  V30 10 N 4.7317 2.6414 0.0 0
M  V30 11 C 4.5709 -2.7793 0.0 0
M  V30 12 C 5.7768 1.5848 0.0 0
M  V30 13 C 4.1574 -4.2263 0.0 0
M  V30 14 C 6.018 -2.3888 0.0 0
M  V30 15 N 7.2239 1.9753 0.0 0
M  V30 16 C 2.6874 -4.5939 0.0 0
M  V30 17 C 5.2025 -5.2829 0.0 0
M  V30 18 C 7.0631 -3.4454 0.0 0
M  V30 19 C 8.269 0.9187 0.0 0
M  V30 20 O 1.6193 -3.5143 0.0 0
M  V30 21 N 2.2739 -6.0409 0.0 0
M  V30 22 C 6.6496 -4.8925 0.0 0
M  V30 23 C 9.7161 1.3092 0.0 0
M  V30 24 C 7.8555 -0.5282 0.0 0
M  V30 25 C 0.8039 -6.4084 0.0 0
M  V30 26 O 10.1065 2.7793 0.0 0
M  V30 27 C 10.7612 0.2526 0.0 0
M  V30 28 C 8.9006 -1.5848 0.0 0
M  V30 29 C 11.5536 3.1697 0.0 0
M  V30 30 C 10.3477 -1.1944 0.0 0
M  V30 31 N 11.3928 -2.251 0.0 0
M  V30 32 C 10.9794 -3.698 0.0 0
M  V30 33 C 12.8399 -1.8605 0.0 0
M  V30 34 C 12.0245 -4.7546 0.0 0
M  V30 35 C 13.885 -2.9171 0.0 0
M  V30 36 O 13.4716 -4.3642 0.0 0
M  V30 END ATOM
M  V30 BEGIN BOND
M  V30 1 1 1 2
M  V30 2 1 2 3
M  V30 3 1 2 4
M  V30 4 1 2 5
M  V30 5 2 5 6
M  V30 6 1 5 7
M  V30 7 1 6 8
M  V30 8 1 6 9
M  V30 9 2 7 10
M  V30 10 1 8 11
M  V30 11 2 9 12
M  V30 12 2 11 13
M  V30 13 1 11 14
M  V30 14 1 12 15
M  V30 15 1 13 16
M  V30 16 1 13 17
M  V30 17 2 14 18
M  V30 18 1 15 19
M  V30 19 2 16 20
M  V30 20 1 16 21
M  V30 21 2 17 22
M  V30 22 2 19 23
M  V30 23 1 19 24
M  V30 24 1 21 25
M  V30 25 1 23 26
M  V30 26 1 23 27
M  V30 27 2 24 28
M  V30 28 1 26 29
M  V30 29 2 27 30
M  V30 30 1 30 31
M  V30 31 1 31 32
M  V30 32 1 31 33
M  V30 33 1 32 34
M  V30 34 1 33 35
M  V30 35 1 34 36
M  V30 36 1 10 12
M  V30 37 1 18 22
M  V30 38 1 28 30
M  V30 39 1 35 36
M  V30 END BOND
M  V30 END CTAB
M  END
>  <Compound ID>
237

>  <Name>
PND-1186

>  <Uniprot>
Q15131

>  <Target>
CDK10

>  <Smiles>
CNC(=O)C1=CC=CC=C1NC1=CC(NC2=CC=C(N3CCOCC3)C=C2OC)=NC=C1C(F)(F)F

>  <Kd (nM)>


>  <Assay (Kd)>


>  <Ki (nM)>


>  <Assay (Ki)>


>  <IC50 (nM)>


>  <Assay (IC50)>


>  <EC50 (nM)>


>  <Assay (EC50)>


>  <Article DOI>
10.1016/j.cell.2020.10.038

>  <Molecular Weight>
501.509

>  <Exact Mass>
501.198774352

>  <XLogP3>
4.7

>  <Heavy Atom Count>
36

>  <Ring Count>
4

>  <Hydrogen Bond Acceptor Count>
7

>  <Hydrogen Bond Donor Count>
3

>  <Rotatable Bond Count>
7

>  <Topological Polar Surface Area>
87.75

>  <Molecular Formula>
C25H26F3N5O3

>  <InChI>
InChI=1S/C25H26F3N5O3/c1-29-24(34)17-5-3-4-6-19(17)31-21-14-23(30-15-18(21)25(26,27)28)32-20-8-7-16(13-22(20)35-2)33-9-11-36-12-10-33/h3-8,13-15H,9-12H2,1-2H3,(H,29,34)(H2,30,31,32)

>  <InChI Key>
IGUBBWJDMLCRIK-UHFFFAOYSA-N

>  <BindingDB>
50440659

>  <PubChem>
25073775

>  <ChEMBL>
CHEMBL3040440

$$$$
Compound 870
Actelion Java MolfileCreator 2.0

  0  0  0  0  0  0              0 V3000
M  V30 BEGIN CTAB
M  V30 COUNTS 36 39 0 0 0
M  V30 BEGIN ATOM
M  V30 1 F 0.0 0.0 0.0 0
M  V30 2 C 1.447 0.3904 0.0 0
M  V30 3 F 1.0565 1.8605 0.0 0
M  V30 4 F 1.8145 -1.0565 0.0 0
M  V30 5 C 2.8941 0.7809 0.0 0
M  V30 6 C 3.9392 -0.2756 0.0 0
M  V30 7 C 3.2846 2.251 0.0 0
M  V30 8 N 3.5258 -1.7227 0.0 0
M  V30 9 C 5.3863 0.1148 0.0 0
M  V30 10 N 4.7317 2.6414 0.0 0
M  V30 11 C 4.5709 -2.7793 0.0 0
M  V30 12 C 5.7768 1.5848 0.0 0
M  V30 13 C 4.1574 -4.2263 0.0 0
M  V30 14 C 6.018 -2.3888 0.0 0
M  V30 15 N 7.2239 1.9753 0.0 0
M  V30 16 C 2.6874 -4.5939 0.0 0
M  V30 17 C 5.2025 -5.2829 0.0 0
M  V30 18 C 7.0631 -3.4454 0.0 0
M  V30 19 C 8.269 0.9187 0.0 0
M  V30 20 O 1.6193 -3.5143 0.0 0
M  V30 21 N 2.2739 -6.0409 0.0 0
M  V30 22 C 6.6496 -4.8925 0.0 0
M  V30 23 C 9.7161 1.3092 0.0 0
M  V30 24 C 7.8555 -0.5282 0.0 0
M  V30 25 C 0.8039 -6.4084 0.0 0
M  V30 26 O 10.1065 2.7793 0.0 0
M  V30 27 C 10.7612 0.2526 0.0 0
M  V30 28 C 8.9006 -1.5848 0.0 0
M  V30 29 C 11.5536 3.1697 0.0 0
M  V30 30 C 10.3477 -1.1944 0.0 0
M  V30 31 N 11.3928 -2.251 0.0 0
M  V30 32 C 10.9794 -3.698 0.0 0
M  V30 33 C 12.8399 -1.8605 0.0 0
M  V30 34 C 12.0245 -4.7546 0.0 0
M  V30 35 C 13.885 -2.9171 0.0 0
M  V30 36 O 13.4716 -4.3642 0.0 0
M  V30 END ATOM
M  V30 BEGIN BOND
M  V30 1 1 1 2
M  V30 2 1 2 3
M  V30 3 1 2 4
M  V30 4 1 2 5
M  V30 5 2 5 6
M  V30 6 1 5 7
M  V30 7 1 6 8
M  V30 8 1 6 9
M  V30 9 2 7 10
M  V30 10 1 8 11
M  V30 11 2 9 12
M  V30 12 2 11 13
M  V30 13 1 11 14
M  V30 14 1 12 15
M  V30 15 1 13 16
M  V30 16 1 13 17
M  V30 17 2 14 18
M  V30 18 1 15 19
M  V30 19 2 16 20
M  V30 20 1 16 21
M  V30 21 2 17 22
M  V30 22 2 19 23
M  V30 23 1 19 24
M  V30 24 1 21 25
M  V30 25 1 23 26
M  V30 26 1 23 27
M  V30 27 2 24 28
M  V30 28 1 26 29
M  V30 29 2 27 30
M  V30 30 1 30 31
M  V30 31 1 31 32
M  V30 32 1 31 33
M  V30 33 1 32 34
M  V30 34 1 33 35
M  V30 35 1 34 36
M  V30 36 1 10 12
M  V30 37 1 18 22
M  V30 38 1 28 30
M  V30 39 1 35 36
M  V30 END BOND
M  V30 END CTAB
M  END
>  <Compound ID>
237

>  <Name>
PND-1186

>  <Uniprot>
P50613

>  <Target>
CDK7

>  <Smiles>
CNC(=O)C1=CC=CC=C1NC1=CC(NC2=CC=C(N3CCOCC3)C=C2OC)=NC=C1C(F)(F)F

>  <Kd (nM)>


>  <Assay (Kd)>


>  <Ki (nM)>


>  <Assay (Ki)>


>  <IC50 (nM)>


>  <Assay (IC50)>


>  <EC50 (nM)>


>  <Assay (EC50)>


>  <Article DOI>
10.1016/j.cell.2020.10.038

>  <Molecular Weight>
501.509

>  <Exact Mass>
501.198774352

>  <XLogP3>
4.7

>  <Heavy Atom Count>
36

>  <Ring Count>
4

>  <Hydrogen Bond Acceptor Count>
7

>  <Hydrogen Bond Donor Count>
3

>  <Rotatable Bond Count>
7

>  <Topological Polar Surface Area>
87.75

>  <Molecular Formula>
C25H26F3N5O3

>  <InChI>
InChI=1S/C25H26F3N5O3/c1-29-24(34)17-5-3-4-6-19(17)31-21-14-23(30-15-18(21)25(26,27)28)32-20-8-7-16(13-22(20)35-2)33-9-11-36-12-10-33/h3-8,13-15H,9-12H2,1-2H3,(H,29,34)(H2,30,31,32)

>  <InChI Key>
IGUBBWJDMLCRIK-UHFFFAOYSA-N

>  <BindingDB>
50440659

>  <PubChem>
25073775

>  <ChEMBL>
CHEMBL3040440

$$$$
Compound 871
Actelion Java MolfileCreator 2.0

  0  0  0  0  0  0              0 V3000
M  V30 BEGIN CTAB
M  V30 COUNTS 36 39 0 0 0
M  V30 BEGIN ATOM
M  V30 1 F 0.0 0.0 0.0 0
M  V30 2 C 1.447 0.3904 0.0 0
M  V30 3 F 1.0565 1.8605 0.0 0
M  V30 4 F 1.8145 -1.0565 0.0 0
M  V30 5 C 2.8941 0.7809 0.0 0
M  V30 6 C 3.9392 -0.2756 0.0 0
M  V30 7 C 3.2846 2.251 0.0 0
M  V30 8 N 3.5258 -1.7227 0.0 0
M  V30 9 C 5.3863 0.1148 0.0 0
M  V30 10 N 4.7317 2.6414 0.0 0
M  V30 11 C 4.5709 -2.7793 0.0 0
M  V30 12 C 5.7768 1.5848 0.0 0
M  V30 13 C 4.1574 -4.2263 0.0 0
M  V30 14 C 6.018 -2.3888 0.0 0
M  V30 15 N 7.2239 1.9753 0.0 0
M  V30 16 C 2.6874 -4.5939 0.0 0
M  V30 17 C 5.2025 -5.2829 0.0 0
M  V30 18 C 7.0631 -3.4454 0.0 0
M  V30 19 C 8.269 0.9187 0.0 0
M  V30 20 O 1.6193 -3.5143 0.0 0
M  V30 21 N 2.2739 -6.0409 0.0 0
M  V30 22 C 6.6496 -4.8925 0.0 0
M  V30 23 C 9.7161 1.3092 0.0 0
M  V30 24 C 7.8555 -0.5282 0.0 0
M  V30 25 C 0.8039 -6.4084 0.0 0
M  V30 26 O 10.1065 2.7793 0.0 0
M  V30 27 C 10.7612 0.2526 0.0 0
M  V30 28 C 8.9006 -1.5848 0.0 0
M  V30 29 C 11.5536 3.1697 0.0 0
M  V30 30 C 10.3477 -1.1944 0.0 0
M  V30 31 N 11.3928 -2.251 0.0 0
M  V30 32 C 10.9794 -3.698 0.0 0
M  V30 33 C 12.8399 -1.8605 0.0 0
M  V30 34 C 12.0245 -4.7546 0.0 0
M  V30 35 C 13.885 -2.9171 0.0 0
M  V30 36 O 13.4716 -4.3642 0.0 0
M  V30 END ATOM
M  V30 BEGIN BOND
M  V30 1 1 1 2
M  V30 2 1 2 3
M  V30 3 1 2 4
M  V30 4 1 2 5
M  V30 5 2 5 6
M  V30 6 1 5 7
M  V30 7 1 6 8
M  V30 8 1 6 9
M  V30 9 2 7 10
M  V30 10 1 8 11
M  V30 11 2 9 12
M  V30 12 2 11 13
M  V30 13 1 11 14
M  V30 14 1 12 15
M  V30 15 1 13 16
M  V30 16 1 13 17
M  V30 17 2 14 18
M  V30 18 1 15 19
M  V30 19 2 16 20
M  V30 20 1 16 21
M  V30 21 2 17 22
M  V30 22 2 19 23
M  V30 23 1 19 24
M  V30 24 1 21 25
M  V30 25 1 23 26
M  V30 26 1 23 27
M  V30 27 2 24 28
M  V30 28 1 26 29
M  V30 29 2 27 30
M  V30 30 1 30 31
M  V30 31 1 31 32
M  V30 32 1 31 33
M  V30 33 1 32 34
M  V30 34 1 33 35
M  V30 35 1 34 36
M  V30 36 1 10 12
M  V30 37 1 18 22
M  V30 38 1 28 30
M  V30 39 1 35 36
M  V30 END BOND
M  V30 END CTAB
M  END
>  <Compound ID>
237

>  <Name>
PND-1186

>  <Uniprot>
Q05397

>  <Target>
FAK

>  <Smiles>
CNC(=O)C1=CC=CC=C1NC1=CC(NC2=CC=C(N3CCOCC3)C=C2OC)=NC=C1C(F)(F)F

>  <Kd (nM)>


>  <Assay (Kd)>


>  <Ki (nM)>


>  <Assay (Ki)>


>  <IC50 (nM)>
1.5

>  <Assay (IC50)>
Inhibition of FAK

>  <EC50 (nM)>


>  <Assay (EC50)>


>  <Article DOI>
10.1007/s00044-013-0768-0

>  <Molecular Weight>
501.509

>  <Exact Mass>
501.198774352

>  <XLogP3>
4.7

>  <Heavy Atom Count>
36

>  <Ring Count>
4

>  <Hydrogen Bond Acceptor Count>
7

>  <Hydrogen Bond Donor Count>
3

>  <Rotatable Bond Count>
7

>  <Topological Polar Surface Area>
87.75

>  <Molecular Formula>
C25H26F3N5O3

>  <InChI>
InChI=1S/C25H26F3N5O3/c1-29-24(34)17-5-3-4-6-19(17)31-21-14-23(30-15-18(21)25(26,27)28)32-20-8-7-16(13-22(20)35-2)33-9-11-36-12-10-33/h3-8,13-15H,9-12H2,1-2H3,(H,29,34)(H2,30,31,32)

>  <InChI Key>
IGUBBWJDMLCRIK-UHFFFAOYSA-N

>  <BindingDB>
50440659

>  <PubChem>
25073775

>  <ChEMBL>
CHEMBL3040440

$$$$
Compound 872
Actelion Java MolfileCreator 2.0

  0  0  0  0  0  0              0 V3000
M  V30 BEGIN CTAB
M  V30 COUNTS 36 39 0 0 0
M  V30 BEGIN ATOM
M  V30 1 F 0.0 0.0 0.0 0
M  V30 2 C 1.447 0.3904 0.0 0
M  V30 3 F 1.0565 1.8605 0.0 0
M  V30 4 F 1.8145 -1.0565 0.0 0
M  V30 5 C 2.8941 0.7809 0.0 0
M  V30 6 C 3.9392 -0.2756 0.0 0
M  V30 7 C 3.2846 2.251 0.0 0
M  V30 8 N 3.5258 -1.7227 0.0 0
M  V30 9 C 5.3863 0.1148 0.0 0
M  V30 10 N 4.7317 2.6414 0.0 0
M  V30 11 C 4.5709 -2.7793 0.0 0
M  V30 12 C 5.7768 1.5848 0.0 0
M  V30 13 C 4.1574 -4.2263 0.0 0
M  V30 14 C 6.018 -2.3888 0.0 0
M  V30 15 N 7.2239 1.9753 0.0 0
M  V30 16 C 2.6874 -4.5939 0.0 0
M  V30 17 C 5.2025 -5.2829 0.0 0
M  V30 18 C 7.0631 -3.4454 0.0 0
M  V30 19 C 8.269 0.9187 0.0 0
M  V30 20 O 1.6193 -3.5143 0.0 0
M  V30 21 N 2.2739 -6.0409 0.0 0
M  V30 22 C 6.6496 -4.8925 0.0 0
M  V30 23 C 9.7161 1.3092 0.0 0
M  V30 24 C 7.8555 -0.5282 0.0 0
M  V30 25 C 0.8039 -6.4084 0.0 0
M  V30 26 O 10.1065 2.7793 0.0 0
M  V30 27 C 10.7612 0.2526 0.0 0
M  V30 28 C 8.9006 -1.5848 0.0 0
M  V30 29 C 11.5536 3.1697 0.0 0
M  V30 30 C 10.3477 -1.1944 0.0 0
M  V30 31 N 11.3928 -2.251 0.0 0
M  V30 32 C 10.9794 -3.698 0.0 0
M  V30 33 C 12.8399 -1.8605 0.0 0
M  V30 34 C 12.0245 -4.7546 0.0 0
M  V30 35 C 13.885 -2.9171 0.0 0
M  V30 36 O 13.4716 -4.3642 0.0 0
M  V30 END ATOM
M  V30 BEGIN BOND
M  V30 1 1 1 2
M  V30 2 1 2 3
M  V30 3 1 2 4
M  V30 4 1 2 5
M  V30 5 2 5 6
M  V30 6 1 5 7
M  V30 7 1 6 8
M  V30 8 1 6 9
M  V30 9 2 7 10
M  V30 10 1 8 11
M  V30 11 2 9 12
M  V30 12 2 11 13
M  V30 13 1 11 14
M  V30 14 1 12 15
M  V30 15 1 13 16
M  V30 16 1 13 17
M  V30 17 2 14 18
M  V30 18 1 15 19
M  V30 19 2 16 20
M  V30 20 1 16 21
M  V30 21 2 17 22
M  V30 22 2 19 23
M  V30 23 1 19 24
M  V30 24 1 21 25
M  V30 25 1 23 26
M  V30 26 1 23 27
M  V30 27 2 24 28
M  V30 28 1 26 29
M  V30 29 2 27 30
M  V30 30 1 30 31
M  V30 31 1 31 32
M  V30 32 1 31 33
M  V30 33 1 32 34
M  V30 34 1 33 35
M  V30 35 1 34 36
M  V30 36 1 10 12
M  V30 37 1 18 22
M  V30 38 1 28 30
M  V30 39 1 35 36
M  V30 END BOND
M  V30 END CTAB
M  END
>  <Compound ID>
237

>  <Name>
PND-1186

>  <Uniprot>
Q13164

>  <Target>
MAPK7

>  <Smiles>
CNC(=O)C1=CC=CC=C1NC1=CC(NC2=CC=C(N3CCOCC3)C=C2OC)=NC=C1C(F)(F)F

>  <Kd (nM)>


>  <Assay (Kd)>


>  <Ki (nM)>


>  <Assay (Ki)>


>  <IC50 (nM)>


>  <Assay (IC50)>


>  <EC50 (nM)>


>  <Assay (EC50)>


>  <Article DOI>
10.1016/j.cell.2020.10.038

>  <Molecular Weight>
501.509

>  <Exact Mass>
501.198774352

>  <XLogP3>
4.7

>  <Heavy Atom Count>
36

>  <Ring Count>
4

>  <Hydrogen Bond Acceptor Count>
7

>  <Hydrogen Bond Donor Count>
3

>  <Rotatable Bond Count>
7

>  <Topological Polar Surface Area>
87.75

>  <Molecular Formula>
C25H26F3N5O3

>  <InChI>
InChI=1S/C25H26F3N5O3/c1-29-24(34)17-5-3-4-6-19(17)31-21-14-23(30-15-18(21)25(26,27)28)32-20-8-7-16(13-22(20)35-2)33-9-11-36-12-10-33/h3-8,13-15H,9-12H2,1-2H3,(H,29,34)(H2,30,31,32)

>  <InChI Key>
IGUBBWJDMLCRIK-UHFFFAOYSA-N

>  <BindingDB>
50440659

>  <PubChem>
25073775

>  <ChEMBL>
CHEMBL3040440

$$$$
Compound 873
Actelion Java MolfileCreator 2.0

  0  0  0  0  0  0              0 V3000
M  V30 BEGIN CTAB
M  V30 COUNTS 36 39 0 0 0
M  V30 BEGIN ATOM
M  V30 1 F 0.0 0.0 0.0 0
M  V30 2 C 1.447 0.3904 0.0 0
M  V30 3 F 1.0565 1.8605 0.0 0
M  V30 4 F 1.8145 -1.0565 0.0 0
M  V30 5 C 2.8941 0.7809 0.0 0
M  V30 6 C 3.9392 -0.2756 0.0 0
M  V30 7 C 3.2846 2.251 0.0 0
M  V30 8 N 3.5258 -1.7227 0.0 0
M  V30 9 C 5.3863 0.1148 0.0 0
M  V30 10 N 4.7317 2.6414 0.0 0
M  V30 11 C 4.5709 -2.7793 0.0 0
M  V30 12 C 5.7768 1.5848 0.0 0
M  V30 13 C 4.1574 -4.2263 0.0 0
M  V30 14 C 6.018 -2.3888 0.0 0
M  V30 15 N 7.2239 1.9753 0.0 0
M  V30 16 C 2.6874 -4.5939 0.0 0
M  V30 17 C 5.2025 -5.2829 0.0 0
M  V30 18 C 7.0631 -3.4454 0.0 0
M  V30 19 C 8.269 0.9187 0.0 0
M  V30 20 O 1.6193 -3.5143 0.0 0
M  V30 21 N 2.2739 -6.0409 0.0 0
M  V30 22 C 6.6496 -4.8925 0.0 0
M  V30 23 C 9.7161 1.3092 0.0 0
M  V30 24 C 7.8555 -0.5282 0.0 0
M  V30 25 C 0.8039 -6.4084 0.0 0
M  V30 26 O 10.1065 2.7793 0.0 0
M  V30 27 C 10.7612 0.2526 0.0 0
M  V30 28 C 8.9006 -1.5848 0.0 0
M  V30 29 C 11.5536 3.1697 0.0 0
M  V30 30 C 10.3477 -1.1944 0.0 0
M  V30 31 N 11.3928 -2.251 0.0 0
M  V30 32 C 10.9794 -3.698 0.0 0
M  V30 33 C 12.8399 -1.8605 0.0 0
M  V30 34 C 12.0245 -4.7546 0.0 0
M  V30 35 C 13.885 -2.9171 0.0 0
M  V30 36 O 13.4716 -4.3642 0.0 0
M  V30 END ATOM
M  V30 BEGIN BOND
M  V30 1 1 1 2
M  V30 2 1 2 3
M  V30 3 1 2 4
M  V30 4 1 2 5
M  V30 5 2 5 6
M  V30 6 1 5 7
M  V30 7 1 6 8
M  V30 8 1 6 9
M  V30 9 2 7 10
M  V30 10 1 8 11
M  V30 11 2 9 12
M  V30 12 2 11 13
M  V30 13 1 11 14
M  V30 14 1 12 15
M  V30 15 1 13 16
M  V30 16 1 13 17
M  V30 17 2 14 18
M  V30 18 1 15 19
M  V30 19 2 16 20
M  V30 20 1 16 21
M  V30 21 2 17 22
M  V30 22 2 19 23
M  V30 23 1 19 24
M  V30 24 1 21 25
M  V30 25 1 23 26
M  V30 26 1 23 27
M  V30 27 2 24 28
M  V30 28 1 26 29
M  V30 29 2 27 30
M  V30 30 1 30 31
M  V30 31 1 31 32
M  V30 32 1 31 33
M  V30 33 1 32 34
M  V30 34 1 33 35
M  V30 35 1 34 36
M  V30 36 1 10 12
M  V30 37 1 18 22
M  V30 38 1 28 30
M  V30 39 1 35 36
M  V30 END BOND
M  V30 END CTAB
M  END
>  <Compound ID>
237

>  <Name>
PND-1186

>  <Uniprot>
O60285

>  <Target>
NUAK1

>  <Smiles>
CNC(=O)C1=CC=CC=C1NC1=CC(NC2=CC=C(N3CCOCC3)C=C2OC)=NC=C1C(F)(F)F

>  <Kd (nM)>


>  <Assay (Kd)>


>  <Ki (nM)>


>  <Assay (Ki)>


>  <IC50 (nM)>


>  <Assay (IC50)>


>  <EC50 (nM)>


>  <Assay (EC50)>


>  <Article DOI>
10.1016/j.cell.2020.10.038

>  <Molecular Weight>
501.509

>  <Exact Mass>
501.198774352

>  <XLogP3>
4.7

>  <Heavy Atom Count>
36

>  <Ring Count>
4

>  <Hydrogen Bond Acceptor Count>
7

>  <Hydrogen Bond Donor Count>
3

>  <Rotatable Bond Count>
7

>  <Topological Polar Surface Area>
87.75

>  <Molecular Formula>
C25H26F3N5O3

>  <InChI>
InChI=1S/C25H26F3N5O3/c1-29-24(34)17-5-3-4-6-19(17)31-21-14-23(30-15-18(21)25(26,27)28)32-20-8-7-16(13-22(20)35-2)33-9-11-36-12-10-33/h3-8,13-15H,9-12H2,1-2H3,(H,29,34)(H2,30,31,32)

>  <InChI Key>
IGUBBWJDMLCRIK-UHFFFAOYSA-N

>  <BindingDB>
50440659

>  <PubChem>
25073775

>  <ChEMBL>
CHEMBL3040440

$$$$
Compound 874
Actelion Java MolfileCreator 2.0

  0  0  0  0  0  0              0 V3000
M  V30 BEGIN CTAB
M  V30 COUNTS 36 39 0 0 0
M  V30 BEGIN ATOM
M  V30 1 F 0.0 0.0 0.0 0
M  V30 2 C 1.447 0.3904 0.0 0
M  V30 3 F 1.0565 1.8605 0.0 0
M  V30 4 F 1.8145 -1.0565 0.0 0
M  V30 5 C 2.8941 0.7809 0.0 0
M  V30 6 C 3.9392 -0.2756 0.0 0
M  V30 7 C 3.2846 2.251 0.0 0
M  V30 8 N 3.5258 -1.7227 0.0 0
M  V30 9 C 5.3863 0.1148 0.0 0
M  V30 10 N 4.7317 2.6414 0.0 0
M  V30 11 C 4.5709 -2.7793 0.0 0
M  V30 12 C 5.7768 1.5848 0.0 0
M  V30 13 C 4.1574 -4.2263 0.0 0
M  V30 14 C 6.018 -2.3888 0.0 0
M  V30 15 N 7.2239 1.9753 0.0 0
M  V30 16 C 2.6874 -4.5939 0.0 0
M  V30 17 C 5.2025 -5.2829 0.0 0
M  V30 18 C 7.0631 -3.4454 0.0 0
M  V30 19 C 8.269 0.9187 0.0 0
M  V30 20 O 1.6193 -3.5143 0.0 0
M  V30 21 N 2.2739 -6.0409 0.0 0
M  V30 22 C 6.6496 -4.8925 0.0 0
M  V30 23 C 9.7161 1.3092 0.0 0
M  V30 24 C 7.8555 -0.5282 0.0 0
M  V30 25 C 0.8039 -6.4084 0.0 0
M  V30 26 O 10.1065 2.7793 0.0 0
M  V30 27 C 10.7612 0.2526 0.0 0
M  V30 28 C 8.9006 -1.5848 0.0 0
M  V30 29 C 11.5536 3.1697 0.0 0
M  V30 30 C 10.3477 -1.1944 0.0 0
M  V30 31 N 11.3928 -2.251 0.0 0
M  V30 32 C 10.9794 -3.698 0.0 0
M  V30 33 C 12.8399 -1.8605 0.0 0
M  V30 34 C 12.0245 -4.7546 0.0 0
M  V30 35 C 13.885 -2.9171 0.0 0
M  V30 36 O 13.4716 -4.3642 0.0 0
M  V30 END ATOM
M  V30 BEGIN BOND
M  V30 1 1 1 2
M  V30 2 1 2 3
M  V30 3 1 2 4
M  V30 4 1 2 5
M  V30 5 2 5 6
M  V30 6 1 5 7
M  V30 7 1 6 8
M  V30 8 1 6 9
M  V30 9 2 7 10
M  V30 10 1 8 11
M  V30 11 2 9 12
M  V30 12 2 11 13
M  V30 13 1 11 14
M  V30 14 1 12 15
M  V30 15 1 13 16
M  V30 16 1 13 17
M  V30 17 2 14 18
M  V30 18 1 15 19
M  V30 19 2 16 20
M  V30 20 1 16 21
M  V30 21 2 17 22
M  V30 22 2 19 23
M  V30 23 1 19 24
M  V30 24 1 21 25
M  V30 25 1 23 26
M  V30 26 1 23 27
M  V30 27 2 24 28
M  V30 28 1 26 29
M  V30 29 2 27 30
M  V30 30 1 30 31
M  V30 31 1 31 32
M  V30 32 1 31 33
M  V30 33 1 32 34
M  V30 34 1 33 35
M  V30 35 1 34 36
M  V30 36 1 10 12
M  V30 37 1 18 22
M  V30 38 1 28 30
M  V30 39 1 35 36
M  V30 END BOND
M  V30 END CTAB
M  END
>  <Compound ID>
237

>  <Name>
PND-1186

>  <Uniprot>
Q14289

>  <Target>
PTK2B

>  <Smiles>
CNC(=O)C1=CC=CC=C1NC1=CC(NC2=CC=C(N3CCOCC3)C=C2OC)=NC=C1C(F)(F)F

>  <Kd (nM)>


>  <Assay (Kd)>


>  <Ki (nM)>


>  <Assay (Ki)>


>  <IC50 (nM)>


>  <Assay (IC50)>


>  <EC50 (nM)>


>  <Assay (EC50)>


>  <Article DOI>
10.1016/j.cell.2020.10.038

>  <Molecular Weight>
501.509

>  <Exact Mass>
501.198774352

>  <XLogP3>
4.7

>  <Heavy Atom Count>
36

>  <Ring Count>
4

>  <Hydrogen Bond Acceptor Count>
7

>  <Hydrogen Bond Donor Count>
3

>  <Rotatable Bond Count>
7

>  <Topological Polar Surface Area>
87.75

>  <Molecular Formula>
C25H26F3N5O3

>  <InChI>
InChI=1S/C25H26F3N5O3/c1-29-24(34)17-5-3-4-6-19(17)31-21-14-23(30-15-18(21)25(26,27)28)32-20-8-7-16(13-22(20)35-2)33-9-11-36-12-10-33/h3-8,13-15H,9-12H2,1-2H3,(H,29,34)(H2,30,31,32)

>  <InChI Key>
IGUBBWJDMLCRIK-UHFFFAOYSA-N

>  <BindingDB>
50440659

>  <PubChem>
25073775

>  <ChEMBL>
CHEMBL3040440

$$$$
Compound 875
Actelion Java MolfileCreator 2.0

  0  0  0  0  0  0              0 V3000
M  V30 BEGIN CTAB
M  V30 COUNTS 36 39 0 0 0
M  V30 BEGIN ATOM
M  V30 1 F 0.0 0.0 0.0 0
M  V30 2 C 1.447 0.3904 0.0 0
M  V30 3 F 1.0565 1.8605 0.0 0
M  V30 4 F 1.8145 -1.0565 0.0 0
M  V30 5 C 2.8941 0.7809 0.0 0
M  V30 6 C 3.9392 -0.2756 0.0 0
M  V30 7 C 3.2846 2.251 0.0 0
M  V30 8 N 3.5258 -1.7227 0.0 0
M  V30 9 C 5.3863 0.1148 0.0 0
M  V30 10 N 4.7317 2.6414 0.0 0
M  V30 11 C 4.5709 -2.7793 0.0 0
M  V30 12 C 5.7768 1.5848 0.0 0
M  V30 13 C 4.1574 -4.2263 0.0 0
M  V30 14 C 6.018 -2.3888 0.0 0
M  V30 15 N 7.2239 1.9753 0.0 0
M  V30 16 C 2.6874 -4.5939 0.0 0
M  V30 17 C 5.2025 -5.2829 0.0 0
M  V30 18 C 7.0631 -3.4454 0.0 0
M  V30 19 C 8.269 0.9187 0.0 0
M  V30 20 O 1.6193 -3.5143 0.0 0
M  V30 21 N 2.2739 -6.0409 0.0 0
M  V30 22 C 6.6496 -4.8925 0.0 0
M  V30 23 C 9.7161 1.3092 0.0 0
M  V30 24 C 7.8555 -0.5282 0.0 0
M  V30 25 C 0.8039 -6.4084 0.0 0
M  V30 26 O 10.1065 2.7793 0.0 0
M  V30 27 C 10.7612 0.2526 0.0 0
M  V30 28 C 8.9006 -1.5848 0.0 0
M  V30 29 C 11.5536 3.1697 0.0 0
M  V30 30 C 10.3477 -1.1944 0.0 0
M  V30 31 N 11.3928 -2.251 0.0 0
M  V30 32 C 10.9794 -3.698 0.0 0
M  V30 33 C 12.8399 -1.8605 0.0 0
M  V30 34 C 12.0245 -4.7546 0.0 0
M  V30 35 C 13.885 -2.9171 0.0 0
M  V30 36 O 13.4716 -4.3642 0.0 0
M  V30 END ATOM
M  V30 BEGIN BOND
M  V30 1 1 1 2
M  V30 2 1 2 3
M  V30 3 1 2 4
M  V30 4 1 2 5
M  V30 5 2 5 6
M  V30 6 1 5 7
M  V30 7 1 6 8
M  V30 8 1 6 9
M  V30 9 2 7 10
M  V30 10 1 8 11
M  V30 11 2 9 12
M  V30 12 2 11 13
M  V30 13 1 11 14
M  V30 14 1 12 15
M  V30 15 1 13 16
M  V30 16 1 13 17
M  V30 17 2 14 18
M  V30 18 1 15 19
M  V30 19 2 16 20
M  V30 20 1 16 21
M  V30 21 2 17 22
M  V30 22 2 19 23
M  V30 23 1 19 24
M  V30 24 1 21 25
M  V30 25 1 23 26
M  V30 26 1 23 27
M  V30 27 2 24 28
M  V30 28 1 26 29
M  V30 29 2 27 30
M  V30 30 1 30 31
M  V30 31 1 31 32
M  V30 32 1 31 33
M  V30 33 1 32 34
M  V30 34 1 33 35
M  V30 35 1 34 36
M  V30 36 1 10 12
M  V30 37 1 18 22
M  V30 38 1 28 30
M  V30 39 1 35 36
M  V30 END BOND
M  V30 END CTAB
M  END
>  <Compound ID>
237

>  <Name>
PND-1186

>  <Uniprot>
Q15418

>  <Target>
RPS6KA1

>  <Smiles>
CNC(=O)C1=CC=CC=C1NC1=CC(NC2=CC=C(N3CCOCC3)C=C2OC)=NC=C1C(F)(F)F

>  <Kd (nM)>


>  <Assay (Kd)>


>  <Ki (nM)>


>  <Assay (Ki)>


>  <IC50 (nM)>


>  <Assay (IC50)>


>  <EC50 (nM)>


>  <Assay (EC50)>


>  <Article DOI>
10.1016/j.cell.2020.10.038

>  <Molecular Weight>
501.509

>  <Exact Mass>
501.198774352

>  <XLogP3>
4.7

>  <Heavy Atom Count>
36

>  <Ring Count>
4

>  <Hydrogen Bond Acceptor Count>
7

>  <Hydrogen Bond Donor Count>
3

>  <Rotatable Bond Count>
7

>  <Topological Polar Surface Area>
87.75

>  <Molecular Formula>
C25H26F3N5O3

>  <InChI>
InChI=1S/C25H26F3N5O3/c1-29-24(34)17-5-3-4-6-19(17)31-21-14-23(30-15-18(21)25(26,27)28)32-20-8-7-16(13-22(20)35-2)33-9-11-36-12-10-33/h3-8,13-15H,9-12H2,1-2H3,(H,29,34)(H2,30,31,32)

>  <InChI Key>
IGUBBWJDMLCRIK-UHFFFAOYSA-N

>  <BindingDB>
50440659

>  <PubChem>
25073775

>  <ChEMBL>
CHEMBL3040440

$$$$
Compound 876
Actelion Java MolfileCreator 2.0

  0  0  0  0  0  0              0 V3000
M  V30 BEGIN CTAB
M  V30 COUNTS 36 39 0 0 0
M  V30 BEGIN ATOM
M  V30 1 F 0.0 0.0 0.0 0
M  V30 2 C 1.447 0.3904 0.0 0
M  V30 3 F 1.0565 1.8605 0.0 0
M  V30 4 F 1.8145 -1.0565 0.0 0
M  V30 5 C 2.8941 0.7809 0.0 0
M  V30 6 C 3.9392 -0.2756 0.0 0
M  V30 7 C 3.2846 2.251 0.0 0
M  V30 8 N 3.5258 -1.7227 0.0 0
M  V30 9 C 5.3863 0.1148 0.0 0
M  V30 10 N 4.7317 2.6414 0.0 0
M  V30 11 C 4.5709 -2.7793 0.0 0
M  V30 12 C 5.7768 1.5848 0.0 0
M  V30 13 C 4.1574 -4.2263 0.0 0
M  V30 14 C 6.018 -2.3888 0.0 0
M  V30 15 N 7.2239 1.9753 0.0 0
M  V30 16 C 2.6874 -4.5939 0.0 0
M  V30 17 C 5.2025 -5.2829 0.0 0
M  V30 18 C 7.0631 -3.4454 0.0 0
M  V30 19 C 8.269 0.9187 0.0 0
M  V30 20 O 1.6193 -3.5143 0.0 0
M  V30 21 N 2.2739 -6.0409 0.0 0
M  V30 22 C 6.6496 -4.8925 0.0 0
M  V30 23 C 9.7161 1.3092 0.0 0
M  V30 24 C 7.8555 -0.5282 0.0 0
M  V30 25 C 0.8039 -6.4084 0.0 0
M  V30 26 O 10.1065 2.7793 0.0 0
M  V30 27 C 10.7612 0.2526 0.0 0
M  V30 28 C 8.9006 -1.5848 0.0 0
M  V30 29 C 11.5536 3.1697 0.0 0
M  V30 30 C 10.3477 -1.1944 0.0 0
M  V30 31 N 11.3928 -2.251 0.0 0
M  V30 32 C 10.9794 -3.698 0.0 0
M  V30 33 C 12.8399 -1.8605 0.0 0
M  V30 34 C 12.0245 -4.7546 0.0 0
M  V30 35 C 13.885 -2.9171 0.0 0
M  V30 36 O 13.4716 -4.3642 0.0 0
M  V30 END ATOM
M  V30 BEGIN BOND
M  V30 1 1 1 2
M  V30 2 1 2 3
M  V30 3 1 2 4
M  V30 4 1 2 5
M  V30 5 2 5 6
M  V30 6 1 5 7
M  V30 7 1 6 8
M  V30 8 1 6 9
M  V30 9 2 7 10
M  V30 10 1 8 11
M  V30 11 2 9 12
M  V30 12 2 11 13
M  V30 13 1 11 14
M  V30 14 1 12 15
M  V30 15 1 13 16
M  V30 16 1 13 17
M  V30 17 2 14 18
M  V30 18 1 15 19
M  V30 19 2 16 20
M  V30 20 1 16 21
M  V30 21 2 17 22
M  V30 22 2 19 23
M  V30 23 1 19 24
M  V30 24 1 21 25
M  V30 25 1 23 26
M  V30 26 1 23 27
M  V30 27 2 24 28
M  V30 28 1 26 29
M  V30 29 2 27 30
M  V30 30 1 30 31
M  V30 31 1 31 32
M  V30 32 1 31 33
M  V30 33 1 32 34
M  V30 34 1 33 35
M  V30 35 1 34 36
M  V30 36 1 10 12
M  V30 37 1 18 22
M  V30 38 1 28 30
M  V30 39 1 35 36
M  V30 END BOND
M  V30 END CTAB
M  END
>  <Compound ID>
237

>  <Name>
PND-1186

>  <Uniprot>
P51812

>  <Target>
RPS6KA3

>  <Smiles>
CNC(=O)C1=CC=CC=C1NC1=CC(NC2=CC=C(N3CCOCC3)C=C2OC)=NC=C1C(F)(F)F

>  <Kd (nM)>


>  <Assay (Kd)>


>  <Ki (nM)>


>  <Assay (Ki)>


>  <IC50 (nM)>


>  <Assay (IC50)>


>  <EC50 (nM)>


>  <Assay (EC50)>


>  <Article DOI>
10.1016/j.cell.2020.10.038

>  <Molecular Weight>
501.509

>  <Exact Mass>
501.198774352

>  <XLogP3>
4.7

>  <Heavy Atom Count>
36

>  <Ring Count>
4

>  <Hydrogen Bond Acceptor Count>
7

>  <Hydrogen Bond Donor Count>
3

>  <Rotatable Bond Count>
7

>  <Topological Polar Surface Area>
87.75

>  <Molecular Formula>
C25H26F3N5O3

>  <InChI>
InChI=1S/C25H26F3N5O3/c1-29-24(34)17-5-3-4-6-19(17)31-21-14-23(30-15-18(21)25(26,27)28)32-20-8-7-16(13-22(20)35-2)33-9-11-36-12-10-33/h3-8,13-15H,9-12H2,1-2H3,(H,29,34)(H2,30,31,32)

>  <InChI Key>
IGUBBWJDMLCRIK-UHFFFAOYSA-N

>  <BindingDB>
50440659

>  <PubChem>
25073775

>  <ChEMBL>
CHEMBL3040440

$$$$
Compound 877
Actelion Java MolfileCreator 2.0

  0  0  0  0  0  0              0 V3000
M  V30 BEGIN CTAB
M  V30 COUNTS 36 39 0 0 0
M  V30 BEGIN ATOM
M  V30 1 F 0.0 0.0 0.0 0
M  V30 2 C 1.447 0.3904 0.0 0
M  V30 3 F 1.0565 1.8605 0.0 0
M  V30 4 F 1.8145 -1.0565 0.0 0
M  V30 5 C 2.8941 0.7809 0.0 0
M  V30 6 C 3.9392 -0.2756 0.0 0
M  V30 7 C 3.2846 2.251 0.0 0
M  V30 8 N 3.5258 -1.7227 0.0 0
M  V30 9 C 5.3863 0.1148 0.0 0
M  V30 10 N 4.7317 2.6414 0.0 0
M  V30 11 C 4.5709 -2.7793 0.0 0
M  V30 12 C 5.7768 1.5848 0.0 0
M  V30 13 C 4.1574 -4.2263 0.0 0
M  V30 14 C 6.018 -2.3888 0.0 0
M  V30 15 N 7.2239 1.9753 0.0 0
M  V30 16 C 2.6874 -4.5939 0.0 0
M  V30 17 C 5.2025 -5.2829 0.0 0
M  V30 18 C 7.0631 -3.4454 0.0 0
M  V30 19 C 8.269 0.9187 0.0 0
M  V30 20 O 1.6193 -3.5143 0.0 0
M  V30 21 N 2.2739 -6.0409 0.0 0
M  V30 22 C 6.6496 -4.8925 0.0 0
M  V30 23 C 9.7161 1.3092 0.0 0
M  V30 24 C 7.8555 -0.5282 0.0 0
M  V30 25 C 0.8039 -6.4084 0.0 0
M  V30 26 O 10.1065 2.7793 0.0 0
M  V30 27 C 10.7612 0.2526 0.0 0
M  V30 28 C 8.9006 -1.5848 0.0 0
M  V30 29 C 11.5536 3.1697 0.0 0
M  V30 30 C 10.3477 -1.1944 0.0 0
M  V30 31 N 11.3928 -2.251 0.0 0
M  V30 32 C 10.9794 -3.698 0.0 0
M  V30 33 C 12.8399 -1.8605 0.0 0
M  V30 34 C 12.0245 -4.7546 0.0 0
M  V30 35 C 13.885 -2.9171 0.0 0
M  V30 36 O 13.4716 -4.3642 0.0 0
M  V30 END ATOM
M  V30 BEGIN BOND
M  V30 1 1 1 2
M  V30 2 1 2 3
M  V30 3 1 2 4
M  V30 4 1 2 5
M  V30 5 2 5 6
M  V30 6 1 5 7
M  V30 7 1 6 8
M  V30 8 1 6 9
M  V30 9 2 7 10
M  V30 10 1 8 11
M  V30 11 2 9 12
M  V30 12 2 11 13
M  V30 13 1 11 14
M  V30 14 1 12 15
M  V30 15 1 13 16
M  V30 16 1 13 17
M  V30 17 2 14 18
M  V30 18 1 15 19
M  V30 19 2 16 20
M  V30 20 1 16 21
M  V30 21 2 17 22
M  V30 22 2 19 23
M  V30 23 1 19 24
M  V30 24 1 21 25
M  V30 25 1 23 26
M  V30 26 1 23 27
M  V30 27 2 24 28
M  V30 28 1 26 29
M  V30 29 2 27 30
M  V30 30 1 30 31
M  V30 31 1 31 32
M  V30 32 1 31 33
M  V30 33 1 32 34
M  V30 34 1 33 35
M  V30 35 1 34 36
M  V30 36 1 10 12
M  V30 37 1 18 22
M  V30 38 1 28 30
M  V30 39 1 35 36
M  V30 END BOND
M  V30 END CTAB
M  END
>  <Compound ID>
237

>  <Name>
PND-1186

>  <Uniprot>
Q9BYT3

>  <Target>
STK33

>  <Smiles>
CNC(=O)C1=CC=CC=C1NC1=CC(NC2=CC=C(N3CCOCC3)C=C2OC)=NC=C1C(F)(F)F

>  <Kd (nM)>


>  <Assay (Kd)>


>  <Ki (nM)>


>  <Assay (Ki)>


>  <IC50 (nM)>


>  <Assay (IC50)>


>  <EC50 (nM)>


>  <Assay (EC50)>


>  <Article DOI>
10.1016/j.cell.2020.10.038

>  <Molecular Weight>
501.509

>  <Exact Mass>
501.198774352

>  <XLogP3>
4.7

>  <Heavy Atom Count>
36

>  <Ring Count>
4

>  <Hydrogen Bond Acceptor Count>
7

>  <Hydrogen Bond Donor Count>
3

>  <Rotatable Bond Count>
7

>  <Topological Polar Surface Area>
87.75

>  <Molecular Formula>
C25H26F3N5O3

>  <InChI>
InChI=1S/C25H26F3N5O3/c1-29-24(34)17-5-3-4-6-19(17)31-21-14-23(30-15-18(21)25(26,27)28)32-20-8-7-16(13-22(20)35-2)33-9-11-36-12-10-33/h3-8,13-15H,9-12H2,1-2H3,(H,29,34)(H2,30,31,32)

>  <InChI Key>
IGUBBWJDMLCRIK-UHFFFAOYSA-N

>  <BindingDB>
50440659

>  <PubChem>
25073775

>  <ChEMBL>
CHEMBL3040440

$$$$
Compound 878
Actelion Java MolfileCreator 2.0

  0  0  0  0  0  0              0 V3000
M  V30 BEGIN CTAB
M  V30 COUNTS 36 39 0 0 0
M  V30 BEGIN ATOM
M  V30 1 F 0.0 0.0 0.0 0
M  V30 2 C 1.447 0.3904 0.0 0
M  V30 3 F 1.0565 1.8605 0.0 0
M  V30 4 F 1.8145 -1.0565 0.0 0
M  V30 5 C 2.8941 0.7809 0.0 0
M  V30 6 C 3.9392 -0.2756 0.0 0
M  V30 7 C 3.2846 2.251 0.0 0
M  V30 8 N 3.5258 -1.7227 0.0 0
M  V30 9 C 5.3863 0.1148 0.0 0
M  V30 10 N 4.7317 2.6414 0.0 0
M  V30 11 C 4.5709 -2.7793 0.0 0
M  V30 12 C 5.7768 1.5848 0.0 0
M  V30 13 C 4.1574 -4.2263 0.0 0
M  V30 14 C 6.018 -2.3888 0.0 0
M  V30 15 N 7.2239 1.9753 0.0 0
M  V30 16 C 2.6874 -4.5939 0.0 0
M  V30 17 C 5.2025 -5.2829 0.0 0
M  V30 18 C 7.0631 -3.4454 0.0 0
M  V30 19 C 8.269 0.9187 0.0 0
M  V30 20 O 1.6193 -3.5143 0.0 0
M  V30 21 N 2.2739 -6.0409 0.0 0
M  V30 22 C 6.6496 -4.8925 0.0 0
M  V30 23 C 9.7161 1.3092 0.0 0
M  V30 24 C 7.8555 -0.5282 0.0 0
M  V30 25 C 0.8039 -6.4084 0.0 0
M  V30 26 O 10.1065 2.7793 0.0 0
M  V30 27 C 10.7612 0.2526 0.0 0
M  V30 28 C 8.9006 -1.5848 0.0 0
M  V30 29 C 11.5536 3.1697 0.0 0
M  V30 30 C 10.3477 -1.1944 0.0 0
M  V30 31 N 11.3928 -2.251 0.0 0
M  V30 32 C 10.9794 -3.698 0.0 0
M  V30 33 C 12.8399 -1.8605 0.0 0
M  V30 34 C 12.0245 -4.7546 0.0 0
M  V30 35 C 13.885 -2.9171 0.0 0
M  V30 36 O 13.4716 -4.3642 0.0 0
M  V30 END ATOM
M  V30 BEGIN BOND
M  V30 1 1 1 2
M  V30 2 1 2 3
M  V30 3 1 2 4
M  V30 4 1 2 5
M  V30 5 2 5 6
M  V30 6 1 5 7
M  V30 7 1 6 8
M  V30 8 1 6 9
M  V30 9 2 7 10
M  V30 10 1 8 11
M  V30 11 2 9 12
M  V30 12 2 11 13
M  V30 13 1 11 14
M  V30 14 1 12 15
M  V30 15 1 13 16
M  V30 16 1 13 17
M  V30 17 2 14 18
M  V30 18 1 15 19
M  V30 19 2 16 20
M  V30 20 1 16 21
M  V30 21 2 17 22
M  V30 22 2 19 23
M  V30 23 1 19 24
M  V30 24 1 21 25
M  V30 25 1 23 26
M  V30 26 1 23 27
M  V30 27 2 24 28
M  V30 28 1 26 29
M  V30 29 2 27 30
M  V30 30 1 30 31
M  V30 31 1 31 32
M  V30 32 1 31 33
M  V30 33 1 32 34
M  V30 34 1 33 35
M  V30 35 1 34 36
M  V30 36 1 10 12
M  V30 37 1 18 22
M  V30 38 1 28 30
M  V30 39 1 35 36
M  V30 END BOND
M  V30 END CTAB
M  END
>  <Compound ID>
237

>  <Name>
PND-1186

>  <Uniprot>
P30291

>  <Target>
Wee1

>  <Smiles>
CNC(=O)C1=CC=CC=C1NC1=CC(NC2=CC=C(N3CCOCC3)C=C2OC)=NC=C1C(F)(F)F

>  <Kd (nM)>


>  <Assay (Kd)>


>  <Ki (nM)>


>  <Assay (Ki)>


>  <IC50 (nM)>


>  <Assay (IC50)>


>  <EC50 (nM)>


>  <Assay (EC50)>


>  <Article DOI>
10.1016/j.cell.2020.10.038

>  <Molecular Weight>
501.509

>  <Exact Mass>
501.198774352

>  <XLogP3>
4.7

>  <Heavy Atom Count>
36

>  <Ring Count>
4

>  <Hydrogen Bond Acceptor Count>
7

>  <Hydrogen Bond Donor Count>
3

>  <Rotatable Bond Count>
7

>  <Topological Polar Surface Area>
87.75

>  <Molecular Formula>
C25H26F3N5O3

>  <InChI>
InChI=1S/C25H26F3N5O3/c1-29-24(34)17-5-3-4-6-19(17)31-21-14-23(30-15-18(21)25(26,27)28)32-20-8-7-16(13-22(20)35-2)33-9-11-36-12-10-33/h3-8,13-15H,9-12H2,1-2H3,(H,29,34)(H2,30,31,32)

>  <InChI Key>
IGUBBWJDMLCRIK-UHFFFAOYSA-N

>  <BindingDB>
50440659

>  <PubChem>
25073775

>  <ChEMBL>
CHEMBL3040440

$$$$
Compound 879
Actelion Java MolfileCreator 2.0

  0  0  0  0  0  0              0 V3000
M  V30 BEGIN CTAB
M  V30 COUNTS 38 43 0 0 0
M  V30 BEGIN ATOM
M  V30 1 F 0.0 0.0 0.0 0
M  V30 2 C 0.8739 -1.1927 0.0 0
M  V30 3 F 2.3501 -1.0156 0.0 0
M  V30 4 C 0.2598 -2.5509 0.0 0
M  V30 5 C 1.1337 -3.7437 0.0 0
M  V30 6 C -1.24 -2.7044 0.0 0
M  V30 7 C 2.6099 -3.5665 0.0 0
M  V30 8 C 0.5196 -5.1018 0.0 0
M  V30 9 C -1.8541 -4.0625 0.0 0
M  V30 10 C 3.6138 -4.6648 0.0 0
M  V30 11 C 3.3421 -2.2556 0.0 0
M  V30 12 C -0.9802 -5.2553 0.0 0
M  V30 13 N -3.3539 -4.2161 0.0 0
M  V30 14 N 4.9719 -4.0389 0.0 0
M  V30 15 N 4.7947 -2.5509 0.0 0
M  V30 16 C -1.5943 -6.6135 0.0 0
M  V30 17 C -4.2515 -2.9996 0.0 0
M  V30 18 C -3.9681 -5.5742 0.0 0
M  V30 19 C 5.8931 -1.5234 0.0 0
M  V30 20 C -3.0941 -6.767 0.0 0
M  V30 21 N -3.8027 -1.5588 0.0 0
M  V30 22 C -5.7631 -2.9996 0.0 0
M  V30 23 N -5.0309 -0.6731 0.0 0
M  V30 24 C -6.2473 -1.5588 0.0 0
M  V30 25 C -6.767 -4.1098 0.0 0
M  V30 26 C -5.0546 0.8384 0.0 0
M  V30 27 C -7.7236 -1.24 0.0 0
M  V30 28 N -8.2432 -3.7909 0.0 0
M  V30 29 C -3.7673 1.6061 0.0 0
M  V30 30 C -6.3654 1.5943 0.0 0
M  V30 31 C -8.7274 -2.3501 0.0 0
M  V30 32 C -9.247 -4.901 0.0 0
M  V30 33 C -3.7909 3.1177 0.0 0
M  V30 34 C -6.3891 3.1059 0.0 0
M  V30 35 O -8.7865 -6.3182 0.0 0
M  V30 36 N -10.7233 -4.5822 0.0 0
M  V30 37 O -5.1018 3.8736 0.0 0
M  V30 38 C -11.7271 -5.6923 0.0 0
M  V30 END ATOM
M  V30 BEGIN BOND
M  V30 1 1 1 2
M  V30 2 1 2 3
M  V30 3 1 2 4
M  V30 4 2 4 5
M  V30 5 1 4 6
M  V30 6 1 5 7
M  V30 7 1 5 8
M  V30 8 2 6 9
M  V30 9 1 7 10
M  V30 10 2 7 11
M  V30 11 2 8 12
M  V30 12 1 9 13
M  V30 13 2 10 14
M  V30 14 1 11 15
M  V30 15 1 12 16
M  V30 16 1 13 17
M  V30 17 1 13 18
M  V30 18 1 15 19
M  V30 19 1 16 20
M  V30 20 2 17 21
M  V30 21 1 17 22
M  V30 22 1 21 23
M  V30 23 2 22 24
M  V30 24 1 22 25
M  V30 25 1 23 26
M  V30 26 1 24 27
M  V30 27 1 25 28
M  V30 28 1 26 29
M  V30 29 1 26 30
M  V30 30 1 27 31
M  V30 31 1 28 32
M  V30 32 1 29 33
M  V30 33 1 30 34
M  V30 34 2 32 35
M  V30 35 1 32 36
M  V30 36 1 33 37
M  V30 37 1 36 38
M  V30 38 1 9 12
M  V30 39 1 14 15
M  V30 40 1 18 20
M  V30 41 1 23 24
M  V30 42 1 28 31
M  V30 43 1 34 37
M  V30 END BOND
M  V30 END CTAB
M  END
>  <Compound ID>
238

>  <Name>
GNE-781

>  <Uniprot>
Q92793

>  <Target>
CBP

>  <Smiles>
CNC(=O)N1CCC2=C(C1)C(N1CCCC3=CC(C4=CN(C)N=C4)=C(C(F)F)C=C31)=NN2C1CCOCC1

>  <Kd (nM)>


>  <Assay (Kd)>


>  <Ki (nM)>


>  <Assay (Ki)>


>  <IC50 (nM)>
0.9

>  <Assay (IC50)>
IC50 was assessed by TR-FRET

>  <EC50 (nM)>


>  <Assay (EC50)>


>  <Article DOI>
10.1021/acs.jmedchem.7b00796

>  <Molecular Weight>
525.604

>  <Exact Mass>
525.266379736

>  <XLogP3>
2.7

>  <Heavy Atom Count>
38

>  <Ring Count>
6

>  <Hydrogen Bond Acceptor Count>
7

>  <Hydrogen Bond Donor Count>
1

>  <Rotatable Bond Count>
4

>  <Topological Polar Surface Area>
80.45

>  <Molecular Formula>
C27H33F2N7O2

>  <InChI>
InChI=1S/C27H33F2N7O2/c1-30-27(37)34-9-5-23-22(16-34)26(32-36(23)19-6-10-38-11-7-19)35-8-3-4-17-12-20(18-14-31-33(2)15-18)21(25(28)29)13-24(17)35/h12-15,19,25H,3-11,16H2,1-2H3,(H,30,37)

>  <InChI Key>
CQCWHSDMJBAGDC-UHFFFAOYSA-N

>  <BindingDB>
50269847

>  <PubChem>
132275066

>  <ChEMBL>
CHEMBL4097025

$$$$
Compound 880
Actelion Java MolfileCreator 2.0

  0  0  0  0  0  0              0 V3000
M  V30 BEGIN CTAB
M  V30 COUNTS 38 43 0 0 0
M  V30 BEGIN ATOM
M  V30 1 F 0.0 0.0 0.0 0
M  V30 2 C 0.8739 -1.1927 0.0 0
M  V30 3 F 2.3501 -1.0156 0.0 0
M  V30 4 C 0.2598 -2.5509 0.0 0
M  V30 5 C 1.1337 -3.7437 0.0 0
M  V30 6 C -1.24 -2.7044 0.0 0
M  V30 7 C 2.6099 -3.5665 0.0 0
M  V30 8 C 0.5196 -5.1018 0.0 0
M  V30 9 C -1.8541 -4.0625 0.0 0
M  V30 10 C 3.6138 -4.6648 0.0 0
M  V30 11 C 3.3421 -2.2556 0.0 0
M  V30 12 C -0.9802 -5.2553 0.0 0
M  V30 13 N -3.3539 -4.2161 0.0 0
M  V30 14 N 4.9719 -4.0389 0.0 0
M  V30 15 N 4.7947 -2.5509 0.0 0
M  V30 16 C -1.5943 -6.6135 0.0 0
M  V30 17 C -4.2515 -2.9996 0.0 0
M  V30 18 C -3.9681 -5.5742 0.0 0
M  V30 19 C 5.8931 -1.5234 0.0 0
M  V30 20 C -3.0941 -6.767 0.0 0
M  V30 21 N -3.8027 -1.5588 0.0 0
M  V30 22 C -5.7631 -2.9996 0.0 0
M  V30 23 N -5.0309 -0.6731 0.0 0
M  V30 24 C -6.2473 -1.5588 0.0 0
M  V30 25 C -6.767 -4.1098 0.0 0
M  V30 26 C -5.0546 0.8384 0.0 0
M  V30 27 C -7.7236 -1.24 0.0 0
M  V30 28 N -8.2432 -3.7909 0.0 0
M  V30 29 C -3.7673 1.6061 0.0 0
M  V30 30 C -6.3654 1.5943 0.0 0
M  V30 31 C -8.7274 -2.3501 0.0 0
M  V30 32 C -9.247 -4.901 0.0 0
M  V30 33 C -3.7909 3.1177 0.0 0
M  V30 34 C -6.3891 3.1059 0.0 0
M  V30 35 O -8.7865 -6.3182 0.0 0
M  V30 36 N -10.7233 -4.5822 0.0 0
M  V30 37 O -5.1018 3.8736 0.0 0
M  V30 38 C -11.7271 -5.6923 0.0 0
M  V30 END ATOM
M  V30 BEGIN BOND
M  V30 1 1 1 2
M  V30 2 1 2 3
M  V30 3 1 2 4
M  V30 4 2 4 5
M  V30 5 1 4 6
M  V30 6 1 5 7
M  V30 7 1 5 8
M  V30 8 2 6 9
M  V30 9 1 7 10
M  V30 10 2 7 11
M  V30 11 2 8 12
M  V30 12 1 9 13
M  V30 13 2 10 14
M  V30 14 1 11 15
M  V30 15 1 12 16
M  V30 16 1 13 17
M  V30 17 1 13 18
M  V30 18 1 15 19
M  V30 19 1 16 20
M  V30 20 2 17 21
M  V30 21 1 17 22
M  V30 22 1 21 23
M  V30 23 2 22 24
M  V30 24 1 22 25
M  V30 25 1 23 26
M  V30 26 1 24 27
M  V30 27 1 25 28
M  V30 28 1 26 29
M  V30 29 1 26 30
M  V30 30 1 27 31
M  V30 31 1 28 32
M  V30 32 1 29 33
M  V30 33 1 30 34
M  V30 34 2 32 35
M  V30 35 1 32 36
M  V30 36 1 33 37
M  V30 37 1 36 38
M  V30 38 1 9 12
M  V30 39 1 14 15
M  V30 40 1 18 20
M  V30 41 1 23 24
M  V30 42 1 28 31
M  V30 43 1 34 37
M  V30 END BOND
M  V30 END CTAB
M  END
>  <Compound ID>
238

>  <Name>
GNE-781

>  <Uniprot>
Q09472

>  <Target>
EP300

>  <Smiles>
CNC(=O)N1CCC2=C(C1)C(N1CCCC3=CC(C4=CN(C)N=C4)=C(C(F)F)C=C31)=NN2C1CCOCC1

>  <Kd (nM)>


>  <Assay (Kd)>


>  <Ki (nM)>


>  <Assay (Ki)>


>  <IC50 (nM)>
1.2

>  <Assay (IC50)>
IC50 was assessed by TR-FRET

>  <EC50 (nM)>


>  <Assay (EC50)>


>  <Article DOI>
10.1021/acs.jmedchem.7b00796

>  <Molecular Weight>
525.604

>  <Exact Mass>
525.266379736

>  <XLogP3>
2.7

>  <Heavy Atom Count>
38

>  <Ring Count>
6

>  <Hydrogen Bond Acceptor Count>
7

>  <Hydrogen Bond Donor Count>
1

>  <Rotatable Bond Count>
4

>  <Topological Polar Surface Area>
80.45

>  <Molecular Formula>
C27H33F2N7O2

>  <InChI>
InChI=1S/C27H33F2N7O2/c1-30-27(37)34-9-5-23-22(16-34)26(32-36(23)19-6-10-38-11-7-19)35-8-3-4-17-12-20(18-14-31-33(2)15-18)21(25(28)29)13-24(17)35/h12-15,19,25H,3-11,16H2,1-2H3,(H,30,37)

>  <InChI Key>
CQCWHSDMJBAGDC-UHFFFAOYSA-N

>  <BindingDB>
50269847

>  <PubChem>
132275066

>  <ChEMBL>
CHEMBL4097025

$$$$
Compound 881
Actelion Java MolfileCreator 2.0

  0  0  0  0  0  0              0 V3000
M  V30 BEGIN CTAB
M  V30 COUNTS 37 41 0 0 0
M  V30 BEGIN ATOM
M  V30 1 Cl 0.0 0.0 0.0 0
M  V30 2 C -0.3187 -1.4518 0.0 0
M  V30 3 C 0.7908 -2.4315 0.0 0
M  V30 4 C -1.7587 -1.9122 0.0 0
M  V30 5 C 0.4721 -3.8834 0.0 0
M  V30 6 C -2.0774 -3.364 0.0 0
M  V30 7 C 1.7115 -4.6861 0.0 0
M  V30 8 C -0.9679 -4.3437 0.0 0
M  V30 9 N 1.8413 -6.1615 0.0 0
M  V30 10 C 2.9863 -3.8952 0.0 0
M  V30 11 C -1.499 -5.7366 0.0 0
M  V30 12 C 0.7554 -7.1885 0.0 0
M  V30 13 C 4.2847 -4.6034 0.0 0
M  V30 14 C 2.9391 -2.3843 0.0 0
M  V30 15 N -3.0099 -5.7602 0.0 0
M  V30 16 C -0.7318 -7.0114 0.0 0
M  V30 17 F 4.3083 -6.0907 0.0 0
M  V30 18 C 5.5595 -3.8126 0.0 0
M  V30 19 O 1.6171 -1.6525 0.0 0
M  V30 20 C 4.2139 -1.5935 0.0 0
M  V30 21 C -3.7417 -7.0586 0.0 0
M  V30 22 C -1.4636 -8.3098 0.0 0
M  V30 23 C 5.5123 -2.3017 0.0 0
M  V30 24 C 1.5699 -0.1416 0.0 0
M  V30 25 N -2.9745 -8.3334 0.0 0
M  V30 26 N -5.2526 -7.0822 0.0 0
M  V30 27 C -6.0435 -5.7838 0.0 0
M  V30 28 C -5.3353 -4.4618 0.0 0
M  V30 29 C -7.5544 -5.8074 0.0 0
M  V30 30 C -6.1261 -3.1634 0.0 0
M  V30 31 C -8.3452 -4.509 0.0 0
M  V30 32 O -5.4179 -1.8413 0.0 0
M  V30 33 C -7.637 -3.187 0.0 0
M  V30 34 C -6.2087 -0.5429 0.0 0
M  V30 35 C -8.4279 -1.8886 0.0 0
M  V30 36 O -7.7196 -0.5665 0.0 0
M  V30 37 O -9.9387 -1.9122 0.0 0
M  V30 END ATOM
M  V30 BEGIN BOND
M  V30 1 1 1 2
M  V30 2 2 2 3
M  V30 3 1 2 4
M  V30 4 1 3 5
M  V30 5 2 4 6
M  V30 6 1 5 7
M  V30 7 2 5 8
M  V30 8 2 7 9
M  V30 9 1 7 10
M  V30 10 1 8 11
M  V30 11 1 9 12
M  V30 12 2 10 13
M  V30 13 1 10 14
M  V30 14 2 11 15
M  V30 15 1 11 16
M  V30 16 1 13 17
M  V30 17 1 13 18
M  V30 18 1 14 19
M  V30 19 2 14 20
M  V30 20 1 15 21
M  V30 21 2 16 22
M  V30 22 2 18 23
M  V30 23 1 19 24
M  V30 24 2 21 25
M  V30 25 1 21 26
M  V30 26 1 26 27
M  V30 27 2 27 28
M  V30 28 1 27 29
M  V30 29 1 28 30
M  V30 30 2 29 31
M  V30 31 1 30 32
M  V30 32 2 30 33
M  V30 33 1 32 34
M  V30 34 1 33 35
M  V30 35 2 35 36
M  V30 36 1 35 37
M  V30 37 1 6 8
M  V30 38 1 12 16
M  V30 39 1 20 23
M  V30 40 1 22 25
M  V30 41 1 31 33
M  V30 END BOND
M  V30 END CTAB
M  END
>  <Compound ID>
239

>  <Name>
Alisertib

>  <Uniprot>
O14965

>  <Target>
AURKA

>  <Smiles>
COC1=CC(NC2=NC=C3CN=C(C4=C(F)C=CC=C4OC)C4=CC(Cl)=CC=C4C3=N2)=CC=C1C(=O)O

>  <Kd (nM)>


>  <Assay (Kd)>


>  <Ki (nM)>


>  <Assay (Ki)>


>  <IC50 (nM)>
1

>  <Assay (IC50)>
Inhibition of AURKA

>  <EC50 (nM)>


>  <Assay (EC50)>


>  <Article DOI>
10.1021/jm501326k

>  <Molecular Weight>
518.932

>  <Exact Mass>
518.11571102

>  <XLogP3>
5.02

>  <Heavy Atom Count>
37

>  <Ring Count>
5

>  <Hydrogen Bond Acceptor Count>
7

>  <Hydrogen Bond Donor Count>
2

>  <Rotatable Bond Count>
6

>  <Topological Polar Surface Area>
105.93

>  <Molecular Formula>
C27H20ClFN4O4

>  <InChI>
InChI=1S/C27H20ClFN4O4/c1-36-21-5-3-4-20(29)23(21)25-19-10-15(28)6-8-17(19)24-14(12-30-25)13-31-27(33-24)32-16-7-9-18(26(34)35)22(11-16)37-2/h3-11,13H,12H2,1-2H3,(H,34,35)(H,31,32,33)

>  <InChI Key>
ZLHFILGSQDJULK-UHFFFAOYSA-N

>  <BindingDB>
50277545

>  <PubChem>
24771867

>  <ChEMBL>
CHEMBL483158

$$$$
Compound 882
Actelion Java MolfileCreator 2.0

  0  0  0  0  0  0              0 V3000
M  V30 BEGIN CTAB
M  V30 COUNTS 37 41 0 0 0
M  V30 BEGIN ATOM
M  V30 1 Cl 0.0 0.0 0.0 0
M  V30 2 C -0.3187 -1.4518 0.0 0
M  V30 3 C 0.7908 -2.4315 0.0 0
M  V30 4 C -1.7587 -1.9122 0.0 0
M  V30 5 C 0.4721 -3.8834 0.0 0
M  V30 6 C -2.0774 -3.364 0.0 0
M  V30 7 C 1.7115 -4.6861 0.0 0
M  V30 8 C -0.9679 -4.3437 0.0 0
M  V30 9 N 1.8413 -6.1615 0.0 0
M  V30 10 C 2.9863 -3.8952 0.0 0
M  V30 11 C -1.499 -5.7366 0.0 0
M  V30 12 C 0.7554 -7.1885 0.0 0
M  V30 13 C 4.2847 -4.6034 0.0 0
M  V30 14 C 2.9391 -2.3843 0.0 0
M  V30 15 N -3.0099 -5.7602 0.0 0
M  V30 16 C -0.7318 -7.0114 0.0 0
M  V30 17 F 4.3083 -6.0907 0.0 0
M  V30 18 C 5.5595 -3.8126 0.0 0
M  V30 19 O 1.6171 -1.6525 0.0 0
M  V30 20 C 4.2139 -1.5935 0.0 0
M  V30 21 C -3.7417 -7.0586 0.0 0
M  V30 22 C -1.4636 -8.3098 0.0 0
M  V30 23 C 5.5123 -2.3017 0.0 0
M  V30 24 C 1.5699 -0.1416 0.0 0
M  V30 25 N -2.9745 -8.3334 0.0 0
M  V30 26 N -5.2526 -7.0822 0.0 0
M  V30 27 C -6.0435 -5.7838 0.0 0
M  V30 28 C -5.3353 -4.4618 0.0 0
M  V30 29 C -7.5544 -5.8074 0.0 0
M  V30 30 C -6.1261 -3.1634 0.0 0
M  V30 31 C -8.3452 -4.509 0.0 0
M  V30 32 O -5.4179 -1.8413 0.0 0
M  V30 33 C -7.637 -3.187 0.0 0
M  V30 34 C -6.2087 -0.5429 0.0 0
M  V30 35 C -8.4279 -1.8886 0.0 0
M  V30 36 O -7.7196 -0.5665 0.0 0
M  V30 37 O -9.9387 -1.9122 0.0 0
M  V30 END ATOM
M  V30 BEGIN BOND
M  V30 1 1 1 2
M  V30 2 2 2 3
M  V30 3 1 2 4
M  V30 4 1 3 5
M  V30 5 2 4 6
M  V30 6 1 5 7
M  V30 7 2 5 8
M  V30 8 2 7 9
M  V30 9 1 7 10
M  V30 10 1 8 11
M  V30 11 1 9 12
M  V30 12 2 10 13
M  V30 13 1 10 14
M  V30 14 2 11 15
M  V30 15 1 11 16
M  V30 16 1 13 17
M  V30 17 1 13 18
M  V30 18 1 14 19
M  V30 19 2 14 20
M  V30 20 1 15 21
M  V30 21 2 16 22
M  V30 22 2 18 23
M  V30 23 1 19 24
M  V30 24 2 21 25
M  V30 25 1 21 26
M  V30 26 1 26 27
M  V30 27 2 27 28
M  V30 28 1 27 29
M  V30 29 1 28 30
M  V30 30 2 29 31
M  V30 31 1 30 32
M  V30 32 2 30 33
M  V30 33 1 32 34
M  V30 34 1 33 35
M  V30 35 2 35 36
M  V30 36 1 35 37
M  V30 37 1 6 8
M  V30 38 1 12 16
M  V30 39 1 20 23
M  V30 40 1 22 25
M  V30 41 1 31 33
M  V30 END BOND
M  V30 END CTAB
M  END
>  <Compound ID>
239

>  <Name>
Alisertib

>  <Uniprot>
Q96GD4

>  <Target>
AURKB

>  <Smiles>
COC1=CC(NC2=NC=C3CN=C(C4=C(F)C=CC=C4OC)C4=CC(Cl)=CC=C4C3=N2)=CC=C1C(=O)O

>  <Kd (nM)>


>  <Assay (Kd)>


>  <Ki (nM)>


>  <Assay (Ki)>


>  <IC50 (nM)>
>200

>  <Assay (IC50)>
Inhibition of AURKB

>  <EC50 (nM)>


>  <Assay (EC50)>


>  <Article DOI>
10.1021/jm501326k

>  <Molecular Weight>
518.932

>  <Exact Mass>
518.11571102

>  <XLogP3>
5.02

>  <Heavy Atom Count>
37

>  <Ring Count>
5

>  <Hydrogen Bond Acceptor Count>
7

>  <Hydrogen Bond Donor Count>
2

>  <Rotatable Bond Count>
6

>  <Topological Polar Surface Area>
105.93

>  <Molecular Formula>
C27H20ClFN4O4

>  <InChI>
InChI=1S/C27H20ClFN4O4/c1-36-21-5-3-4-20(29)23(21)25-19-10-15(28)6-8-17(19)24-14(12-30-25)13-31-27(33-24)32-16-7-9-18(26(34)35)22(11-16)37-2/h3-11,13H,12H2,1-2H3,(H,34,35)(H,31,32,33)

>  <InChI Key>
ZLHFILGSQDJULK-UHFFFAOYSA-N

>  <BindingDB>
50277545

>  <PubChem>
24771867

>  <ChEMBL>
CHEMBL483158

$$$$
Compound 883
Actelion Java MolfileCreator 2.0

  0  0  0  0  0  0              0 V3000
M  V30 BEGIN CTAB
M  V30 COUNTS 28 31 0 0 0
M  V30 BEGIN ATOM
M  V30 1 O 0.0 0.0 0.0 0
M  V30 2 C 0.3515 1.4649 0.0 0
M  V30 3 N 1.7814 1.8986 0.0 0
M  V30 4 C -0.75 2.5197 0.0 0
M  V30 5 C 2.133 3.3635 0.0 0
M  V30 6 C 2.8596 0.8672 0.0 0
M  V30 7 O -0.5625 4.0199 0.0 0
M  V30 8 C -2.2384 2.2619 0.0 0
M  V30 9 C 3.5628 3.7972 0.0 0
M  V30 10 C 4.2894 1.3009 0.0 0
M  V30 11 C -1.922 4.6879 0.0 0
M  V30 12 C -2.9651 3.5979 0.0 0
M  V30 13 N 4.6293 2.7658 0.0 0
M  V30 14 C 6.0591 3.1995 0.0 0
M  V30 15 N 6.4107 4.6644 0.0 0
M  V30 16 N 7.1373 2.1681 0.0 0
M  V30 17 C 7.8405 5.0981 0.0 0
M  V30 18 C 8.5672 2.6018 0.0 0
M  V30 19 N 8.1921 6.5631 0.0 0
M  V30 20 C 8.9188 4.0667 0.0 0
M  V30 21 C 9.6454 1.5704 0.0 0
M  V30 22 C 10.3486 4.5004 0.0 0
M  V30 23 C 11.0752 2.004 0.0 0
M  V30 24 C 11.4268 3.469 0.0 0
M  V30 25 O 12.1534 0.9727 0.0 0
M  V30 26 O 12.8566 3.9027 0.0 0
M  V30 27 C 11.7784 -0.4687 0.0 0
M  V30 28 C 13.9348 2.8713 0.0 0
M  V30 END ATOM
M  V30 BEGIN BOND
M  V30 1 2 1 2
M  V30 2 1 2 3
M  V30 3 1 2 4
M  V30 4 1 3 5
M  V30 5 1 3 6
M  V30 6 1 4 7
M  V30 7 2 4 8
M  V30 8 1 5 9
M  V30 9 1 6 10
M  V30 10 1 7 11
M  V30 11 1 8 12
M  V30 12 1 9 13
M  V30 13 1 13 14
M  V30 14 1 14 15
M  V30 15 2 14 16
M  V30 16 2 15 17
M  V30 17 1 16 18
M  V30 18 1 17 19
M  V30 19 1 17 20
M  V30 20 2 18 21
M  V30 21 2 20 22
M  V30 22 1 21 23
M  V30 23 1 22 24
M  V30 24 1 23 25
M  V30 25 1 24 26
M  V30 26 1 25 27
M  V30 27 1 26 28
M  V30 28 1 10 13
M  V30 29 2 11 12
M  V30 30 1 18 20
M  V30 31 2 23 24
M  V30 END BOND
M  V30 END CTAB
M  END
>  <Compound ID>
240

>  <Name>
Prazosin

>  <Uniprot>
P35348

>  <Target>
ADRA1A

>  <Smiles>
COC1=CC2=NC(N3CCN(C(=O)C4=CC=CO4)CC3)=NC(N)=C2C=C1OC

>  <Kd (nM)>


>  <Assay (Kd)>


>  <Ki (nM)>
0.04

>  <Assay (Ki)>
Displacement of [3H]prazosin from human recombinant ADRA1A expressed in CHO cells

>  <IC50 (nM)>


>  <Assay (IC50)>


>  <EC50 (nM)>


>  <Assay (EC50)>


>  <Article DOI>
10.1021/jm401895u

>  <Molecular Weight>
383.408

>  <Exact Mass>
383.159354152

>  <XLogP3>
1.91

>  <Heavy Atom Count>
28

>  <Ring Count>
4

>  <Hydrogen Bond Acceptor Count>
8

>  <Hydrogen Bond Donor Count>
1

>  <Rotatable Bond Count>
4

>  <Topological Polar Surface Area>
106.95

>  <Molecular Formula>
C19H21N5O4

>  <InChI>
InChI=1S/C19H21N5O4/c1-26-15-10-12-13(11-16(15)27-2)21-19(22-17(12)20)24-7-5-23(6-8-24)18(25)14-4-3-9-28-14/h3-4,9-11H,5-8H2,1-2H3,(H2,20,21,22)

>  <InChI Key>
IENZQIKPVFGBNW-UHFFFAOYSA-N

>  <BindingDB>
29568

>  <PubChem>
4893

>  <ChEMBL>
CHEMBL2

$$$$
Compound 884
Actelion Java MolfileCreator 2.0

  0  0  0  0  0  0              0 V3000
M  V30 BEGIN CTAB
M  V30 COUNTS 32 36 0 0 0
M  V30 BEGIN ATOM
M  V30 1 S 0.0 0.0 0.0 0
M  V30 2 O -1.1962 -0.9265 0.0 0
M  V30 3 O 1.1728 0.9499 0.0 0
M  V30 4 C 0.9265 -1.1728 0.0 0
M  V30 5 C -0.9499 1.1962 0.0 0
M  V30 6 C 2.4043 -0.9382 0.0 0
M  V30 7 C 0.3635 -2.5567 0.0 0
M  V30 8 C 3.3308 -2.111 0.0 0
M  V30 9 C 1.2901 -3.7296 0.0 0
M  V30 10 C 2.7678 -3.495 0.0 0
M  V30 11 C 3.6944 -4.6678 0.0 0
M  V30 12 C 5.1721 -4.4333 0.0 0
M  V30 13 C 3.1314 -6.0518 0.0 0
M  V30 14 N 5.9931 -3.1666 0.0 0
M  V30 15 N 6.0987 -5.6061 0.0 0
M  V30 16 C 4.0579 -7.2246 0.0 0
M  V30 17 C 7.4357 -3.5536 0.0 0
M  V30 18 N 7.4943 -5.0666 0.0 0
M  V30 19 C 5.5357 -6.99 0.0 0
M  V30 20 N 8.6085 -2.6036 0.0 0
M  V30 21 C 9.9925 -3.1431 0.0 0
M  V30 22 C 11.1653 -2.1931 0.0 0
M  V30 23 C 10.2036 -4.6209 0.0 0
M  V30 24 C 12.5493 -2.7326 0.0 0
M  V30 25 C 11.5875 -5.1604 0.0 0
M  V30 26 N 13.7221 -1.7827 0.0 0
M  V30 27 C 12.7604 -4.2104 0.0 0
M  V30 28 C 15.106 -2.3222 0.0 0
M  V30 29 C 13.4875 -0.2814 0.0 0
M  V30 30 C 16.2789 -1.3722 0.0 0
M  V30 31 C 14.6604 0.6685 0.0 0
M  V30 32 N 16.0443 0.129 0.0 0
M  V30 END ATOM
M  V30 BEGIN BOND
M  V30 1 2 1 2
M  V30 2 2 1 3
M  V30 3 1 1 4
M  V30 4 1 1 5
M  V30 5 2 4 6
M  V30 6 1 4 7
M  V30 7 1 6 8
M  V30 8 2 7 9
M  V30 9 2 8 10
M  V30 10 1 10 11
M  V30 11 1 11 12
M  V30 12 2 11 13
M  V30 13 2 12 14
M  V30 14 1 12 15
M  V30 15 1 13 16
M  V30 16 1 14 17
M  V30 17 1 15 18
M  V30 18 1 15 19
M  V30 19 1 17 20
M  V30 20 1 20 21
M  V30 21 2 21 22
M  V30 22 1 21 23
M  V30 23 1 22 24
M  V30 24 2 23 25
M  V30 25 1 24 26
M  V30 26 2 24 27
M  V30 27 1 26 28
M  V30 28 1 26 29
M  V30 29 1 28 30
M  V30 30 1 29 31
M  V30 31 1 30 32
M  V30 32 1 9 10
M  V30 33 2 16 19
M  V30 34 2 17 18
M  V30 35 1 25 27
M  V30 36 1 31 32
M  V30 END BOND
M  V30 END CTAB
M  END
>  <Compound ID>
241

>  <Name>


>  <Uniprot>
Q2M2I8

>  <Target>
AAK1

>  <Smiles>
CS(=O)(=O)C1=CC=C(C2=CC=CN3N=C(NC4=CC=CC(N5CCNCC5)=C4)N=C23)C=C1

>  <Kd (nM)>


>  <Assay (Kd)>


>  <Ki (nM)>


>  <Assay (Ki)>


>  <IC50 (nM)>


>  <Assay (IC50)>


>  <EC50 (nM)>


>  <Assay (EC50)>


>  <Article DOI>
10.1016/j.cell.2020.10.038

>  <Molecular Weight>
448.552

>  <Exact Mass>
448.168145008

>  <XLogP3>
2.95

>  <Heavy Atom Count>
32

>  <Ring Count>
5

>  <Hydrogen Bond Acceptor Count>
8

>  <Hydrogen Bond Donor Count>
2

>  <Rotatable Bond Count>
5

>  <Topological Polar Surface Area>
91.63

>  <Molecular Formula>
C23H24N6O2S

>  <InChI>
InChI=1S/C23H24N6O2S/c1-32(30,31)20-9-7-17(8-10-20)21-6-3-13-29-22(21)26-23(27-29)25-18-4-2-5-19(16-18)28-14-11-24-12-15-28/h2-10,13,16,24H,11-12,14-15H2,1H3,(H,25,27)

>  <InChI Key>
QZQNIZMXGYSGDX-UHFFFAOYSA-N

>  <BindingDB>
99680

>  <PubChem>
59612339

>  <ChEMBL>
CHEMBL3642402

$$$$
Compound 885
Actelion Java MolfileCreator 2.0

  0  0  0  0  0  0              0 V3000
M  V30 BEGIN CTAB
M  V30 COUNTS 32 36 0 0 0
M  V30 BEGIN ATOM
M  V30 1 S 0.0 0.0 0.0 0
M  V30 2 O -1.1962 -0.9265 0.0 0
M  V30 3 O 1.1728 0.9499 0.0 0
M  V30 4 C 0.9265 -1.1728 0.0 0
M  V30 5 C -0.9499 1.1962 0.0 0
M  V30 6 C 2.4043 -0.9382 0.0 0
M  V30 7 C 0.3635 -2.5567 0.0 0
M  V30 8 C 3.3308 -2.111 0.0 0
M  V30 9 C 1.2901 -3.7296 0.0 0
M  V30 10 C 2.7678 -3.495 0.0 0
M  V30 11 C 3.6944 -4.6678 0.0 0
M  V30 12 C 5.1721 -4.4333 0.0 0
M  V30 13 C 3.1314 -6.0518 0.0 0
M  V30 14 N 5.9931 -3.1666 0.0 0
M  V30 15 N 6.0987 -5.6061 0.0 0
M  V30 16 C 4.0579 -7.2246 0.0 0
M  V30 17 C 7.4357 -3.5536 0.0 0
M  V30 18 N 7.4943 -5.0666 0.0 0
M  V30 19 C 5.5357 -6.99 0.0 0
M  V30 20 N 8.6085 -2.6036 0.0 0
M  V30 21 C 9.9925 -3.1431 0.0 0
M  V30 22 C 11.1653 -2.1931 0.0 0
M  V30 23 C 10.2036 -4.6209 0.0 0
M  V30 24 C 12.5493 -2.7326 0.0 0
M  V30 25 C 11.5875 -5.1604 0.0 0
M  V30 26 N 13.7221 -1.7827 0.0 0
M  V30 27 C 12.7604 -4.2104 0.0 0
M  V30 28 C 15.106 -2.3222 0.0 0
M  V30 29 C 13.4875 -0.2814 0.0 0
M  V30 30 C 16.2789 -1.3722 0.0 0
M  V30 31 C 14.6604 0.6685 0.0 0
M  V30 32 N 16.0443 0.129 0.0 0
M  V30 END ATOM
M  V30 BEGIN BOND
M  V30 1 2 1 2
M  V30 2 2 1 3
M  V30 3 1 1 4
M  V30 4 1 1 5
M  V30 5 2 4 6
M  V30 6 1 4 7
M  V30 7 1 6 8
M  V30 8 2 7 9
M  V30 9 2 8 10
M  V30 10 1 10 11
M  V30 11 1 11 12
M  V30 12 2 11 13
M  V30 13 2 12 14
M  V30 14 1 12 15
M  V30 15 1 13 16
M  V30 16 1 14 17
M  V30 17 1 15 18
M  V30 18 1 15 19
M  V30 19 1 17 20
M  V30 20 1 20 21
M  V30 21 2 21 22
M  V30 22 1 21 23
M  V30 23 1 22 24
M  V30 24 2 23 25
M  V30 25 1 24 26
M  V30 26 2 24 27
M  V30 27 1 26 28
M  V30 28 1 26 29
M  V30 29 1 28 30
M  V30 30 1 29 31
M  V30 31 1 30 32
M  V30 32 1 9 10
M  V30 33 2 16 19
M  V30 34 2 17 18
M  V30 35 1 25 27
M  V30 36 1 31 32
M  V30 END BOND
M  V30 END CTAB
M  END
>  <Compound ID>
241

>  <Name>


>  <Uniprot>
O14965

>  <Target>
AURKA

>  <Smiles>
CS(=O)(=O)C1=CC=C(C2=CC=CN3N=C(NC4=CC=CC(N5CCNCC5)=C4)N=C23)C=C1

>  <Kd (nM)>


>  <Assay (Kd)>


>  <Ki (nM)>


>  <Assay (Ki)>


>  <IC50 (nM)>


>  <Assay (IC50)>


>  <EC50 (nM)>


>  <Assay (EC50)>


>  <Article DOI>
10.1016/j.cell.2020.10.038

>  <Molecular Weight>
448.552

>  <Exact Mass>
448.168145008

>  <XLogP3>
2.95

>  <Heavy Atom Count>
32

>  <Ring Count>
5

>  <Hydrogen Bond Acceptor Count>
8

>  <Hydrogen Bond Donor Count>
2

>  <Rotatable Bond Count>
5

>  <Topological Polar Surface Area>
91.63

>  <Molecular Formula>
C23H24N6O2S

>  <InChI>
InChI=1S/C23H24N6O2S/c1-32(30,31)20-9-7-17(8-10-20)21-6-3-13-29-22(21)26-23(27-29)25-18-4-2-5-19(16-18)28-14-11-24-12-15-28/h2-10,13,16,24H,11-12,14-15H2,1H3,(H,25,27)

>  <InChI Key>
QZQNIZMXGYSGDX-UHFFFAOYSA-N

>  <BindingDB>
99680

>  <PubChem>
59612339

>  <ChEMBL>
CHEMBL3642402

$$$$
Compound 886
Actelion Java MolfileCreator 2.0

  0  0  0  0  0  0              0 V3000
M  V30 BEGIN CTAB
M  V30 COUNTS 32 36 0 0 0
M  V30 BEGIN ATOM
M  V30 1 S 0.0 0.0 0.0 0
M  V30 2 O -1.1962 -0.9265 0.0 0
M  V30 3 O 1.1728 0.9499 0.0 0
M  V30 4 C 0.9265 -1.1728 0.0 0
M  V30 5 C -0.9499 1.1962 0.0 0
M  V30 6 C 2.4043 -0.9382 0.0 0
M  V30 7 C 0.3635 -2.5567 0.0 0
M  V30 8 C 3.3308 -2.111 0.0 0
M  V30 9 C 1.2901 -3.7296 0.0 0
M  V30 10 C 2.7678 -3.495 0.0 0
M  V30 11 C 3.6944 -4.6678 0.0 0
M  V30 12 C 5.1721 -4.4333 0.0 0
M  V30 13 C 3.1314 -6.0518 0.0 0
M  V30 14 N 5.9931 -3.1666 0.0 0
M  V30 15 N 6.0987 -5.6061 0.0 0
M  V30 16 C 4.0579 -7.2246 0.0 0
M  V30 17 C 7.4357 -3.5536 0.0 0
M  V30 18 N 7.4943 -5.0666 0.0 0
M  V30 19 C 5.5357 -6.99 0.0 0
M  V30 20 N 8.6085 -2.6036 0.0 0
M  V30 21 C 9.9925 -3.1431 0.0 0
M  V30 22 C 11.1653 -2.1931 0.0 0
M  V30 23 C 10.2036 -4.6209 0.0 0
M  V30 24 C 12.5493 -2.7326 0.0 0
M  V30 25 C 11.5875 -5.1604 0.0 0
M  V30 26 N 13.7221 -1.7827 0.0 0
M  V30 27 C 12.7604 -4.2104 0.0 0
M  V30 28 C 15.106 -2.3222 0.0 0
M  V30 29 C 13.4875 -0.2814 0.0 0
M  V30 30 C 16.2789 -1.3722 0.0 0
M  V30 31 C 14.6604 0.6685 0.0 0
M  V30 32 N 16.0443 0.129 0.0 0
M  V30 END ATOM
M  V30 BEGIN BOND
M  V30 1 2 1 2
M  V30 2 2 1 3
M  V30 3 1 1 4
M  V30 4 1 1 5
M  V30 5 2 4 6
M  V30 6 1 4 7
M  V30 7 1 6 8
M  V30 8 2 7 9
M  V30 9 2 8 10
M  V30 10 1 10 11
M  V30 11 1 11 12
M  V30 12 2 11 13
M  V30 13 2 12 14
M  V30 14 1 12 15
M  V30 15 1 13 16
M  V30 16 1 14 17
M  V30 17 1 15 18
M  V30 18 1 15 19
M  V30 19 1 17 20
M  V30 20 1 20 21
M  V30 21 2 21 22
M  V30 22 1 21 23
M  V30 23 1 22 24
M  V30 24 2 23 25
M  V30 25 1 24 26
M  V30 26 2 24 27
M  V30 27 1 26 28
M  V30 28 1 26 29
M  V30 29 1 28 30
M  V30 30 1 29 31
M  V30 31 1 30 32
M  V30 32 1 9 10
M  V30 33 2 16 19
M  V30 34 2 17 18
M  V30 35 1 25 27
M  V30 36 1 31 32
M  V30 END BOND
M  V30 END CTAB
M  END
>  <Compound ID>
241

>  <Name>


>  <Uniprot>
O60674

>  <Target>
JAK2

>  <Smiles>
CS(=O)(=O)C1=CC=C(C2=CC=CN3N=C(NC4=CC=CC(N5CCNCC5)=C4)N=C23)C=C1

>  <Kd (nM)>


>  <Assay (Kd)>


>  <Ki (nM)>


>  <Assay (Ki)>


>  <IC50 (nM)>
0.97

>  <Assay (IC50)>
Inhibition of JAK2

>  <EC50 (nM)>


>  <Assay (EC50)>


>  <Article DOI>


>  <Molecular Weight>
448.552

>  <Exact Mass>
448.168145008

>  <XLogP3>
2.95

>  <Heavy Atom Count>
32

>  <Ring Count>
5

>  <Hydrogen Bond Acceptor Count>
8

>  <Hydrogen Bond Donor Count>
2

>  <Rotatable Bond Count>
5

>  <Topological Polar Surface Area>
91.63

>  <Molecular Formula>
C23H24N6O2S

>  <InChI>
InChI=1S/C23H24N6O2S/c1-32(30,31)20-9-7-17(8-10-20)21-6-3-13-29-22(21)26-23(27-29)25-18-4-2-5-19(16-18)28-14-11-24-12-15-28/h2-10,13,16,24H,11-12,14-15H2,1H3,(H,25,27)

>  <InChI Key>
QZQNIZMXGYSGDX-UHFFFAOYSA-N

>  <BindingDB>
99680

>  <PubChem>
59612339

>  <ChEMBL>
CHEMBL3642402

$$$$
Compound 887
Actelion Java MolfileCreator 2.0

  0  0  0  0  0  0              0 V3000
M  V30 BEGIN CTAB
M  V30 COUNTS 32 34 0 0 0
M  V30 BEGIN ATOM
M  V30 1 S 0.0 0.0 0.0 0
M  V30 2 O 1.4194 0.4616 0.0 0
M  V30 3 O -1.4425 -0.4385 0.0 0
M  V30 4 C -0.4616 1.4425 0.0 0
M  V30 5 C 0.4385 -1.4194 0.0 0
M  V30 6 C 0.5423 2.5619 0.0 0
M  V30 7 C -1.9387 1.7771 0.0 0
M  V30 8 C 0.0807 4.0044 0.0 0
M  V30 9 C -2.4003 3.2197 0.0 0
M  V30 10 C -1.3963 4.3391 0.0 0
M  V30 11 C 1.0847 5.1238 0.0 0
M  V30 12 N 2.5388 4.8122 0.0 0
M  V30 13 C 3.5428 5.9316 0.0 0
M  V30 14 N 4.9969 5.62 0.0 0
M  V30 15 C 3.0812 7.3741 0.0 0
M  V30 16 C 6.0009 6.7394 0.0 0
M  V30 17 C 4.0852 8.4935 0.0 0
M  V30 18 C 1.604 7.7088 0.0 0
M  V30 19 N 5.5393 8.182 0.0 0
M  V30 20 N 7.4549 6.4279 0.0 0
M  V30 21 F 0.1269 8.0435 0.0 0
M  V30 22 F 1.9156 9.186 0.0 0
M  V30 23 F 1.2694 6.2547 0.0 0
M  V30 24 C 7.8935 5.0084 0.0 0
M  V30 25 C 6.8664 3.9121 0.0 0
M  V30 26 C 9.3475 4.6968 0.0 0
M  V30 27 C 7.3049 2.4926 0.0 0
M  V30 28 C 9.7861 3.2774 0.0 0
M  V30 29 C 8.759 2.1811 0.0 0
M  V30 30 C 9.1975 0.7616 0.0 0
M  V30 31 O 10.6516 0.45 0.0 0
M  V30 32 N 8.1704 -0.3346 0.0 0
M  V30 END ATOM
M  V30 BEGIN BOND
M  V30 1 2 1 2
M  V30 2 2 1 3
M  V30 3 1 1 4
M  V30 4 1 1 5
M  V30 5 2 4 6
M  V30 6 1 4 7
M  V30 7 1 6 8
M  V30 8 2 7 9
M  V30 9 2 8 10
M  V30 10 1 8 11
M  V30 11 1 11 12
M  V30 12 1 12 13
M  V30 13 2 13 14
M  V30 14 1 13 15
M  V30 15 1 14 16
M  V30 16 2 15 17
M  V30 17 1 15 18
M  V30 18 2 16 19
M  V30 19 1 16 20
M  V30 20 1 18 21
M  V30 21 1 18 22
M  V30 22 1 18 23
M  V30 23 1 20 24
M  V30 24 2 24 25
M  V30 25 1 24 26
M  V30 26 1 25 27
M  V30 27 2 26 28
M  V30 28 2 27 29
M  V30 29 1 29 30
M  V30 30 2 30 31
M  V30 31 1 30 32
M  V30 32 1 9 10
M  V30 33 1 17 19
M  V30 34 1 28 29
M  V30 END BOND
M  V30 END CTAB
M  END
>  <Compound ID>
242

>  <Name>


>  <Uniprot>
Q05397

>  <Target>
FAK

>  <Smiles>
CS(=O)(=O)C1=CC=CC(CNC2=NC(NC3=CC=C(C(N)=O)C=C3)=NC=C2C(F)(F)F)=C1

>  <Kd (nM)>


>  <Assay (Kd)>


>  <Ki (nM)>


>  <Assay (Ki)>


>  <IC50 (nM)>
3.56

>  <Assay (IC50)>
Inhibition of FAK

>  <EC50 (nM)>


>  <Assay (EC50)>


>  <Article DOI>


>  <Molecular Weight>
465.457

>  <Exact Mass>
465.108245096

>  <XLogP3>
2.89

>  <Heavy Atom Count>
32

>  <Ring Count>
3

>  <Hydrogen Bond Acceptor Count>
7

>  <Hydrogen Bond Donor Count>
3

>  <Rotatable Bond Count>
7

>  <Topological Polar Surface Area>
127.07

>  <Molecular Formula>
C20H18F3N5O3S

>  <InChI>
InChI=1S/C20H18F3N5O3S/c1-32(30,31)15-4-2-3-12(9-15)10-25-18-16(20(21,22)23)11-26-19(28-18)27-14-7-5-13(6-8-14)17(24)29/h2-9,11H,10H2,1H3,(H2,24,29)(H2,25,26,27,28)

>  <InChI Key>
HESLPWPFBZVCFH-UHFFFAOYSA-N

>  <BindingDB>
418581

>  <PubChem>
57584452

>  <ChEMBL>


$$$$
Compound 888
Actelion Java MolfileCreator 2.0

  0  0  0  0  0  0              0 V3000
M  V30 BEGIN CTAB
M  V30 COUNTS 36 40 0 0 0
M  V30 BEGIN ATOM
M  V30 1 S 0.0 0.0 0.0 0
M  V30 2 O -0.6259 -1.3581 0.0 0
M  V30 3 O 0.6023 1.3817 0.0 0
M  V30 4 C 1.3581 -0.6023 0.0 0
M  V30 5 C -1.3817 0.6259 0.0 0
M  V30 6 C 1.4998 -2.0903 0.0 0
M  V30 7 C 2.858 -2.6926 0.0 0
M  V30 8 C 0.2716 -2.9524 0.0 0
M  V30 9 C 4.0626 -1.8069 0.0 0
M  V30 10 C 2.9997 -4.1807 0.0 0
M  V30 11 C 0.4133 -4.4405 0.0 0
M  V30 12 O 3.8972 -0.2952 0.0 0
M  V30 13 N 5.4207 -2.4092 0.0 0
M  V30 14 C 1.7714 -5.0428 0.0 0
M  V30 15 C -0.9329 -5.1137 0.0 0
M  V30 16 C 6.6253 -1.5234 0.0 0
M  V30 17 N 2.1375 -6.4836 0.0 0
M  V30 18 C -1.24 -6.5781 0.0 0
M  V30 19 C -2.1257 -4.1807 0.0 0
M  V30 20 C 3.602 -6.767 0.0 0
M  V30 21 C 1.2164 -7.6764 0.0 0
M  V30 22 C -2.6454 -7.1332 0.0 0
M  V30 23 C -0.2834 -7.7118 0.0 0
M  V30 24 N -3.5429 -4.6885 0.0 0
M  V30 25 N 4.0744 -8.1842 0.0 0
M  V30 26 C 4.5822 -5.6215 0.0 0
M  V30 27 N -2.5509 -8.6212 0.0 0
M  V30 28 C -3.8146 -6.1647 0.0 0
M  V30 29 C -1.0865 -8.9755 0.0 0
M  V30 30 C -4.7121 -3.7201 0.0 0
M  V30 31 C 5.5388 -8.4677 0.0 0
M  V30 32 F 4.0862 -4.1807 0.0 0
M  V30 33 C 6.0466 -5.9049 0.0 0
M  V30 34 O -5.2318 -6.6726 0.0 0
M  V30 35 C 6.519 -7.3221 0.0 0
M  V30 36 F 7.9835 -7.6055 0.0 0
M  V30 END ATOM
M  V30 BEGIN BOND
M  V30 1 2 1 2
M  V30 2 2 1 3
M  V30 3 1 1 4
M  V30 4 1 1 5
M  V30 5 1 4 6
M  V30 6 2 6 7
M  V30 7 1 6 8
M  V30 8 1 7 9
M  V30 9 1 7 10
M  V30 10 2 8 11
M  V30 11 2 9 12
M  V30 12 1 9 13
M  V30 13 2 10 14
M  V30 14 1 11 15
M  V30 15 1 13 16
M  V30 16 1 14 17
M  V30 17 1 15 18
M  V30 18 2 15 19
M  V30 19 1 17 20
M  V30 20 1 17 21
M  V30 21 2 18 22
M  V30 22 1 18 23
M  V30 23 1 19 24
M  V30 24 2 20 25
M  V30 25 1 20 26
M  V30 26 1 22 27
M  V30 27 1 22 28
M  V30 28 2 23 29
M  V30 29 1 24 30
M  V30 30 1 25 31
M  V30 31 1 26 32
M  V30 32 2 26 33
M  V30 33 2 28 34
M  V30 34 2 31 35
M  V30 35 1 35 36
M  V30 36 1 11 14
M  V30 37 1 21 23
M  V30 38 1 24 28
M  V30 39 1 27 29
M  V30 40 1 33 35
M  V30 END BOND
M  V30 END CTAB
M  END
>  <Compound ID>
243

>  <Name>


>  <Uniprot>
O60885

>  <Target>
BRD4

>  <Smiles>
CNC(=O)C1=CC2=C(C=C1CS(C)(=O)=O)C1=CN(C)C(=O)C3=C1C(=C[NH]3)CN2C1=NC=C(F)C=C1F

>  <Kd (nM)>


>  <Assay (Kd)>


>  <Ki (nM)>


>  <Assay (Ki)>


>  <IC50 (nM)>
1.7/1.7

>  <Assay (IC50)>
IC50 of BRD4 BD1/BD2 was tested by TR-FRET

>  <EC50 (nM)>


>  <Assay (EC50)>


>  <Article DOI>
10.1021/acs.jmedchem.0c01846

>  <Molecular Weight>
513.526

>  <Exact Mass>
513.128231592

>  <XLogP3>
0.99

>  <Heavy Atom Count>
36

>  <Ring Count>
5

>  <Hydrogen Bond Acceptor Count>
7

>  <Hydrogen Bond Donor Count>
2

>  <Rotatable Bond Count>
4

>  <Topological Polar Surface Area>
117.16

>  <Molecular Formula>
C24H21F2N5O4S

>  <InChI>
InChI=1S/C24H21F2N5O4S/c1-27-23(32)15-6-19-16(4-12(15)11-36(3,34)35)17-10-30(2)24(33)21-20(17)13(7-28-21)9-31(19)22-18(26)5-14(25)8-29-22/h4-8,10,28H,9,11H2,1-3H3,(H,27,32)

>  <InChI Key>
KGTUURPJIKQHBX-UHFFFAOYSA-N

>  <BindingDB>


>  <PubChem>


>  <ChEMBL>


$$$$
Compound 889
Actelion Java MolfileCreator 2.0

  0  0  0  0  0  0              0 V3000
M  V30 BEGIN CTAB
M  V30 COUNTS 27 29 0 0 0
M  V30 BEGIN ATOM
M  V30 1 S 0.0 0.0 0.0 0
M  V30 2 O 1.0592 -1.0357 0.0 0
M  V30 3 O -1.0828 1.0592 0.0 0
M  V30 4 N 1.0357 1.0828 0.0 0
M  V30 5 C -1.0592 -1.0592 0.0 0
M  V30 6 C -0.6708 -2.4951 0.0 0
M  V30 7 C -2.5187 -0.6708 0.0 0
M  V30 8 C -1.7301 -3.5544 0.0 0
M  V30 9 C -3.5779 -1.7301 0.0 0
M  V30 10 C -3.1895 -3.166 0.0 0
M  V30 11 N -4.2488 -4.2253 0.0 0
M  V30 12 C -5.7083 -3.8369 0.0 0
M  V30 13 N -6.2732 -2.4363 0.0 0
M  V30 14 N -6.8735 -4.7785 0.0 0
M  V30 15 N -7.7797 -2.5187 0.0 0
M  V30 16 C -8.1446 -3.9663 0.0 0
M  V30 17 C -8.7449 -1.3535 0.0 0
M  V30 18 N -9.5452 -4.5078 0.0 0
M  V30 19 O -10.2278 -1.5889 0.0 0
M  V30 20 C -8.2388 0.0588 0.0 0
M  V30 21 C -6.7793 0.3177 0.0 0
M  V30 22 C -9.2039 1.224 0.0 0
M  V30 23 F -5.8377 -0.8238 0.0 0
M  V30 24 C -6.2732 1.7301 0.0 0
M  V30 25 F -10.6869 0.9886 0.0 0
M  V30 26 C -8.6978 2.6364 0.0 0
M  V30 27 C -7.2383 2.8953 0.0 0
M  V30 END ATOM
M  V30 BEGIN BOND
M  V30 1 2 1 2
M  V30 2 2 1 3
M  V30 3 1 1 4
M  V30 4 1 1 5
M  V30 5 2 5 6
M  V30 6 1 5 7
M  V30 7 1 6 8
M  V30 8 2 7 9
M  V30 9 2 8 10
M  V30 10 1 10 11
M  V30 11 1 11 12
M  V30 12 2 12 13
M  V30 13 1 12 14
M  V30 14 1 13 15
M  V30 15 2 14 16
M  V30 16 1 15 17
M  V30 17 1 16 18
M  V30 18 2 17 19
M  V30 19 1 17 20
M  V30 20 2 20 21
M  V30 21 1 20 22
M  V30 22 1 21 23
M  V30 23 1 21 24
M  V30 24 1 22 25
M  V30 25 2 22 26
M  V30 26 2 24 27
M  V30 27 1 9 10
M  V30 28 1 15 16
M  V30 29 1 26 27
M  V30 END BOND
M  V30 END CTAB
M  END
>  <Compound ID>
244

>  <Name>
JNJ-7706621

>  <Uniprot>
P24941

>  <Target>
CDK2

>  <Smiles>
NC1=NC(NC2=CC=C(S(N)(=O)=O)C=C2)=NN1C(=O)C1=C(F)C=CC=C1F

>  <Kd (nM)>


>  <Assay (Kd)>


>  <Ki (nM)>


>  <Assay (Ki)>


>  <IC50 (nM)>
2

>  <Assay (IC50)>
IC50 was assessed by RET Kinase Enzymatic Assay

>  <EC50 (nM)>


>  <Assay (EC50)>


>  <Article DOI>
10.1021/jm050267e

>  <Molecular Weight>
394.363

>  <Exact Mass>
394.065965684

>  <XLogP3>
2.39

>  <Heavy Atom Count>
27

>  <Ring Count>
3

>  <Hydrogen Bond Acceptor Count>
8

>  <Hydrogen Bond Donor Count>
3

>  <Rotatable Bond Count>
4

>  <Topological Polar Surface Area>
145.99

>  <Molecular Formula>
C15H12F2N6O3S

>  <InChI>
InChI=1S/C15H12F2N6O3S/c16-10-2-1-3-11(17)12(10)13(24)23-14(18)21-15(22-23)20-8-4-6-9(7-5-8)27(19,25)26/h1-7H,(H2,19,25,26)(H3,18,20,21,22)

>  <InChI Key>
KDKUVYLMPJIGKA-UHFFFAOYSA-N

>  <BindingDB>
6866

>  <PubChem>
5330790

>  <ChEMBL>
CHEMBL191003

$$$$
Compound 890
Actelion Java MolfileCreator 2.0

  0  0  0  0  0  0              0 V3000
M  V30 BEGIN CTAB
M  V30 COUNTS 23 26 0 0 0
M  V30 BEGIN ATOM
M  V30 1 O 0.0 0.0 0.0 0
M  V30 2 C 1.475 0.236 0.0 0
M  V30 3 C -0.5546 -1.3924 0.0 0
M  V30 4 C 2.4072 -0.9204 0.0 0
M  V30 5 C 0.3776 -2.5488 0.0 0
M  V30 6 N 1.8526 -2.3128 0.0 0
M  V30 7 C 2.7848 -3.4693 0.0 0
M  V30 8 N 4.2599 -3.2333 0.0 0
M  V30 9 C 2.2302 -4.8617 0.0 0
M  V30 10 C 5.1921 -4.3897 0.0 0
M  V30 11 C 3.1624 -6.0181 0.0 0
M  V30 12 C 0.8142 -5.3809 0.0 0
M  V30 13 N 4.6375 -5.7821 0.0 0
M  V30 14 N 2.3246 -7.2572 0.0 0
M  V30 15 C -0.4484 -4.5431 0.0 0
M  V30 16 C 0.8732 -6.8678 0.0 0
M  V30 17 C -1.8054 -5.2039 0.0 0
M  V30 18 C -0.3776 -3.0326 0.0 0
M  V30 19 C -3.068 -4.3661 0.0 0
M  V30 20 C -1.6402 -2.1948 0.0 0
M  V30 21 C -4.4251 -5.0269 0.0 0
M  V30 22 C -2.9972 -2.8556 0.0 0
M  V30 23 N -5.7821 -5.6877 0.0 0
M  V30 END ATOM
M  V30 BEGIN BOND
M  V30 1 1 1 2
M  V30 2 1 1 3
M  V30 3 1 2 4
M  V30 4 1 3 5
M  V30 5 1 4 6
M  V30 6 1 6 7
M  V30 7 2 7 8
M  V30 8 1 7 9
M  V30 9 1 8 10
M  V30 10 2 9 11
M  V30 11 1 9 12
M  V30 12 2 10 13
M  V30 13 1 11 14
M  V30 14 1 12 15
M  V30 15 2 12 16
M  V30 16 2 15 17
M  V30 17 1 15 18
M  V30 18 1 17 19
M  V30 19 2 18 20
M  V30 20 1 19 21
M  V30 21 2 19 22
M  V30 22 3 21 23
M  V30 23 1 5 6
M  V30 24 1 11 13
M  V30 25 1 14 16
M  V30 26 1 20 22
M  V30 END BOND
M  V30 END CTAB
M  END
>  <Compound ID>
245

>  <Name>
PF-06447475

>  <Uniprot>
Q5S007

>  <Target>
LRRK2

>  <Smiles>
N#CC1=CC=CC(C2=C[NH]C3=NC=NC(N4CCOCC4)=C23)=C1

>  <Kd (nM)>


>  <Assay (Kd)>


>  <Ki (nM)>


>  <Assay (Ki)>


>  <IC50 (nM)>
3

>  <Assay (IC50)>
Inhibition of LRRK2

>  <EC50 (nM)>


>  <Assay (EC50)>


>  <Article DOI>
10.1021/jm5014055

>  <Molecular Weight>
305.341

>  <Exact Mass>
305.1276601

>  <XLogP3>
2.09

>  <Heavy Atom Count>
23

>  <Ring Count>
4

>  <Hydrogen Bond Acceptor Count>
5

>  <Hydrogen Bond Donor Count>
1

>  <Rotatable Bond Count>
2

>  <Topological Polar Surface Area>
77.83

>  <Molecular Formula>
C17H15N5O

>  <InChI>
InChI=1S/C17H15N5O/c18-9-12-2-1-3-13(8-12)14-10-19-16-15(14)17(21-11-20-16)22-4-6-23-7-5-22/h1-3,8,10-11H,4-7H2,(H,19,20,21)

>  <InChI Key>
BHTWDJBVZQBRKP-UHFFFAOYSA-N

>  <BindingDB>
50059277

>  <PubChem>
72706840

>  <ChEMBL>
CHEMBL3393348

$$$$
Compound 891
Actelion Java MolfileCreator 2.0

  0  0  0  0  0  0              0 V3000
M  V30 BEGIN CTAB
M  V30 COUNTS 21 23 0 0 0
M  V30 BEGIN ATOM
M  V30 1 Cl 0.0 0.0 0.0 0
M  V30 2 C -1.3422 -0.6829 0.0 0
M  V30 3 C -1.4246 -2.1664 0.0 0
M  V30 4 C -2.6138 0.1295 0.0 0
M  V30 5 C -0.1766 -2.9553 0.0 0
M  V30 6 C -2.7669 -2.8493 0.0 0
M  V30 7 C -3.9561 -0.5533 0.0 0
M  V30 8 N 1.0714 -3.7442 0.0 0
M  V30 9 C -4.0385 -2.0369 0.0 0
M  V30 10 O -5.2277 0.259 0.0 0
M  V30 11 C -6.57 -0.4238 0.0 0 CFG=1
M  V30 12 C -6.8055 -1.8956 0.0 0
M  V30 13 C -7.924 0.259 0.0 0
M  V30 14 C -8.289 -2.1311 0.0 0 CFG=1
M  V30 15 C -8.9837 -0.8006 0.0 0 CFG=2
M  V30 16 C -9.3487 -3.1908 0.0 0
M  V30 17 C -7.6061 -3.4498 0.0 0
M  V30 18 C -10.4673 -1.0361 0.0 0
M  V30 19 C -9.6902 0.5416 0.0 0
M  V30 20 C -10.7028 -2.5079 0.0 0 CFG=1
M  V30 21 N -12.045 -3.1908 0.0 0
M  V30 END ATOM
M  V30 BEGIN BOND
M  V30 1 1 1 2
M  V30 2 2 2 3
M  V30 3 1 2 4
M  V30 4 1 3 5
M  V30 5 1 3 6
M  V30 6 2 4 7
M  V30 7 3 5 8
M  V30 8 2 6 9
M  V30 9 1 7 10
M  V30 10 1 11 10 CFG=1
M  V30 11 1 11 12
M  V30 12 1 11 13
M  V30 13 1 12 14
M  V30 14 1 13 15
M  V30 15 1 14 16
M  V30 16 1 14 17 CFG=1
M  V30 17 1 15 18
M  V30 18 1 15 19 CFG=1
M  V30 19 1 16 20
M  V30 20 1 20 21 CFG=3
M  V30 21 1 7 9
M  V30 22 1 14 15
M  V30 23 1 18 20
M  V30 END BOND
M  V30 BEGIN COLLECTION
M  V30 MDLV30/STEABS ATOMS=(4 11 14 15 20)
M  V30 END COLLECTION
M  V30 END CTAB
M  END
>  <Compound ID>
246

>  <Name>


>  <Uniprot>
P10275

>  <Target>
AR

>  <Smiles>
C[C@@]12C[C@H](N)C[C@]1(C)C[C@@H](OC1=CC=C(C#N)C(Cl)=C1)C2

>  <Kd (nM)>


>  <Assay (Kd)>


>  <Ki (nM)>


>  <Assay (Ki)>


>  <IC50 (nM)>


>  <Assay (IC50)>


>  <EC50 (nM)>


>  <Assay (EC50)>


>  <Article DOI>
10.1016/j.ejmech.2021.113307

>  <Molecular Weight>
304.821

>  <Exact Mass>
304.134240972

>  <XLogP3>
3.71

>  <Heavy Atom Count>
21

>  <Ring Count>
3

>  <Hydrogen Bond Acceptor Count>
3

>  <Hydrogen Bond Donor Count>
1

>  <Rotatable Bond Count>
2

>  <Topological Polar Surface Area>
59.04

>  <Molecular Formula>
C17H21ClN2O

>  <InChI>
InChI=1S/C17H21ClN2O/c1-16-6-12(20)7-17(16,2)9-14(8-16)21-13-4-3-11(10-19)15(18)5-13/h3-5,12,14H,6-9,20H2,1-2H3/t12-,14-,16-,17+

>  <InChI Key>
RFQDHBZIHFPOPH-TXXPCCECSA-N

>  <BindingDB>


>  <PubChem>


>  <ChEMBL>


$$$$
Compound 892
Actelion Java MolfileCreator 2.0

  0  0  0  0  0  0              0 V3000
M  V30 BEGIN CTAB
M  V30 COUNTS 25 28 0 0 0
M  V30 BEGIN ATOM
M  V30 1 N 0.0 0.0 0.0 0
M  V30 2 C 1.3434 -0.642 0.0 0
M  V30 3 C 2.6869 -1.284 0.0 0
M  V30 4 C 3.9234 -0.428 0.0 0
M  V30 5 C 3.8045 1.0938 0.0 0
M  V30 6 C 5.2669 -1.07 0.0 0
M  V30 7 C 5.041 1.9498 0.0 0
M  V30 8 C 6.5034 -0.214 0.0 0
M  V30 9 C 6.3845 1.3078 0.0 0
M  V30 10 N 7.621 2.1638 0.0 0
M  V30 11 C 8.9645 1.5218 0.0 0
M  V30 12 N 10.201 2.3778 0.0 0
M  V30 13 N 9.0596 0.0237 0.0 0
M  V30 14 C 11.5445 1.7358 0.0 0
M  V30 15 C 10.4031 -0.6182 0.0 0
M  V30 16 N 12.781 2.5918 0.0 0
M  V30 17 C 11.6396 0.2377 0.0 0
M  V30 18 C 14.1245 1.9498 0.0 0
M  V30 19 N 15.4442 2.6751 0.0 0
M  V30 20 C 14.3742 0.4755 0.0 0
M  V30 21 N 16.5261 1.6407 0.0 0
M  V30 22 C 15.8603 0.2853 0.0 0
M  V30 23 C 16.5618 -1.0343 0.0 0
M  V30 24 C 17.834 -1.819 0.0 0
M  V30 25 C 16.5024 -2.5324 0.0 0
M  V30 END ATOM
M  V30 BEGIN BOND
M  V30 1 3 1 2
M  V30 2 1 2 3
M  V30 3 1 3 4
M  V30 4 2 4 5
M  V30 5 1 4 6
M  V30 6 1 5 7
M  V30 7 2 6 8
M  V30 8 2 7 9
M  V30 9 1 9 10
M  V30 10 1 10 11
M  V30 11 2 11 12
M  V30 12 1 11 13
M  V30 13 1 12 14
M  V30 14 2 13 15
M  V30 15 1 14 16
M  V30 16 2 14 17
M  V30 17 1 16 18
M  V30 18 2 18 19
M  V30 19 1 18 20
M  V30 20 1 19 21
M  V30 21 2 20 22
M  V30 22 1 22 23
M  V30 23 1 23 24
M  V30 24 1 23 25
M  V30 25 1 8 9
M  V30 26 1 15 17
M  V30 27 1 21 22
M  V30 28 1 24 25
M  V30 END BOND
M  V30 END CTAB
M  END
>  <Compound ID>
247

>  <Name>


>  <Uniprot>
Q2M2I8

>  <Target>
AAK1

>  <Smiles>
N#CCC1=CC=C(NC2=NC=CC(NC3=N[NH]C(C4CC4)=C3)=N2)C=C1

>  <Kd (nM)>


>  <Assay (Kd)>


>  <Ki (nM)>


>  <Assay (Ki)>


>  <IC50 (nM)>


>  <Assay (IC50)>


>  <EC50 (nM)>


>  <Assay (EC50)>


>  <Article DOI>
10.1016/j.cell.2020.10.038

>  <Molecular Weight>
331.383

>  <Exact Mass>
331.154543544

>  <XLogP3>
2.81

>  <Heavy Atom Count>
25

>  <Ring Count>
4

>  <Hydrogen Bond Acceptor Count>
6

>  <Hydrogen Bond Donor Count>
3

>  <Rotatable Bond Count>
6

>  <Topological Polar Surface Area>
102.31

>  <Molecular Formula>
C18H17N7

>  <InChI>
InChI=1S/C18H17N7/c19-9-7-12-1-5-14(6-2-12)21-18-20-10-8-16(23-18)22-17-11-15(24-25-17)13-3-4-13/h1-2,5-6,8,10-11,13H,3-4,7H2,(H3,20,21,22,23,24,25)

>  <InChI Key>
YRRRHSNOXWKVDL-UHFFFAOYSA-N

>  <BindingDB>


>  <PubChem>
45111332

>  <ChEMBL>


$$$$
Compound 893
Actelion Java MolfileCreator 2.0

  0  0  0  0  0  0              0 V3000
M  V30 BEGIN CTAB
M  V30 COUNTS 25 28 0 0 0
M  V30 BEGIN ATOM
M  V30 1 N 0.0 0.0 0.0 0
M  V30 2 C 1.3434 -0.642 0.0 0
M  V30 3 C 2.6869 -1.284 0.0 0
M  V30 4 C 3.9234 -0.428 0.0 0
M  V30 5 C 3.8045 1.0938 0.0 0
M  V30 6 C 5.2669 -1.07 0.0 0
M  V30 7 C 5.041 1.9498 0.0 0
M  V30 8 C 6.5034 -0.214 0.0 0
M  V30 9 C 6.3845 1.3078 0.0 0
M  V30 10 N 7.621 2.1638 0.0 0
M  V30 11 C 8.9645 1.5218 0.0 0
M  V30 12 N 10.201 2.3778 0.0 0
M  V30 13 N 9.0596 0.0237 0.0 0
M  V30 14 C 11.5445 1.7358 0.0 0
M  V30 15 C 10.4031 -0.6182 0.0 0
M  V30 16 N 12.781 2.5918 0.0 0
M  V30 17 C 11.6396 0.2377 0.0 0
M  V30 18 C 14.1245 1.9498 0.0 0
M  V30 19 N 15.4442 2.6751 0.0 0
M  V30 20 C 14.3742 0.4755 0.0 0
M  V30 21 N 16.5261 1.6407 0.0 0
M  V30 22 C 15.8603 0.2853 0.0 0
M  V30 23 C 16.5618 -1.0343 0.0 0
M  V30 24 C 17.834 -1.819 0.0 0
M  V30 25 C 16.5024 -2.5324 0.0 0
M  V30 END ATOM
M  V30 BEGIN BOND
M  V30 1 3 1 2
M  V30 2 1 2 3
M  V30 3 1 3 4
M  V30 4 2 4 5
M  V30 5 1 4 6
M  V30 6 1 5 7
M  V30 7 2 6 8
M  V30 8 2 7 9
M  V30 9 1 9 10
M  V30 10 1 10 11
M  V30 11 2 11 12
M  V30 12 1 11 13
M  V30 13 1 12 14
M  V30 14 2 13 15
M  V30 15 1 14 16
M  V30 16 2 14 17
M  V30 17 1 16 18
M  V30 18 2 18 19
M  V30 19 1 18 20
M  V30 20 1 19 21
M  V30 21 2 20 22
M  V30 22 1 22 23
M  V30 23 1 23 24
M  V30 24 1 23 25
M  V30 25 1 8 9
M  V30 26 1 15 17
M  V30 27 1 21 22
M  V30 28 1 24 25
M  V30 END BOND
M  V30 END CTAB
M  END
>  <Compound ID>
247

>  <Name>


>  <Uniprot>
O14965

>  <Target>
AURKA

>  <Smiles>
N#CCC1=CC=C(NC2=NC=CC(NC3=N[NH]C(C4CC4)=C3)=N2)C=C1

>  <Kd (nM)>


>  <Assay (Kd)>


>  <Ki (nM)>


>  <Assay (Ki)>


>  <IC50 (nM)>


>  <Assay (IC50)>


>  <EC50 (nM)>


>  <Assay (EC50)>


>  <Article DOI>
10.1016/j.cell.2020.10.038

>  <Molecular Weight>
331.383

>  <Exact Mass>
331.154543544

>  <XLogP3>
2.81

>  <Heavy Atom Count>
25

>  <Ring Count>
4

>  <Hydrogen Bond Acceptor Count>
6

>  <Hydrogen Bond Donor Count>
3

>  <Rotatable Bond Count>
6

>  <Topological Polar Surface Area>
102.31

>  <Molecular Formula>
C18H17N7

>  <InChI>
InChI=1S/C18H17N7/c19-9-7-12-1-5-14(6-2-12)21-18-20-10-8-16(23-18)22-17-11-15(24-25-17)13-3-4-13/h1-2,5-6,8,10-11,13H,3-4,7H2,(H3,20,21,22,23,24,25)

>  <InChI Key>
YRRRHSNOXWKVDL-UHFFFAOYSA-N

>  <BindingDB>


>  <PubChem>
45111332

>  <ChEMBL>


$$$$
Compound 894
Actelion Java MolfileCreator 2.0

  0  0  0  0  0  0              0 V3000
M  V30 BEGIN CTAB
M  V30 COUNTS 25 28 0 0 0
M  V30 BEGIN ATOM
M  V30 1 N 0.0 0.0 0.0 0
M  V30 2 C 1.3434 -0.642 0.0 0
M  V30 3 C 2.6869 -1.284 0.0 0
M  V30 4 C 3.9234 -0.428 0.0 0
M  V30 5 C 3.8045 1.0938 0.0 0
M  V30 6 C 5.2669 -1.07 0.0 0
M  V30 7 C 5.041 1.9498 0.0 0
M  V30 8 C 6.5034 -0.214 0.0 0
M  V30 9 C 6.3845 1.3078 0.0 0
M  V30 10 N 7.621 2.1638 0.0 0
M  V30 11 C 8.9645 1.5218 0.0 0
M  V30 12 N 10.201 2.3778 0.0 0
M  V30 13 N 9.0596 0.0237 0.0 0
M  V30 14 C 11.5445 1.7358 0.0 0
M  V30 15 C 10.4031 -0.6182 0.0 0
M  V30 16 N 12.781 2.5918 0.0 0
M  V30 17 C 11.6396 0.2377 0.0 0
M  V30 18 C 14.1245 1.9498 0.0 0
M  V30 19 N 15.4442 2.6751 0.0 0
M  V30 20 C 14.3742 0.4755 0.0 0
M  V30 21 N 16.5261 1.6407 0.0 0
M  V30 22 C 15.8603 0.2853 0.0 0
M  V30 23 C 16.5618 -1.0343 0.0 0
M  V30 24 C 17.834 -1.819 0.0 0
M  V30 25 C 16.5024 -2.5324 0.0 0
M  V30 END ATOM
M  V30 BEGIN BOND
M  V30 1 3 1 2
M  V30 2 1 2 3
M  V30 3 1 3 4
M  V30 4 2 4 5
M  V30 5 1 4 6
M  V30 6 1 5 7
M  V30 7 2 6 8
M  V30 8 2 7 9
M  V30 9 1 9 10
M  V30 10 1 10 11
M  V30 11 2 11 12
M  V30 12 1 11 13
M  V30 13 1 12 14
M  V30 14 2 13 15
M  V30 15 1 14 16
M  V30 16 2 14 17
M  V30 17 1 16 18
M  V30 18 2 18 19
M  V30 19 1 18 20
M  V30 20 1 19 21
M  V30 21 2 20 22
M  V30 22 1 22 23
M  V30 23 1 23 24
M  V30 24 1 23 25
M  V30 25 1 8 9
M  V30 26 1 15 17
M  V30 27 1 21 22
M  V30 28 1 24 25
M  V30 END BOND
M  V30 END CTAB
M  END
>  <Compound ID>
247

>  <Name>


>  <Uniprot>
Q96GD4

>  <Target>
AURKB

>  <Smiles>
N#CCC1=CC=C(NC2=NC=CC(NC3=N[NH]C(C4CC4)=C3)=N2)C=C1

>  <Kd (nM)>


>  <Assay (Kd)>


>  <Ki (nM)>


>  <Assay (Ki)>


>  <IC50 (nM)>


>  <Assay (IC50)>


>  <EC50 (nM)>


>  <Assay (EC50)>


>  <Article DOI>
10.1016/j.cell.2020.10.038

>  <Molecular Weight>
331.383

>  <Exact Mass>
331.154543544

>  <XLogP3>
2.81

>  <Heavy Atom Count>
25

>  <Ring Count>
4

>  <Hydrogen Bond Acceptor Count>
6

>  <Hydrogen Bond Donor Count>
3

>  <Rotatable Bond Count>
6

>  <Topological Polar Surface Area>
102.31

>  <Molecular Formula>
C18H17N7

>  <InChI>
InChI=1S/C18H17N7/c19-9-7-12-1-5-14(6-2-12)21-18-20-10-8-16(23-18)22-17-11-15(24-25-17)13-3-4-13/h1-2,5-6,8,10-11,13H,3-4,7H2,(H3,20,21,22,23,24,25)

>  <InChI Key>
YRRRHSNOXWKVDL-UHFFFAOYSA-N

>  <BindingDB>


>  <PubChem>
45111332

>  <ChEMBL>


$$$$
Compound 895
Actelion Java MolfileCreator 2.0

  0  0  0  0  0  0              0 V3000
M  V30 BEGIN CTAB
M  V30 COUNTS 25 28 0 0 0
M  V30 BEGIN ATOM
M  V30 1 N 0.0 0.0 0.0 0
M  V30 2 C 1.3434 -0.642 0.0 0
M  V30 3 C 2.6869 -1.284 0.0 0
M  V30 4 C 3.9234 -0.428 0.0 0
M  V30 5 C 3.8045 1.0938 0.0 0
M  V30 6 C 5.2669 -1.07 0.0 0
M  V30 7 C 5.041 1.9498 0.0 0
M  V30 8 C 6.5034 -0.214 0.0 0
M  V30 9 C 6.3845 1.3078 0.0 0
M  V30 10 N 7.621 2.1638 0.0 0
M  V30 11 C 8.9645 1.5218 0.0 0
M  V30 12 N 10.201 2.3778 0.0 0
M  V30 13 N 9.0596 0.0237 0.0 0
M  V30 14 C 11.5445 1.7358 0.0 0
M  V30 15 C 10.4031 -0.6182 0.0 0
M  V30 16 N 12.781 2.5918 0.0 0
M  V30 17 C 11.6396 0.2377 0.0 0
M  V30 18 C 14.1245 1.9498 0.0 0
M  V30 19 N 15.4442 2.6751 0.0 0
M  V30 20 C 14.3742 0.4755 0.0 0
M  V30 21 N 16.5261 1.6407 0.0 0
M  V30 22 C 15.8603 0.2853 0.0 0
M  V30 23 C 16.5618 -1.0343 0.0 0
M  V30 24 C 17.834 -1.819 0.0 0
M  V30 25 C 16.5024 -2.5324 0.0 0
M  V30 END ATOM
M  V30 BEGIN BOND
M  V30 1 3 1 2
M  V30 2 1 2 3
M  V30 3 1 3 4
M  V30 4 2 4 5
M  V30 5 1 4 6
M  V30 6 1 5 7
M  V30 7 2 6 8
M  V30 8 2 7 9
M  V30 9 1 9 10
M  V30 10 1 10 11
M  V30 11 2 11 12
M  V30 12 1 11 13
M  V30 13 1 12 14
M  V30 14 2 13 15
M  V30 15 1 14 16
M  V30 16 2 14 17
M  V30 17 1 16 18
M  V30 18 2 18 19
M  V30 19 1 18 20
M  V30 20 1 19 21
M  V30 21 2 20 22
M  V30 22 1 22 23
M  V30 23 1 23 24
M  V30 24 1 23 25
M  V30 25 1 8 9
M  V30 26 1 15 17
M  V30 27 1 21 22
M  V30 28 1 24 25
M  V30 END BOND
M  V30 END CTAB
M  END
>  <Compound ID>
247

>  <Name>


>  <Uniprot>
Q9NSY1

>  <Target>
BMP2K

>  <Smiles>
N#CCC1=CC=C(NC2=NC=CC(NC3=N[NH]C(C4CC4)=C3)=N2)C=C1

>  <Kd (nM)>


>  <Assay (Kd)>


>  <Ki (nM)>


>  <Assay (Ki)>


>  <IC50 (nM)>


>  <Assay (IC50)>


>  <EC50 (nM)>


>  <Assay (EC50)>


>  <Article DOI>
10.1016/j.cell.2020.10.038

>  <Molecular Weight>
331.383

>  <Exact Mass>
331.154543544

>  <XLogP3>
2.81

>  <Heavy Atom Count>
25

>  <Ring Count>
4

>  <Hydrogen Bond Acceptor Count>
6

>  <Hydrogen Bond Donor Count>
3

>  <Rotatable Bond Count>
6

>  <Topological Polar Surface Area>
102.31

>  <Molecular Formula>
C18H17N7

>  <InChI>
InChI=1S/C18H17N7/c19-9-7-12-1-5-14(6-2-12)21-18-20-10-8-16(23-18)22-17-11-15(24-25-17)13-3-4-13/h1-2,5-6,8,10-11,13H,3-4,7H2,(H3,20,21,22,23,24,25)

>  <InChI Key>
YRRRHSNOXWKVDL-UHFFFAOYSA-N

>  <BindingDB>


>  <PubChem>
45111332

>  <ChEMBL>


$$$$
Compound 896
Actelion Java MolfileCreator 2.0

  0  0  0  0  0  0              0 V3000
M  V30 BEGIN CTAB
M  V30 COUNTS 25 28 0 0 0
M  V30 BEGIN ATOM
M  V30 1 N 0.0 0.0 0.0 0
M  V30 2 C 1.3434 -0.642 0.0 0
M  V30 3 C 2.6869 -1.284 0.0 0
M  V30 4 C 3.9234 -0.428 0.0 0
M  V30 5 C 3.8045 1.0938 0.0 0
M  V30 6 C 5.2669 -1.07 0.0 0
M  V30 7 C 5.041 1.9498 0.0 0
M  V30 8 C 6.5034 -0.214 0.0 0
M  V30 9 C 6.3845 1.3078 0.0 0
M  V30 10 N 7.621 2.1638 0.0 0
M  V30 11 C 8.9645 1.5218 0.0 0
M  V30 12 N 10.201 2.3778 0.0 0
M  V30 13 N 9.0596 0.0237 0.0 0
M  V30 14 C 11.5445 1.7358 0.0 0
M  V30 15 C 10.4031 -0.6182 0.0 0
M  V30 16 N 12.781 2.5918 0.0 0
M  V30 17 C 11.6396 0.2377 0.0 0
M  V30 18 C 14.1245 1.9498 0.0 0
M  V30 19 N 15.4442 2.6751 0.0 0
M  V30 20 C 14.3742 0.4755 0.0 0
M  V30 21 N 16.5261 1.6407 0.0 0
M  V30 22 C 15.8603 0.2853 0.0 0
M  V30 23 C 16.5618 -1.0343 0.0 0
M  V30 24 C 17.834 -1.819 0.0 0
M  V30 25 C 16.5024 -2.5324 0.0 0
M  V30 END ATOM
M  V30 BEGIN BOND
M  V30 1 3 1 2
M  V30 2 1 2 3
M  V30 3 1 3 4
M  V30 4 2 4 5
M  V30 5 1 4 6
M  V30 6 1 5 7
M  V30 7 2 6 8
M  V30 8 2 7 9
M  V30 9 1 9 10
M  V30 10 1 10 11
M  V30 11 2 11 12
M  V30 12 1 11 13
M  V30 13 1 12 14
M  V30 14 2 13 15
M  V30 15 1 14 16
M  V30 16 2 14 17
M  V30 17 1 16 18
M  V30 18 2 18 19
M  V30 19 1 18 20
M  V30 20 1 19 21
M  V30 21 2 20 22
M  V30 22 1 22 23
M  V30 23 1 23 24
M  V30 24 1 23 25
M  V30 25 1 8 9
M  V30 26 1 15 17
M  V30 27 1 21 22
M  V30 28 1 24 25
M  V30 END BOND
M  V30 END CTAB
M  END
>  <Compound ID>
247

>  <Name>


>  <Uniprot>
P50750

>  <Target>
CDK9

>  <Smiles>
N#CCC1=CC=C(NC2=NC=CC(NC3=N[NH]C(C4CC4)=C3)=N2)C=C1

>  <Kd (nM)>


>  <Assay (Kd)>


>  <Ki (nM)>


>  <Assay (Ki)>


>  <IC50 (nM)>


>  <Assay (IC50)>


>  <EC50 (nM)>


>  <Assay (EC50)>


>  <Article DOI>
10.1016/j.cell.2020.10.038

>  <Molecular Weight>
331.383

>  <Exact Mass>
331.154543544

>  <XLogP3>
2.81

>  <Heavy Atom Count>
25

>  <Ring Count>
4

>  <Hydrogen Bond Acceptor Count>
6

>  <Hydrogen Bond Donor Count>
3

>  <Rotatable Bond Count>
6

>  <Topological Polar Surface Area>
102.31

>  <Molecular Formula>
C18H17N7

>  <InChI>
InChI=1S/C18H17N7/c19-9-7-12-1-5-14(6-2-12)21-18-20-10-8-16(23-18)22-17-11-15(24-25-17)13-3-4-13/h1-2,5-6,8,10-11,13H,3-4,7H2,(H3,20,21,22,23,24,25)

>  <InChI Key>
YRRRHSNOXWKVDL-UHFFFAOYSA-N

>  <BindingDB>


>  <PubChem>
45111332

>  <ChEMBL>


$$$$
Compound 897
Actelion Java MolfileCreator 2.0

  0  0  0  0  0  0              0 V3000
M  V30 BEGIN CTAB
M  V30 COUNTS 25 28 0 0 0
M  V30 BEGIN ATOM
M  V30 1 N 0.0 0.0 0.0 0
M  V30 2 C 1.3434 -0.642 0.0 0
M  V30 3 C 2.6869 -1.284 0.0 0
M  V30 4 C 3.9234 -0.428 0.0 0
M  V30 5 C 3.8045 1.0938 0.0 0
M  V30 6 C 5.2669 -1.07 0.0 0
M  V30 7 C 5.041 1.9498 0.0 0
M  V30 8 C 6.5034 -0.214 0.0 0
M  V30 9 C 6.3845 1.3078 0.0 0
M  V30 10 N 7.621 2.1638 0.0 0
M  V30 11 C 8.9645 1.5218 0.0 0
M  V30 12 N 10.201 2.3778 0.0 0
M  V30 13 N 9.0596 0.0237 0.0 0
M  V30 14 C 11.5445 1.7358 0.0 0
M  V30 15 C 10.4031 -0.6182 0.0 0
M  V30 16 N 12.781 2.5918 0.0 0
M  V30 17 C 11.6396 0.2377 0.0 0
M  V30 18 C 14.1245 1.9498 0.0 0
M  V30 19 N 15.4442 2.6751 0.0 0
M  V30 20 C 14.3742 0.4755 0.0 0
M  V30 21 N 16.5261 1.6407 0.0 0
M  V30 22 C 15.8603 0.2853 0.0 0
M  V30 23 C 16.5618 -1.0343 0.0 0
M  V30 24 C 17.834 -1.819 0.0 0
M  V30 25 C 16.5024 -2.5324 0.0 0
M  V30 END ATOM
M  V30 BEGIN BOND
M  V30 1 3 1 2
M  V30 2 1 2 3
M  V30 3 1 3 4
M  V30 4 2 4 5
M  V30 5 1 4 6
M  V30 6 1 5 7
M  V30 7 2 6 8
M  V30 8 2 7 9
M  V30 9 1 9 10
M  V30 10 1 10 11
M  V30 11 2 11 12
M  V30 12 1 11 13
M  V30 13 1 12 14
M  V30 14 2 13 15
M  V30 15 1 14 16
M  V30 16 2 14 17
M  V30 17 1 16 18
M  V30 18 2 18 19
M  V30 19 1 18 20
M  V30 20 1 19 21
M  V30 21 2 20 22
M  V30 22 1 22 23
M  V30 23 1 23 24
M  V30 24 1 23 25
M  V30 25 1 8 9
M  V30 26 1 15 17
M  V30 27 1 21 22
M  V30 28 1 24 25
M  V30 END BOND
M  V30 END CTAB
M  END
>  <Compound ID>
247

>  <Name>


>  <Uniprot>
P29323

>  <Target>
EPHB2

>  <Smiles>
N#CCC1=CC=C(NC2=NC=CC(NC3=N[NH]C(C4CC4)=C3)=N2)C=C1

>  <Kd (nM)>


>  <Assay (Kd)>


>  <Ki (nM)>


>  <Assay (Ki)>


>  <IC50 (nM)>


>  <Assay (IC50)>


>  <EC50 (nM)>


>  <Assay (EC50)>


>  <Article DOI>
10.1016/j.cell.2020.10.038

>  <Molecular Weight>
331.383

>  <Exact Mass>
331.154543544

>  <XLogP3>
2.81

>  <Heavy Atom Count>
25

>  <Ring Count>
4

>  <Hydrogen Bond Acceptor Count>
6

>  <Hydrogen Bond Donor Count>
3

>  <Rotatable Bond Count>
6

>  <Topological Polar Surface Area>
102.31

>  <Molecular Formula>
C18H17N7

>  <InChI>
InChI=1S/C18H17N7/c19-9-7-12-1-5-14(6-2-12)21-18-20-10-8-16(23-18)22-17-11-15(24-25-17)13-3-4-13/h1-2,5-6,8,10-11,13H,3-4,7H2,(H3,20,21,22,23,24,25)

>  <InChI Key>
YRRRHSNOXWKVDL-UHFFFAOYSA-N

>  <BindingDB>


>  <PubChem>
45111332

>  <ChEMBL>


$$$$
Compound 898
Actelion Java MolfileCreator 2.0

  0  0  0  0  0  0              0 V3000
M  V30 BEGIN CTAB
M  V30 COUNTS 25 28 0 0 0
M  V30 BEGIN ATOM
M  V30 1 N 0.0 0.0 0.0 0
M  V30 2 C 1.3434 -0.642 0.0 0
M  V30 3 C 2.6869 -1.284 0.0 0
M  V30 4 C 3.9234 -0.428 0.0 0
M  V30 5 C 3.8045 1.0938 0.0 0
M  V30 6 C 5.2669 -1.07 0.0 0
M  V30 7 C 5.041 1.9498 0.0 0
M  V30 8 C 6.5034 -0.214 0.0 0
M  V30 9 C 6.3845 1.3078 0.0 0
M  V30 10 N 7.621 2.1638 0.0 0
M  V30 11 C 8.9645 1.5218 0.0 0
M  V30 12 N 10.201 2.3778 0.0 0
M  V30 13 N 9.0596 0.0237 0.0 0
M  V30 14 C 11.5445 1.7358 0.0 0
M  V30 15 C 10.4031 -0.6182 0.0 0
M  V30 16 N 12.781 2.5918 0.0 0
M  V30 17 C 11.6396 0.2377 0.0 0
M  V30 18 C 14.1245 1.9498 0.0 0
M  V30 19 N 15.4442 2.6751 0.0 0
M  V30 20 C 14.3742 0.4755 0.0 0
M  V30 21 N 16.5261 1.6407 0.0 0
M  V30 22 C 15.8603 0.2853 0.0 0
M  V30 23 C 16.5618 -1.0343 0.0 0
M  V30 24 C 17.834 -1.819 0.0 0
M  V30 25 C 16.5024 -2.5324 0.0 0
M  V30 END ATOM
M  V30 BEGIN BOND
M  V30 1 3 1 2
M  V30 2 1 2 3
M  V30 3 1 3 4
M  V30 4 2 4 5
M  V30 5 1 4 6
M  V30 6 1 5 7
M  V30 7 2 6 8
M  V30 8 2 7 9
M  V30 9 1 9 10
M  V30 10 1 10 11
M  V30 11 2 11 12
M  V30 12 1 11 13
M  V30 13 1 12 14
M  V30 14 2 13 15
M  V30 15 1 14 16
M  V30 16 2 14 17
M  V30 17 1 16 18
M  V30 18 2 18 19
M  V30 19 1 18 20
M  V30 20 1 19 21
M  V30 21 2 20 22
M  V30 22 1 22 23
M  V30 23 1 23 24
M  V30 24 1 23 25
M  V30 25 1 8 9
M  V30 26 1 15 17
M  V30 27 1 21 22
M  V30 28 1 24 25
M  V30 END BOND
M  V30 END CTAB
M  END
>  <Compound ID>
247

>  <Name>


>  <Uniprot>
P49841

>  <Target>
GSK-3beta

>  <Smiles>
N#CCC1=CC=C(NC2=NC=CC(NC3=N[NH]C(C4CC4)=C3)=N2)C=C1

>  <Kd (nM)>


>  <Assay (Kd)>


>  <Ki (nM)>


>  <Assay (Ki)>


>  <IC50 (nM)>


>  <Assay (IC50)>


>  <EC50 (nM)>


>  <Assay (EC50)>


>  <Article DOI>
10.1016/j.cell.2020.10.038

>  <Molecular Weight>
331.383

>  <Exact Mass>
331.154543544

>  <XLogP3>
2.81

>  <Heavy Atom Count>
25

>  <Ring Count>
4

>  <Hydrogen Bond Acceptor Count>
6

>  <Hydrogen Bond Donor Count>
3

>  <Rotatable Bond Count>
6

>  <Topological Polar Surface Area>
102.31

>  <Molecular Formula>
C18H17N7

>  <InChI>
InChI=1S/C18H17N7/c19-9-7-12-1-5-14(6-2-12)21-18-20-10-8-16(23-18)22-17-11-15(24-25-17)13-3-4-13/h1-2,5-6,8,10-11,13H,3-4,7H2,(H3,20,21,22,23,24,25)

>  <InChI Key>
YRRRHSNOXWKVDL-UHFFFAOYSA-N

>  <BindingDB>


>  <PubChem>
45111332

>  <ChEMBL>


$$$$
Compound 899
Actelion Java MolfileCreator 2.0

  0  0  0  0  0  0              0 V3000
M  V30 BEGIN CTAB
M  V30 COUNTS 25 28 0 0 0
M  V30 BEGIN ATOM
M  V30 1 N 0.0 0.0 0.0 0
M  V30 2 C 1.3434 -0.642 0.0 0
M  V30 3 C 2.6869 -1.284 0.0 0
M  V30 4 C 3.9234 -0.428 0.0 0
M  V30 5 C 3.8045 1.0938 0.0 0
M  V30 6 C 5.2669 -1.07 0.0 0
M  V30 7 C 5.041 1.9498 0.0 0
M  V30 8 C 6.5034 -0.214 0.0 0
M  V30 9 C 6.3845 1.3078 0.0 0
M  V30 10 N 7.621 2.1638 0.0 0
M  V30 11 C 8.9645 1.5218 0.0 0
M  V30 12 N 10.201 2.3778 0.0 0
M  V30 13 N 9.0596 0.0237 0.0 0
M  V30 14 C 11.5445 1.7358 0.0 0
M  V30 15 C 10.4031 -0.6182 0.0 0
M  V30 16 N 12.781 2.5918 0.0 0
M  V30 17 C 11.6396 0.2377 0.0 0
M  V30 18 C 14.1245 1.9498 0.0 0
M  V30 19 N 15.4442 2.6751 0.0 0
M  V30 20 C 14.3742 0.4755 0.0 0
M  V30 21 N 16.5261 1.6407 0.0 0
M  V30 22 C 15.8603 0.2853 0.0 0
M  V30 23 C 16.5618 -1.0343 0.0 0
M  V30 24 C 17.834 -1.819 0.0 0
M  V30 25 C 16.5024 -2.5324 0.0 0
M  V30 END ATOM
M  V30 BEGIN BOND
M  V30 1 3 1 2
M  V30 2 1 2 3
M  V30 3 1 3 4
M  V30 4 2 4 5
M  V30 5 1 4 6
M  V30 6 1 5 7
M  V30 7 2 6 8
M  V30 8 2 7 9
M  V30 9 1 9 10
M  V30 10 1 10 11
M  V30 11 2 11 12
M  V30 12 1 11 13
M  V30 13 1 12 14
M  V30 14 2 13 15
M  V30 15 1 14 16
M  V30 16 2 14 17
M  V30 17 1 16 18
M  V30 18 2 18 19
M  V30 19 1 18 20
M  V30 20 1 19 21
M  V30 21 2 20 22
M  V30 22 1 22 23
M  V30 23 1 23 24
M  V30 24 1 23 25
M  V30 25 1 8 9
M  V30 26 1 15 17
M  V30 27 1 21 22
M  V30 28 1 24 25
M  V30 END BOND
M  V30 END CTAB
M  END
>  <Compound ID>
247

>  <Name>


>  <Uniprot>
Q08881

>  <Target>
ITK

>  <Smiles>
N#CCC1=CC=C(NC2=NC=CC(NC3=N[NH]C(C4CC4)=C3)=N2)C=C1

>  <Kd (nM)>


>  <Assay (Kd)>


>  <Ki (nM)>


>  <Assay (Ki)>


>  <IC50 (nM)>


>  <Assay (IC50)>


>  <EC50 (nM)>


>  <Assay (EC50)>


>  <Article DOI>
10.1016/j.cell.2020.10.038

>  <Molecular Weight>
331.383

>  <Exact Mass>
331.154543544

>  <XLogP3>
2.81

>  <Heavy Atom Count>
25

>  <Ring Count>
4

>  <Hydrogen Bond Acceptor Count>
6

>  <Hydrogen Bond Donor Count>
3

>  <Rotatable Bond Count>
6

>  <Topological Polar Surface Area>
102.31

>  <Molecular Formula>
C18H17N7

>  <InChI>
InChI=1S/C18H17N7/c19-9-7-12-1-5-14(6-2-12)21-18-20-10-8-16(23-18)22-17-11-15(24-25-17)13-3-4-13/h1-2,5-6,8,10-11,13H,3-4,7H2,(H3,20,21,22,23,24,25)

>  <InChI Key>
YRRRHSNOXWKVDL-UHFFFAOYSA-N

>  <BindingDB>


>  <PubChem>
45111332

>  <ChEMBL>


$$$$
Compound 900
Actelion Java MolfileCreator 2.0

  0  0  0  0  0  0              0 V3000
M  V30 BEGIN CTAB
M  V30 COUNTS 25 28 0 0 0
M  V30 BEGIN ATOM
M  V30 1 N 0.0 0.0 0.0 0
M  V30 2 C 1.3434 -0.642 0.0 0
M  V30 3 C 2.6869 -1.284 0.0 0
M  V30 4 C 3.9234 -0.428 0.0 0
M  V30 5 C 3.8045 1.0938 0.0 0
M  V30 6 C 5.2669 -1.07 0.0 0
M  V30 7 C 5.041 1.9498 0.0 0
M  V30 8 C 6.5034 -0.214 0.0 0
M  V30 9 C 6.3845 1.3078 0.0 0
M  V30 10 N 7.621 2.1638 0.0 0
M  V30 11 C 8.9645 1.5218 0.0 0
M  V30 12 N 10.201 2.3778 0.0 0
M  V30 13 N 9.0596 0.0237 0.0 0
M  V30 14 C 11.5445 1.7358 0.0 0
M  V30 15 C 10.4031 -0.6182 0.0 0
M  V30 16 N 12.781 2.5918 0.0 0
M  V30 17 C 11.6396 0.2377 0.0 0
M  V30 18 C 14.1245 1.9498 0.0 0
M  V30 19 N 15.4442 2.6751 0.0 0
M  V30 20 C 14.3742 0.4755 0.0 0
M  V30 21 N 16.5261 1.6407 0.0 0
M  V30 22 C 15.8603 0.2853 0.0 0
M  V30 23 C 16.5618 -1.0343 0.0 0
M  V30 24 C 17.834 -1.819 0.0 0
M  V30 25 C 16.5024 -2.5324 0.0 0
M  V30 END ATOM
M  V30 BEGIN BOND
M  V30 1 3 1 2
M  V30 2 1 2 3
M  V30 3 1 3 4
M  V30 4 2 4 5
M  V30 5 1 4 6
M  V30 6 1 5 7
M  V30 7 2 6 8
M  V30 8 2 7 9
M  V30 9 1 9 10
M  V30 10 1 10 11
M  V30 11 2 11 12
M  V30 12 1 11 13
M  V30 13 1 12 14
M  V30 14 2 13 15
M  V30 15 1 14 16
M  V30 16 2 14 17
M  V30 17 1 16 18
M  V30 18 2 18 19
M  V30 19 1 18 20
M  V30 20 1 19 21
M  V30 21 2 20 22
M  V30 22 1 22 23
M  V30 23 1 23 24
M  V30 24 1 23 25
M  V30 25 1 8 9
M  V30 26 1 15 17
M  V30 27 1 21 22
M  V30 28 1 24 25
M  V30 END BOND
M  V30 END CTAB
M  END
>  <Compound ID>
247

>  <Name>


>  <Uniprot>
O95835

>  <Target>
LATS1

>  <Smiles>
N#CCC1=CC=C(NC2=NC=CC(NC3=N[NH]C(C4CC4)=C3)=N2)C=C1

>  <Kd (nM)>


>  <Assay (Kd)>


>  <Ki (nM)>


>  <Assay (Ki)>


>  <IC50 (nM)>


>  <Assay (IC50)>


>  <EC50 (nM)>


>  <Assay (EC50)>


>  <Article DOI>
10.1016/j.cell.2020.10.038

>  <Molecular Weight>
331.383

>  <Exact Mass>
331.154543544

>  <XLogP3>
2.81

>  <Heavy Atom Count>
25

>  <Ring Count>
4

>  <Hydrogen Bond Acceptor Count>
6

>  <Hydrogen Bond Donor Count>
3

>  <Rotatable Bond Count>
6

>  <Topological Polar Surface Area>
102.31

>  <Molecular Formula>
C18H17N7

>  <InChI>
InChI=1S/C18H17N7/c19-9-7-12-1-5-14(6-2-12)21-18-20-10-8-16(23-18)22-17-11-15(24-25-17)13-3-4-13/h1-2,5-6,8,10-11,13H,3-4,7H2,(H3,20,21,22,23,24,25)

>  <InChI Key>
YRRRHSNOXWKVDL-UHFFFAOYSA-N

>  <BindingDB>


>  <PubChem>
45111332

>  <ChEMBL>


$$$$
Compound 901
Actelion Java MolfileCreator 2.0

  0  0  0  0  0  0              0 V3000
M  V30 BEGIN CTAB
M  V30 COUNTS 25 28 0 0 0
M  V30 BEGIN ATOM
M  V30 1 N 0.0 0.0 0.0 0
M  V30 2 C 1.3434 -0.642 0.0 0
M  V30 3 C 2.6869 -1.284 0.0 0
M  V30 4 C 3.9234 -0.428 0.0 0
M  V30 5 C 3.8045 1.0938 0.0 0
M  V30 6 C 5.2669 -1.07 0.0 0
M  V30 7 C 5.041 1.9498 0.0 0
M  V30 8 C 6.5034 -0.214 0.0 0
M  V30 9 C 6.3845 1.3078 0.0 0
M  V30 10 N 7.621 2.1638 0.0 0
M  V30 11 C 8.9645 1.5218 0.0 0
M  V30 12 N 10.201 2.3778 0.0 0
M  V30 13 N 9.0596 0.0237 0.0 0
M  V30 14 C 11.5445 1.7358 0.0 0
M  V30 15 C 10.4031 -0.6182 0.0 0
M  V30 16 N 12.781 2.5918 0.0 0
M  V30 17 C 11.6396 0.2377 0.0 0
M  V30 18 C 14.1245 1.9498 0.0 0
M  V30 19 N 15.4442 2.6751 0.0 0
M  V30 20 C 14.3742 0.4755 0.0 0
M  V30 21 N 16.5261 1.6407 0.0 0
M  V30 22 C 15.8603 0.2853 0.0 0
M  V30 23 C 16.5618 -1.0343 0.0 0
M  V30 24 C 17.834 -1.819 0.0 0
M  V30 25 C 16.5024 -2.5324 0.0 0
M  V30 END ATOM
M  V30 BEGIN BOND
M  V30 1 3 1 2
M  V30 2 1 2 3
M  V30 3 1 3 4
M  V30 4 2 4 5
M  V30 5 1 4 6
M  V30 6 1 5 7
M  V30 7 2 6 8
M  V30 8 2 7 9
M  V30 9 1 9 10
M  V30 10 1 10 11
M  V30 11 2 11 12
M  V30 12 1 11 13
M  V30 13 1 12 14
M  V30 14 2 13 15
M  V30 15 1 14 16
M  V30 16 2 14 17
M  V30 17 1 16 18
M  V30 18 2 18 19
M  V30 19 1 18 20
M  V30 20 1 19 21
M  V30 21 2 20 22
M  V30 22 1 22 23
M  V30 23 1 23 24
M  V30 24 1 23 25
M  V30 25 1 8 9
M  V30 26 1 15 17
M  V30 27 1 21 22
M  V30 28 1 24 25
M  V30 END BOND
M  V30 END CTAB
M  END
>  <Compound ID>
247

>  <Name>


>  <Uniprot>
Q12851

>  <Target>
MAP4K2

>  <Smiles>
N#CCC1=CC=C(NC2=NC=CC(NC3=N[NH]C(C4CC4)=C3)=N2)C=C1

>  <Kd (nM)>


>  <Assay (Kd)>


>  <Ki (nM)>


>  <Assay (Ki)>


>  <IC50 (nM)>


>  <Assay (IC50)>


>  <EC50 (nM)>


>  <Assay (EC50)>


>  <Article DOI>
10.1016/j.cell.2020.10.038

>  <Molecular Weight>
331.383

>  <Exact Mass>
331.154543544

>  <XLogP3>
2.81

>  <Heavy Atom Count>
25

>  <Ring Count>
4

>  <Hydrogen Bond Acceptor Count>
6

>  <Hydrogen Bond Donor Count>
3

>  <Rotatable Bond Count>
6

>  <Topological Polar Surface Area>
102.31

>  <Molecular Formula>
C18H17N7

>  <InChI>
InChI=1S/C18H17N7/c19-9-7-12-1-5-14(6-2-12)21-18-20-10-8-16(23-18)22-17-11-15(24-25-17)13-3-4-13/h1-2,5-6,8,10-11,13H,3-4,7H2,(H3,20,21,22,23,24,25)

>  <InChI Key>
YRRRHSNOXWKVDL-UHFFFAOYSA-N

>  <BindingDB>


>  <PubChem>
45111332

>  <ChEMBL>


$$$$
Compound 902
Actelion Java MolfileCreator 2.0

  0  0  0  0  0  0              0 V3000
M  V30 BEGIN CTAB
M  V30 COUNTS 25 28 0 0 0
M  V30 BEGIN ATOM
M  V30 1 N 0.0 0.0 0.0 0
M  V30 2 C 1.3434 -0.642 0.0 0
M  V30 3 C 2.6869 -1.284 0.0 0
M  V30 4 C 3.9234 -0.428 0.0 0
M  V30 5 C 3.8045 1.0938 0.0 0
M  V30 6 C 5.2669 -1.07 0.0 0
M  V30 7 C 5.041 1.9498 0.0 0
M  V30 8 C 6.5034 -0.214 0.0 0
M  V30 9 C 6.3845 1.3078 0.0 0
M  V30 10 N 7.621 2.1638 0.0 0
M  V30 11 C 8.9645 1.5218 0.0 0
M  V30 12 N 10.201 2.3778 0.0 0
M  V30 13 N 9.0596 0.0237 0.0 0
M  V30 14 C 11.5445 1.7358 0.0 0
M  V30 15 C 10.4031 -0.6182 0.0 0
M  V30 16 N 12.781 2.5918 0.0 0
M  V30 17 C 11.6396 0.2377 0.0 0
M  V30 18 C 14.1245 1.9498 0.0 0
M  V30 19 N 15.4442 2.6751 0.0 0
M  V30 20 C 14.3742 0.4755 0.0 0
M  V30 21 N 16.5261 1.6407 0.0 0
M  V30 22 C 15.8603 0.2853 0.0 0
M  V30 23 C 16.5618 -1.0343 0.0 0
M  V30 24 C 17.834 -1.819 0.0 0
M  V30 25 C 16.5024 -2.5324 0.0 0
M  V30 END ATOM
M  V30 BEGIN BOND
M  V30 1 3 1 2
M  V30 2 1 2 3
M  V30 3 1 3 4
M  V30 4 2 4 5
M  V30 5 1 4 6
M  V30 6 1 5 7
M  V30 7 2 6 8
M  V30 8 2 7 9
M  V30 9 1 9 10
M  V30 10 1 10 11
M  V30 11 2 11 12
M  V30 12 1 11 13
M  V30 13 1 12 14
M  V30 14 2 13 15
M  V30 15 1 14 16
M  V30 16 2 14 17
M  V30 17 1 16 18
M  V30 18 2 18 19
M  V30 19 1 18 20
M  V30 20 1 19 21
M  V30 21 2 20 22
M  V30 22 1 22 23
M  V30 23 1 23 24
M  V30 24 1 23 25
M  V30 25 1 8 9
M  V30 26 1 15 17
M  V30 27 1 21 22
M  V30 28 1 24 25
M  V30 END BOND
M  V30 END CTAB
M  END
>  <Compound ID>
247

>  <Name>


>  <Uniprot>
Q8TD19

>  <Target>
NEK9

>  <Smiles>
N#CCC1=CC=C(NC2=NC=CC(NC3=N[NH]C(C4CC4)=C3)=N2)C=C1

>  <Kd (nM)>


>  <Assay (Kd)>


>  <Ki (nM)>


>  <Assay (Ki)>


>  <IC50 (nM)>


>  <Assay (IC50)>


>  <EC50 (nM)>


>  <Assay (EC50)>


>  <Article DOI>
10.1016/j.cell.2020.10.038

>  <Molecular Weight>
331.383

>  <Exact Mass>
331.154543544

>  <XLogP3>
2.81

>  <Heavy Atom Count>
25

>  <Ring Count>
4

>  <Hydrogen Bond Acceptor Count>
6

>  <Hydrogen Bond Donor Count>
3

>  <Rotatable Bond Count>
6

>  <Topological Polar Surface Area>
102.31

>  <Molecular Formula>
C18H17N7

>  <InChI>
InChI=1S/C18H17N7/c19-9-7-12-1-5-14(6-2-12)21-18-20-10-8-16(23-18)22-17-11-15(24-25-17)13-3-4-13/h1-2,5-6,8,10-11,13H,3-4,7H2,(H3,20,21,22,23,24,25)

>  <InChI Key>
YRRRHSNOXWKVDL-UHFFFAOYSA-N

>  <BindingDB>


>  <PubChem>
45111332

>  <ChEMBL>


$$$$
Compound 903
Actelion Java MolfileCreator 2.0

  0  0  0  0  0  0              0 V3000
M  V30 BEGIN CTAB
M  V30 COUNTS 25 28 0 0 0
M  V30 BEGIN ATOM
M  V30 1 N 0.0 0.0 0.0 0
M  V30 2 C 1.3434 -0.642 0.0 0
M  V30 3 C 2.6869 -1.284 0.0 0
M  V30 4 C 3.9234 -0.428 0.0 0
M  V30 5 C 3.8045 1.0938 0.0 0
M  V30 6 C 5.2669 -1.07 0.0 0
M  V30 7 C 5.041 1.9498 0.0 0
M  V30 8 C 6.5034 -0.214 0.0 0
M  V30 9 C 6.3845 1.3078 0.0 0
M  V30 10 N 7.621 2.1638 0.0 0
M  V30 11 C 8.9645 1.5218 0.0 0
M  V30 12 N 10.201 2.3778 0.0 0
M  V30 13 N 9.0596 0.0237 0.0 0
M  V30 14 C 11.5445 1.7358 0.0 0
M  V30 15 C 10.4031 -0.6182 0.0 0
M  V30 16 N 12.781 2.5918 0.0 0
M  V30 17 C 11.6396 0.2377 0.0 0
M  V30 18 C 14.1245 1.9498 0.0 0
M  V30 19 N 15.4442 2.6751 0.0 0
M  V30 20 C 14.3742 0.4755 0.0 0
M  V30 21 N 16.5261 1.6407 0.0 0
M  V30 22 C 15.8603 0.2853 0.0 0
M  V30 23 C 16.5618 -1.0343 0.0 0
M  V30 24 C 17.834 -1.819 0.0 0
M  V30 25 C 16.5024 -2.5324 0.0 0
M  V30 END ATOM
M  V30 BEGIN BOND
M  V30 1 3 1 2
M  V30 2 1 2 3
M  V30 3 1 3 4
M  V30 4 2 4 5
M  V30 5 1 4 6
M  V30 6 1 5 7
M  V30 7 2 6 8
M  V30 8 2 7 9
M  V30 9 1 9 10
M  V30 10 1 10 11
M  V30 11 2 11 12
M  V30 12 1 11 13
M  V30 13 1 12 14
M  V30 14 2 13 15
M  V30 15 1 14 16
M  V30 16 2 14 17
M  V30 17 1 16 18
M  V30 18 2 18 19
M  V30 19 1 18 20
M  V30 20 1 19 21
M  V30 21 2 20 22
M  V30 22 1 22 23
M  V30 23 1 23 24
M  V30 24 1 23 25
M  V30 25 1 8 9
M  V30 26 1 15 17
M  V30 27 1 21 22
M  V30 28 1 24 25
M  V30 END BOND
M  V30 END CTAB
M  END
>  <Compound ID>
247

>  <Name>


>  <Uniprot>
O96013

>  <Target>
PAK4

>  <Smiles>
N#CCC1=CC=C(NC2=NC=CC(NC3=N[NH]C(C4CC4)=C3)=N2)C=C1

>  <Kd (nM)>


>  <Assay (Kd)>


>  <Ki (nM)>


>  <Assay (Ki)>


>  <IC50 (nM)>


>  <Assay (IC50)>


>  <EC50 (nM)>


>  <Assay (EC50)>


>  <Article DOI>
10.1016/j.cell.2020.10.038

>  <Molecular Weight>
331.383

>  <Exact Mass>
331.154543544

>  <XLogP3>
2.81

>  <Heavy Atom Count>
25

>  <Ring Count>
4

>  <Hydrogen Bond Acceptor Count>
6

>  <Hydrogen Bond Donor Count>
3

>  <Rotatable Bond Count>
6

>  <Topological Polar Surface Area>
102.31

>  <Molecular Formula>
C18H17N7

>  <InChI>
InChI=1S/C18H17N7/c19-9-7-12-1-5-14(6-2-12)21-18-20-10-8-16(23-18)22-17-11-15(24-25-17)13-3-4-13/h1-2,5-6,8,10-11,13H,3-4,7H2,(H3,20,21,22,23,24,25)

>  <InChI Key>
YRRRHSNOXWKVDL-UHFFFAOYSA-N

>  <BindingDB>


>  <PubChem>
45111332

>  <ChEMBL>


$$$$
Compound 904
Actelion Java MolfileCreator 2.0

  0  0  0  0  0  0              0 V3000
M  V30 BEGIN CTAB
M  V30 COUNTS 25 28 0 0 0
M  V30 BEGIN ATOM
M  V30 1 N 0.0 0.0 0.0 0
M  V30 2 C 1.3434 -0.642 0.0 0
M  V30 3 C 2.6869 -1.284 0.0 0
M  V30 4 C 3.9234 -0.428 0.0 0
M  V30 5 C 3.8045 1.0938 0.0 0
M  V30 6 C 5.2669 -1.07 0.0 0
M  V30 7 C 5.041 1.9498 0.0 0
M  V30 8 C 6.5034 -0.214 0.0 0
M  V30 9 C 6.3845 1.3078 0.0 0
M  V30 10 N 7.621 2.1638 0.0 0
M  V30 11 C 8.9645 1.5218 0.0 0
M  V30 12 N 10.201 2.3778 0.0 0
M  V30 13 N 9.0596 0.0237 0.0 0
M  V30 14 C 11.5445 1.7358 0.0 0
M  V30 15 C 10.4031 -0.6182 0.0 0
M  V30 16 N 12.781 2.5918 0.0 0
M  V30 17 C 11.6396 0.2377 0.0 0
M  V30 18 C 14.1245 1.9498 0.0 0
M  V30 19 N 15.4442 2.6751 0.0 0
M  V30 20 C 14.3742 0.4755 0.0 0
M  V30 21 N 16.5261 1.6407 0.0 0
M  V30 22 C 15.8603 0.2853 0.0 0
M  V30 23 C 16.5618 -1.0343 0.0 0
M  V30 24 C 17.834 -1.819 0.0 0
M  V30 25 C 16.5024 -2.5324 0.0 0
M  V30 END ATOM
M  V30 BEGIN BOND
M  V30 1 3 1 2
M  V30 2 1 2 3
M  V30 3 1 3 4
M  V30 4 2 4 5
M  V30 5 1 4 6
M  V30 6 1 5 7
M  V30 7 2 6 8
M  V30 8 2 7 9
M  V30 9 1 9 10
M  V30 10 1 10 11
M  V30 11 2 11 12
M  V30 12 1 11 13
M  V30 13 1 12 14
M  V30 14 2 13 15
M  V30 15 1 14 16
M  V30 16 2 14 17
M  V30 17 1 16 18
M  V30 18 2 18 19
M  V30 19 1 18 20
M  V30 20 1 19 21
M  V30 21 2 20 22
M  V30 22 1 22 23
M  V30 23 1 23 24
M  V30 24 1 23 25
M  V30 25 1 8 9
M  V30 26 1 15 17
M  V30 27 1 21 22
M  V30 28 1 24 25
M  V30 END BOND
M  V30 END CTAB
M  END
>  <Compound ID>
247

>  <Name>


>  <Uniprot>
O00444

>  <Target>
PLK4

>  <Smiles>
N#CCC1=CC=C(NC2=NC=CC(NC3=N[NH]C(C4CC4)=C3)=N2)C=C1

>  <Kd (nM)>


>  <Assay (Kd)>


>  <Ki (nM)>


>  <Assay (Ki)>


>  <IC50 (nM)>


>  <Assay (IC50)>


>  <EC50 (nM)>


>  <Assay (EC50)>


>  <Article DOI>
10.1016/j.cell.2020.10.038

>  <Molecular Weight>
331.383

>  <Exact Mass>
331.154543544

>  <XLogP3>
2.81

>  <Heavy Atom Count>
25

>  <Ring Count>
4

>  <Hydrogen Bond Acceptor Count>
6

>  <Hydrogen Bond Donor Count>
3

>  <Rotatable Bond Count>
6

>  <Topological Polar Surface Area>
102.31

>  <Molecular Formula>
C18H17N7

>  <InChI>
InChI=1S/C18H17N7/c19-9-7-12-1-5-14(6-2-12)21-18-20-10-8-16(23-18)22-17-11-15(24-25-17)13-3-4-13/h1-2,5-6,8,10-11,13H,3-4,7H2,(H3,20,21,22,23,24,25)

>  <InChI Key>
YRRRHSNOXWKVDL-UHFFFAOYSA-N

>  <BindingDB>


>  <PubChem>
45111332

>  <ChEMBL>


$$$$
Compound 905
Actelion Java MolfileCreator 2.0

  0  0  0  0  0  0              0 V3000
M  V30 BEGIN CTAB
M  V30 COUNTS 25 28 0 0 0
M  V30 BEGIN ATOM
M  V30 1 N 0.0 0.0 0.0 0
M  V30 2 C 1.3434 -0.642 0.0 0
M  V30 3 C 2.6869 -1.284 0.0 0
M  V30 4 C 3.9234 -0.428 0.0 0
M  V30 5 C 3.8045 1.0938 0.0 0
M  V30 6 C 5.2669 -1.07 0.0 0
M  V30 7 C 5.041 1.9498 0.0 0
M  V30 8 C 6.5034 -0.214 0.0 0
M  V30 9 C 6.3845 1.3078 0.0 0
M  V30 10 N 7.621 2.1638 0.0 0
M  V30 11 C 8.9645 1.5218 0.0 0
M  V30 12 N 10.201 2.3778 0.0 0
M  V30 13 N 9.0596 0.0237 0.0 0
M  V30 14 C 11.5445 1.7358 0.0 0
M  V30 15 C 10.4031 -0.6182 0.0 0
M  V30 16 N 12.781 2.5918 0.0 0
M  V30 17 C 11.6396 0.2377 0.0 0
M  V30 18 C 14.1245 1.9498 0.0 0
M  V30 19 N 15.4442 2.6751 0.0 0
M  V30 20 C 14.3742 0.4755 0.0 0
M  V30 21 N 16.5261 1.6407 0.0 0
M  V30 22 C 15.8603 0.2853 0.0 0
M  V30 23 C 16.5618 -1.0343 0.0 0
M  V30 24 C 17.834 -1.819 0.0 0
M  V30 25 C 16.5024 -2.5324 0.0 0
M  V30 END ATOM
M  V30 BEGIN BOND
M  V30 1 3 1 2
M  V30 2 1 2 3
M  V30 3 1 3 4
M  V30 4 2 4 5
M  V30 5 1 4 6
M  V30 6 1 5 7
M  V30 7 2 6 8
M  V30 8 2 7 9
M  V30 9 1 9 10
M  V30 10 1 10 11
M  V30 11 2 11 12
M  V30 12 1 11 13
M  V30 13 1 12 14
M  V30 14 2 13 15
M  V30 15 1 14 16
M  V30 16 2 14 17
M  V30 17 1 16 18
M  V30 18 2 18 19
M  V30 19 1 18 20
M  V30 20 1 19 21
M  V30 21 2 20 22
M  V30 22 1 22 23
M  V30 23 1 23 24
M  V30 24 1 23 25
M  V30 25 1 8 9
M  V30 26 1 15 17
M  V30 27 1 21 22
M  V30 28 1 24 25
M  V30 END BOND
M  V30 END CTAB
M  END
>  <Compound ID>
247

>  <Name>


>  <Uniprot>
O94768

>  <Target>
STK17B

>  <Smiles>
N#CCC1=CC=C(NC2=NC=CC(NC3=N[NH]C(C4CC4)=C3)=N2)C=C1

>  <Kd (nM)>


>  <Assay (Kd)>


>  <Ki (nM)>


>  <Assay (Ki)>


>  <IC50 (nM)>


>  <Assay (IC50)>


>  <EC50 (nM)>


>  <Assay (EC50)>


>  <Article DOI>
10.1016/j.cell.2020.10.038

>  <Molecular Weight>
331.383

>  <Exact Mass>
331.154543544

>  <XLogP3>
2.81

>  <Heavy Atom Count>
25

>  <Ring Count>
4

>  <Hydrogen Bond Acceptor Count>
6

>  <Hydrogen Bond Donor Count>
3

>  <Rotatable Bond Count>
6

>  <Topological Polar Surface Area>
102.31

>  <Molecular Formula>
C18H17N7

>  <InChI>
InChI=1S/C18H17N7/c19-9-7-12-1-5-14(6-2-12)21-18-20-10-8-16(23-18)22-17-11-15(24-25-17)13-3-4-13/h1-2,5-6,8,10-11,13H,3-4,7H2,(H3,20,21,22,23,24,25)

>  <InChI Key>
YRRRHSNOXWKVDL-UHFFFAOYSA-N

>  <BindingDB>


>  <PubChem>
45111332

>  <ChEMBL>


$$$$
Compound 906
Actelion Java MolfileCreator 2.0

  0  0  0  0  0  0              0 V3000
M  V30 BEGIN CTAB
M  V30 COUNTS 43 48 0 0 0
M  V30 BEGIN ATOM
M  V30 1 O 0.0 0.0 0.0 0
M  V30 2 C -0.2708 -1.4602 0.0 0
M  V30 3 N -1.684 -1.9666 0.0 0
M  V30 4 C 0.8596 -2.4141 0.0 0
M  V30 5 C -2.838 -0.9892 0.0 0
M  V30 6 C 2.2492 -1.8842 0.0 0
M  V30 7 C -2.5907 0.4946 0.0 0
M  V30 8 C -4.2512 -1.4955 0.0 0
M  V30 9 O -1.2011 1.0245 0.0 0
M  V30 10 C -3.7448 1.472 0.0 0
M  V30 11 C -5.4053 -0.5181 0.0 0
M  V30 12 C -0.9538 2.5083 0.0 0
M  V30 13 C -5.158 0.9656 0.0 0
M  V30 14 C -6.8184 -1.0245 0.0 0
M  V30 15 C 0.4357 3.0382 0.0 0
M  V30 16 C -2.1079 3.4857 0.0 0
M  V30 17 N -8.0667 -0.1766 0.0 0
M  V30 18 C -7.2423 -2.4494 0.0 0
M  V30 19 C 0.683 4.522 0.0 0
M  V30 20 C -1.8606 4.9695 0.0 0
M  V30 21 N -9.2561 -1.0834 0.0 0
M  V30 22 C -6.4651 -3.7095 0.0 0
M  V30 23 C -8.7497 -2.4965 0.0 0
M  V30 24 C -0.471 5.4995 0.0 0
M  V30 25 C -10.7046 -0.6594 0.0 0
M  V30 26 N -7.1835 -5.0166 0.0 0
M  V30 27 N -4.9813 -3.6388 0.0 0
M  V30 28 N -9.4681 -3.8037 0.0 0
M  V30 29 C -11.0814 0.8007 0.0 0
M  V30 30 C -11.788 -1.684 0.0 0
M  V30 31 C -8.6908 -5.0637 0.0 0
M  V30 32 C -12.5299 1.2247 0.0 0
M  V30 33 C -13.2365 -1.26 0.0 0
M  V30 34 C -13.6133 0.2001 0.0 0
M  V30 35 N -15.0618 0.6241 0.0 0
M  V30 36 C -15.4386 2.0843 0.0 0
M  V30 37 C -16.1452 -0.4003 0.0 0
M  V30 38 C -16.8871 2.5083 0.0 0
M  V30 39 C -17.5937 0.0235 0.0 0
M  V30 40 N -17.9705 1.4838 0.0 0
M  V30 41 C -19.419 1.9077 0.0 0
M  V30 42 O -20.5024 0.8832 0.0 0
M  V30 43 C -19.7958 3.368 0.0 0
M  V30 END ATOM
M  V30 BEGIN BOND
M  V30 1 2 1 2
M  V30 2 1 2 3
M  V30 3 1 2 4
M  V30 4 1 3 5
M  V30 5 2 4 6
M  V30 6 2 5 7
M  V30 7 1 5 8
M  V30 8 1 7 9
M  V30 9 1 7 10
M  V30 10 2 8 11
M  V30 11 1 9 12
M  V30 12 2 10 13
M  V30 13 1 11 14
M  V30 14 2 12 15
M  V30 15 1 12 16
M  V30 16 2 14 17
M  V30 17 1 14 18
M  V30 18 1 15 19
M  V30 19 2 16 20
M  V30 20 1 17 21
M  V30 21 2 18 22
M  V30 22 1 18 23
M  V30 23 2 19 24
M  V30 24 1 21 25
M  V30 25 1 22 26
M  V30 26 1 22 27
M  V30 27 2 23 28
M  V30 28 1 25 29
M  V30 29 1 25 30
M  V30 30 2 26 31
M  V30 31 1 29 32
M  V30 32 1 30 33
M  V30 33 1 32 34
M  V30 34 1 34 35
M  V30 35 1 35 36
M  V30 36 1 35 37
M  V30 37 1 36 38
M  V30 38 1 37 39
M  V30 39 1 38 40
M  V30 40 1 40 41
M  V30 41 2 41 42
M  V30 42 1 41 43
M  V30 43 1 11 13
M  V30 44 1 20 24
M  V30 45 1 21 23
M  V30 46 1 28 31
M  V30 47 1 33 34
M  V30 48 1 39 40
M  V30 END BOND
M  V30 END CTAB
M  END
>  <Compound ID>
248

>  <Name>
TX1-85-1

>  <Uniprot>
P00519

>  <Target>
ABL1

>  <Smiles>
C=CC(=O)NC1=CC(C2=NN(C3CCC(N4CCN(C(C)=O)CC4)CC3)C3=NC=NC(N)=C23)=CC=C1OC1=CC=CC=C1

>  <Kd (nM)>


>  <Assay (Kd)>


>  <Ki (nM)>


>  <Assay (Ki)>


>  <IC50 (nM)>


>  <Assay (IC50)>


>  <EC50 (nM)>


>  <Assay (EC50)>


>  <Article DOI>
10.1016/j.cell.2020.10.038

>  <Molecular Weight>
580.693

>  <Exact Mass>
580.291037012

>  <XLogP3>
3.34

>  <Heavy Atom Count>
43

>  <Ring Count>
6

>  <Hydrogen Bond Acceptor Count>
9

>  <Hydrogen Bond Donor Count>
2

>  <Rotatable Bond Count>
7

>  <Topological Polar Surface Area>
131.5

>  <Molecular Formula>
C32H36N8O3

>  <InChI>
InChI=1S/C32H36N8O3/c1-3-28(42)36-26-19-22(9-14-27(26)43-25-7-5-4-6-8-25)30-29-31(33)34-20-35-32(29)40(37-30)24-12-10-23(11-13-24)39-17-15-38(16-18-39)21(2)41/h3-9,14,19-20,23-24H,1,10-13,15-18H2,2H3,(H,36,42)(H2,33,34,35)

>  <InChI Key>
FYICDSWKKFSYOM-UHFFFAOYSA-N

>  <BindingDB>


>  <PubChem>
78243752

>  <ChEMBL>


$$$$
Compound 907
Actelion Java MolfileCreator 2.0

  0  0  0  0  0  0              0 V3000
M  V30 BEGIN CTAB
M  V30 COUNTS 43 48 0 0 0
M  V30 BEGIN ATOM
M  V30 1 O 0.0 0.0 0.0 0
M  V30 2 C -0.2708 -1.4602 0.0 0
M  V30 3 N -1.684 -1.9666 0.0 0
M  V30 4 C 0.8596 -2.4141 0.0 0
M  V30 5 C -2.838 -0.9892 0.0 0
M  V30 6 C 2.2492 -1.8842 0.0 0
M  V30 7 C -2.5907 0.4946 0.0 0
M  V30 8 C -4.2512 -1.4955 0.0 0
M  V30 9 O -1.2011 1.0245 0.0 0
M  V30 10 C -3.7448 1.472 0.0 0
M  V30 11 C -5.4053 -0.5181 0.0 0
M  V30 12 C -0.9538 2.5083 0.0 0
M  V30 13 C -5.158 0.9656 0.0 0
M  V30 14 C -6.8184 -1.0245 0.0 0
M  V30 15 C 0.4357 3.0382 0.0 0
M  V30 16 C -2.1079 3.4857 0.0 0
M  V30 17 N -8.0667 -0.1766 0.0 0
M  V30 18 C -7.2423 -2.4494 0.0 0
M  V30 19 C 0.683 4.522 0.0 0
M  V30 20 C -1.8606 4.9695 0.0 0
M  V30 21 N -9.2561 -1.0834 0.0 0
M  V30 22 C -6.4651 -3.7095 0.0 0
M  V30 23 C -8.7497 -2.4965 0.0 0
M  V30 24 C -0.471 5.4995 0.0 0
M  V30 25 C -10.7046 -0.6594 0.0 0
M  V30 26 N -7.1835 -5.0166 0.0 0
M  V30 27 N -4.9813 -3.6388 0.0 0
M  V30 28 N -9.4681 -3.8037 0.0 0
M  V30 29 C -11.0814 0.8007 0.0 0
M  V30 30 C -11.788 -1.684 0.0 0
M  V30 31 C -8.6908 -5.0637 0.0 0
M  V30 32 C -12.5299 1.2247 0.0 0
M  V30 33 C -13.2365 -1.26 0.0 0
M  V30 34 C -13.6133 0.2001 0.0 0
M  V30 35 N -15.0618 0.6241 0.0 0
M  V30 36 C -15.4386 2.0843 0.0 0
M  V30 37 C -16.1452 -0.4003 0.0 0
M  V30 38 C -16.8871 2.5083 0.0 0
M  V30 39 C -17.5937 0.0235 0.0 0
M  V30 40 N -17.9705 1.4838 0.0 0
M  V30 41 C -19.419 1.9077 0.0 0
M  V30 42 O -20.5024 0.8832 0.0 0
M  V30 43 C -19.7958 3.368 0.0 0
M  V30 END ATOM
M  V30 BEGIN BOND
M  V30 1 2 1 2
M  V30 2 1 2 3
M  V30 3 1 2 4
M  V30 4 1 3 5
M  V30 5 2 4 6
M  V30 6 2 5 7
M  V30 7 1 5 8
M  V30 8 1 7 9
M  V30 9 1 7 10
M  V30 10 2 8 11
M  V30 11 1 9 12
M  V30 12 2 10 13
M  V30 13 1 11 14
M  V30 14 2 12 15
M  V30 15 1 12 16
M  V30 16 2 14 17
M  V30 17 1 14 18
M  V30 18 1 15 19
M  V30 19 2 16 20
M  V30 20 1 17 21
M  V30 21 2 18 22
M  V30 22 1 18 23
M  V30 23 2 19 24
M  V30 24 1 21 25
M  V30 25 1 22 26
M  V30 26 1 22 27
M  V30 27 2 23 28
M  V30 28 1 25 29
M  V30 29 1 25 30
M  V30 30 2 26 31
M  V30 31 1 29 32
M  V30 32 1 30 33
M  V30 33 1 32 34
M  V30 34 1 34 35
M  V30 35 1 35 36
M  V30 36 1 35 37
M  V30 37 1 36 38
M  V30 38 1 37 39
M  V30 39 1 38 40
M  V30 40 1 40 41
M  V30 41 2 41 42
M  V30 42 1 41 43
M  V30 43 1 11 13
M  V30 44 1 20 24
M  V30 45 1 21 23
M  V30 46 1 28 31
M  V30 47 1 33 34
M  V30 48 1 39 40
M  V30 END BOND
M  V30 END CTAB
M  END
>  <Compound ID>
248

>  <Name>
TX1-85-1

>  <Uniprot>
P42684

>  <Target>
ABL2

>  <Smiles>
C=CC(=O)NC1=CC(C2=NN(C3CCC(N4CCN(C(C)=O)CC4)CC3)C3=NC=NC(N)=C23)=CC=C1OC1=CC=CC=C1

>  <Kd (nM)>


>  <Assay (Kd)>


>  <Ki (nM)>


>  <Assay (Ki)>


>  <IC50 (nM)>


>  <Assay (IC50)>


>  <EC50 (nM)>


>  <Assay (EC50)>


>  <Article DOI>
10.1016/j.cell.2020.10.038

>  <Molecular Weight>
580.693

>  <Exact Mass>
580.291037012

>  <XLogP3>
3.34

>  <Heavy Atom Count>
43

>  <Ring Count>
6

>  <Hydrogen Bond Acceptor Count>
9

>  <Hydrogen Bond Donor Count>
2

>  <Rotatable Bond Count>
7

>  <Topological Polar Surface Area>
131.5

>  <Molecular Formula>
C32H36N8O3

>  <InChI>
InChI=1S/C32H36N8O3/c1-3-28(42)36-26-19-22(9-14-27(26)43-25-7-5-4-6-8-25)30-29-31(33)34-20-35-32(29)40(37-30)24-12-10-23(11-13-24)39-17-15-38(16-18-39)21(2)41/h3-9,14,19-20,23-24H,1,10-13,15-18H2,2H3,(H,36,42)(H2,33,34,35)

>  <InChI Key>
FYICDSWKKFSYOM-UHFFFAOYSA-N

>  <BindingDB>


>  <PubChem>
78243752

>  <ChEMBL>


$$$$
Compound 908
Actelion Java MolfileCreator 2.0

  0  0  0  0  0  0              0 V3000
M  V30 BEGIN CTAB
M  V30 COUNTS 43 48 0 0 0
M  V30 BEGIN ATOM
M  V30 1 O 0.0 0.0 0.0 0
M  V30 2 C -0.2708 -1.4602 0.0 0
M  V30 3 N -1.684 -1.9666 0.0 0
M  V30 4 C 0.8596 -2.4141 0.0 0
M  V30 5 C -2.838 -0.9892 0.0 0
M  V30 6 C 2.2492 -1.8842 0.0 0
M  V30 7 C -2.5907 0.4946 0.0 0
M  V30 8 C -4.2512 -1.4955 0.0 0
M  V30 9 O -1.2011 1.0245 0.0 0
M  V30 10 C -3.7448 1.472 0.0 0
M  V30 11 C -5.4053 -0.5181 0.0 0
M  V30 12 C -0.9538 2.5083 0.0 0
M  V30 13 C -5.158 0.9656 0.0 0
M  V30 14 C -6.8184 -1.0245 0.0 0
M  V30 15 C 0.4357 3.0382 0.0 0
M  V30 16 C -2.1079 3.4857 0.0 0
M  V30 17 N -8.0667 -0.1766 0.0 0
M  V30 18 C -7.2423 -2.4494 0.0 0
M  V30 19 C 0.683 4.522 0.0 0
M  V30 20 C -1.8606 4.9695 0.0 0
M  V30 21 N -9.2561 -1.0834 0.0 0
M  V30 22 C -6.4651 -3.7095 0.0 0
M  V30 23 C -8.7497 -2.4965 0.0 0
M  V30 24 C -0.471 5.4995 0.0 0
M  V30 25 C -10.7046 -0.6594 0.0 0
M  V30 26 N -7.1835 -5.0166 0.0 0
M  V30 27 N -4.9813 -3.6388 0.0 0
M  V30 28 N -9.4681 -3.8037 0.0 0
M  V30 29 C -11.0814 0.8007 0.0 0
M  V30 30 C -11.788 -1.684 0.0 0
M  V30 31 C -8.6908 -5.0637 0.0 0
M  V30 32 C -12.5299 1.2247 0.0 0
M  V30 33 C -13.2365 -1.26 0.0 0
M  V30 34 C -13.6133 0.2001 0.0 0
M  V30 35 N -15.0618 0.6241 0.0 0
M  V30 36 C -15.4386 2.0843 0.0 0
M  V30 37 C -16.1452 -0.4003 0.0 0
M  V30 38 C -16.8871 2.5083 0.0 0
M  V30 39 C -17.5937 0.0235 0.0 0
M  V30 40 N -17.9705 1.4838 0.0 0
M  V30 41 C -19.419 1.9077 0.0 0
M  V30 42 O -20.5024 0.8832 0.0 0
M  V30 43 C -19.7958 3.368 0.0 0
M  V30 END ATOM
M  V30 BEGIN BOND
M  V30 1 2 1 2
M  V30 2 1 2 3
M  V30 3 1 2 4
M  V30 4 1 3 5
M  V30 5 2 4 6
M  V30 6 2 5 7
M  V30 7 1 5 8
M  V30 8 1 7 9
M  V30 9 1 7 10
M  V30 10 2 8 11
M  V30 11 1 9 12
M  V30 12 2 10 13
M  V30 13 1 11 14
M  V30 14 2 12 15
M  V30 15 1 12 16
M  V30 16 2 14 17
M  V30 17 1 14 18
M  V30 18 1 15 19
M  V30 19 2 16 20
M  V30 20 1 17 21
M  V30 21 2 18 22
M  V30 22 1 18 23
M  V30 23 2 19 24
M  V30 24 1 21 25
M  V30 25 1 22 26
M  V30 26 1 22 27
M  V30 27 2 23 28
M  V30 28 1 25 29
M  V30 29 1 25 30
M  V30 30 2 26 31
M  V30 31 1 29 32
M  V30 32 1 30 33
M  V30 33 1 32 34
M  V30 34 1 34 35
M  V30 35 1 35 36
M  V30 36 1 35 37
M  V30 37 1 36 38
M  V30 38 1 37 39
M  V30 39 1 38 40
M  V30 40 1 40 41
M  V30 41 2 41 42
M  V30 42 1 41 43
M  V30 43 1 11 13
M  V30 44 1 20 24
M  V30 45 1 21 23
M  V30 46 1 28 31
M  V30 47 1 33 34
M  V30 48 1 39 40
M  V30 END BOND
M  V30 END CTAB
M  END
>  <Compound ID>
248

>  <Name>
TX1-85-1

>  <Uniprot>
O14965

>  <Target>
AURKA

>  <Smiles>
C=CC(=O)NC1=CC(C2=NN(C3CCC(N4CCN(C(C)=O)CC4)CC3)C3=NC=NC(N)=C23)=CC=C1OC1=CC=CC=C1

>  <Kd (nM)>


>  <Assay (Kd)>


>  <Ki (nM)>


>  <Assay (Ki)>


>  <IC50 (nM)>


>  <Assay (IC50)>


>  <EC50 (nM)>


>  <Assay (EC50)>


>  <Article DOI>
10.1016/j.cell.2020.10.038

>  <Molecular Weight>
580.693

>  <Exact Mass>
580.291037012

>  <XLogP3>
3.34

>  <Heavy Atom Count>
43

>  <Ring Count>
6

>  <Hydrogen Bond Acceptor Count>
9

>  <Hydrogen Bond Donor Count>
2

>  <Rotatable Bond Count>
7

>  <Topological Polar Surface Area>
131.5

>  <Molecular Formula>
C32H36N8O3

>  <InChI>
InChI=1S/C32H36N8O3/c1-3-28(42)36-26-19-22(9-14-27(26)43-25-7-5-4-6-8-25)30-29-31(33)34-20-35-32(29)40(37-30)24-12-10-23(11-13-24)39-17-15-38(16-18-39)21(2)41/h3-9,14,19-20,23-24H,1,10-13,15-18H2,2H3,(H,36,42)(H2,33,34,35)

>  <InChI Key>
FYICDSWKKFSYOM-UHFFFAOYSA-N

>  <BindingDB>


>  <PubChem>
78243752

>  <ChEMBL>


$$$$
Compound 909
Actelion Java MolfileCreator 2.0

  0  0  0  0  0  0              0 V3000
M  V30 BEGIN CTAB
M  V30 COUNTS 43 48 0 0 0
M  V30 BEGIN ATOM
M  V30 1 O 0.0 0.0 0.0 0
M  V30 2 C -0.2708 -1.4602 0.0 0
M  V30 3 N -1.684 -1.9666 0.0 0
M  V30 4 C 0.8596 -2.4141 0.0 0
M  V30 5 C -2.838 -0.9892 0.0 0
M  V30 6 C 2.2492 -1.8842 0.0 0
M  V30 7 C -2.5907 0.4946 0.0 0
M  V30 8 C -4.2512 -1.4955 0.0 0
M  V30 9 O -1.2011 1.0245 0.0 0
M  V30 10 C -3.7448 1.472 0.0 0
M  V30 11 C -5.4053 -0.5181 0.0 0
M  V30 12 C -0.9538 2.5083 0.0 0
M  V30 13 C -5.158 0.9656 0.0 0
M  V30 14 C -6.8184 -1.0245 0.0 0
M  V30 15 C 0.4357 3.0382 0.0 0
M  V30 16 C -2.1079 3.4857 0.0 0
M  V30 17 N -8.0667 -0.1766 0.0 0
M  V30 18 C -7.2423 -2.4494 0.0 0
M  V30 19 C 0.683 4.522 0.0 0
M  V30 20 C -1.8606 4.9695 0.0 0
M  V30 21 N -9.2561 -1.0834 0.0 0
M  V30 22 C -6.4651 -3.7095 0.0 0
M  V30 23 C -8.7497 -2.4965 0.0 0
M  V30 24 C -0.471 5.4995 0.0 0
M  V30 25 C -10.7046 -0.6594 0.0 0
M  V30 26 N -7.1835 -5.0166 0.0 0
M  V30 27 N -4.9813 -3.6388 0.0 0
M  V30 28 N -9.4681 -3.8037 0.0 0
M  V30 29 C -11.0814 0.8007 0.0 0
M  V30 30 C -11.788 -1.684 0.0 0
M  V30 31 C -8.6908 -5.0637 0.0 0
M  V30 32 C -12.5299 1.2247 0.0 0
M  V30 33 C -13.2365 -1.26 0.0 0
M  V30 34 C -13.6133 0.2001 0.0 0
M  V30 35 N -15.0618 0.6241 0.0 0
M  V30 36 C -15.4386 2.0843 0.0 0
M  V30 37 C -16.1452 -0.4003 0.0 0
M  V30 38 C -16.8871 2.5083 0.0 0
M  V30 39 C -17.5937 0.0235 0.0 0
M  V30 40 N -17.9705 1.4838 0.0 0
M  V30 41 C -19.419 1.9077 0.0 0
M  V30 42 O -20.5024 0.8832 0.0 0
M  V30 43 C -19.7958 3.368 0.0 0
M  V30 END ATOM
M  V30 BEGIN BOND
M  V30 1 2 1 2
M  V30 2 1 2 3
M  V30 3 1 2 4
M  V30 4 1 3 5
M  V30 5 2 4 6
M  V30 6 2 5 7
M  V30 7 1 5 8
M  V30 8 1 7 9
M  V30 9 1 7 10
M  V30 10 2 8 11
M  V30 11 1 9 12
M  V30 12 2 10 13
M  V30 13 1 11 14
M  V30 14 2 12 15
M  V30 15 1 12 16
M  V30 16 2 14 17
M  V30 17 1 14 18
M  V30 18 1 15 19
M  V30 19 2 16 20
M  V30 20 1 17 21
M  V30 21 2 18 22
M  V30 22 1 18 23
M  V30 23 2 19 24
M  V30 24 1 21 25
M  V30 25 1 22 26
M  V30 26 1 22 27
M  V30 27 2 23 28
M  V30 28 1 25 29
M  V30 29 1 25 30
M  V30 30 2 26 31
M  V30 31 1 29 32
M  V30 32 1 30 33
M  V30 33 1 32 34
M  V30 34 1 34 35
M  V30 35 1 35 36
M  V30 36 1 35 37
M  V30 37 1 36 38
M  V30 38 1 37 39
M  V30 39 1 38 40
M  V30 40 1 40 41
M  V30 41 2 41 42
M  V30 42 1 41 43
M  V30 43 1 11 13
M  V30 44 1 20 24
M  V30 45 1 21 23
M  V30 46 1 28 31
M  V30 47 1 33 34
M  V30 48 1 39 40
M  V30 END BOND
M  V30 END CTAB
M  END
>  <Compound ID>
248

>  <Name>
TX1-85-1

>  <Uniprot>
P51451

>  <Target>
BLK

>  <Smiles>
C=CC(=O)NC1=CC(C2=NN(C3CCC(N4CCN(C(C)=O)CC4)CC3)C3=NC=NC(N)=C23)=CC=C1OC1=CC=CC=C1

>  <Kd (nM)>


>  <Assay (Kd)>


>  <Ki (nM)>


>  <Assay (Ki)>


>  <IC50 (nM)>


>  <Assay (IC50)>


>  <EC50 (nM)>


>  <Assay (EC50)>


>  <Article DOI>
10.1016/j.cell.2020.10.038

>  <Molecular Weight>
580.693

>  <Exact Mass>
580.291037012

>  <XLogP3>
3.34

>  <Heavy Atom Count>
43

>  <Ring Count>
6

>  <Hydrogen Bond Acceptor Count>
9

>  <Hydrogen Bond Donor Count>
2

>  <Rotatable Bond Count>
7

>  <Topological Polar Surface Area>
131.5

>  <Molecular Formula>
C32H36N8O3

>  <InChI>
InChI=1S/C32H36N8O3/c1-3-28(42)36-26-19-22(9-14-27(26)43-25-7-5-4-6-8-25)30-29-31(33)34-20-35-32(29)40(37-30)24-12-10-23(11-13-24)39-17-15-38(16-18-39)21(2)41/h3-9,14,19-20,23-24H,1,10-13,15-18H2,2H3,(H,36,42)(H2,33,34,35)

>  <InChI Key>
FYICDSWKKFSYOM-UHFFFAOYSA-N

>  <BindingDB>


>  <PubChem>
78243752

>  <ChEMBL>


$$$$
Compound 910
Actelion Java MolfileCreator 2.0

  0  0  0  0  0  0              0 V3000
M  V30 BEGIN CTAB
M  V30 COUNTS 43 48 0 0 0
M  V30 BEGIN ATOM
M  V30 1 O 0.0 0.0 0.0 0
M  V30 2 C -0.2708 -1.4602 0.0 0
M  V30 3 N -1.684 -1.9666 0.0 0
M  V30 4 C 0.8596 -2.4141 0.0 0
M  V30 5 C -2.838 -0.9892 0.0 0
M  V30 6 C 2.2492 -1.8842 0.0 0
M  V30 7 C -2.5907 0.4946 0.0 0
M  V30 8 C -4.2512 -1.4955 0.0 0
M  V30 9 O -1.2011 1.0245 0.0 0
M  V30 10 C -3.7448 1.472 0.0 0
M  V30 11 C -5.4053 -0.5181 0.0 0
M  V30 12 C -0.9538 2.5083 0.0 0
M  V30 13 C -5.158 0.9656 0.0 0
M  V30 14 C -6.8184 -1.0245 0.0 0
M  V30 15 C 0.4357 3.0382 0.0 0
M  V30 16 C -2.1079 3.4857 0.0 0
M  V30 17 N -8.0667 -0.1766 0.0 0
M  V30 18 C -7.2423 -2.4494 0.0 0
M  V30 19 C 0.683 4.522 0.0 0
M  V30 20 C -1.8606 4.9695 0.0 0
M  V30 21 N -9.2561 -1.0834 0.0 0
M  V30 22 C -6.4651 -3.7095 0.0 0
M  V30 23 C -8.7497 -2.4965 0.0 0
M  V30 24 C -0.471 5.4995 0.0 0
M  V30 25 C -10.7046 -0.6594 0.0 0
M  V30 26 N -7.1835 -5.0166 0.0 0
M  V30 27 N -4.9813 -3.6388 0.0 0
M  V30 28 N -9.4681 -3.8037 0.0 0
M  V30 29 C -11.0814 0.8007 0.0 0
M  V30 30 C -11.788 -1.684 0.0 0
M  V30 31 C -8.6908 -5.0637 0.0 0
M  V30 32 C -12.5299 1.2247 0.0 0
M  V30 33 C -13.2365 -1.26 0.0 0
M  V30 34 C -13.6133 0.2001 0.0 0
M  V30 35 N -15.0618 0.6241 0.0 0
M  V30 36 C -15.4386 2.0843 0.0 0
M  V30 37 C -16.1452 -0.4003 0.0 0
M  V30 38 C -16.8871 2.5083 0.0 0
M  V30 39 C -17.5937 0.0235 0.0 0
M  V30 40 N -17.9705 1.4838 0.0 0
M  V30 41 C -19.419 1.9077 0.0 0
M  V30 42 O -20.5024 0.8832 0.0 0
M  V30 43 C -19.7958 3.368 0.0 0
M  V30 END ATOM
M  V30 BEGIN BOND
M  V30 1 2 1 2
M  V30 2 1 2 3
M  V30 3 1 2 4
M  V30 4 1 3 5
M  V30 5 2 4 6
M  V30 6 2 5 7
M  V30 7 1 5 8
M  V30 8 1 7 9
M  V30 9 1 7 10
M  V30 10 2 8 11
M  V30 11 1 9 12
M  V30 12 2 10 13
M  V30 13 1 11 14
M  V30 14 2 12 15
M  V30 15 1 12 16
M  V30 16 2 14 17
M  V30 17 1 14 18
M  V30 18 1 15 19
M  V30 19 2 16 20
M  V30 20 1 17 21
M  V30 21 2 18 22
M  V30 22 1 18 23
M  V30 23 2 19 24
M  V30 24 1 21 25
M  V30 25 1 22 26
M  V30 26 1 22 27
M  V30 27 2 23 28
M  V30 28 1 25 29
M  V30 29 1 25 30
M  V30 30 2 26 31
M  V30 31 1 29 32
M  V30 32 1 30 33
M  V30 33 1 32 34
M  V30 34 1 34 35
M  V30 35 1 35 36
M  V30 36 1 35 37
M  V30 37 1 36 38
M  V30 38 1 37 39
M  V30 39 1 38 40
M  V30 40 1 40 41
M  V30 41 2 41 42
M  V30 42 1 41 43
M  V30 43 1 11 13
M  V30 44 1 20 24
M  V30 45 1 21 23
M  V30 46 1 28 31
M  V30 47 1 33 34
M  V30 48 1 39 40
M  V30 END BOND
M  V30 END CTAB
M  END
>  <Compound ID>
248

>  <Name>
TX1-85-1

>  <Uniprot>
P41240

>  <Target>
CSK

>  <Smiles>
C=CC(=O)NC1=CC(C2=NN(C3CCC(N4CCN(C(C)=O)CC4)CC3)C3=NC=NC(N)=C23)=CC=C1OC1=CC=CC=C1

>  <Kd (nM)>


>  <Assay (Kd)>


>  <Ki (nM)>


>  <Assay (Ki)>


>  <IC50 (nM)>


>  <Assay (IC50)>


>  <EC50 (nM)>


>  <Assay (EC50)>


>  <Article DOI>
10.1016/j.cell.2020.10.038

>  <Molecular Weight>
580.693

>  <Exact Mass>
580.291037012

>  <XLogP3>
3.34

>  <Heavy Atom Count>
43

>  <Ring Count>
6

>  <Hydrogen Bond Acceptor Count>
9

>  <Hydrogen Bond Donor Count>
2

>  <Rotatable Bond Count>
7

>  <Topological Polar Surface Area>
131.5

>  <Molecular Formula>
C32H36N8O3

>  <InChI>
InChI=1S/C32H36N8O3/c1-3-28(42)36-26-19-22(9-14-27(26)43-25-7-5-4-6-8-25)30-29-31(33)34-20-35-32(29)40(37-30)24-12-10-23(11-13-24)39-17-15-38(16-18-39)21(2)41/h3-9,14,19-20,23-24H,1,10-13,15-18H2,2H3,(H,36,42)(H2,33,34,35)

>  <InChI Key>
FYICDSWKKFSYOM-UHFFFAOYSA-N

>  <BindingDB>


>  <PubChem>
78243752

>  <ChEMBL>


$$$$
Compound 911
Actelion Java MolfileCreator 2.0

  0  0  0  0  0  0              0 V3000
M  V30 BEGIN CTAB
M  V30 COUNTS 43 48 0 0 0
M  V30 BEGIN ATOM
M  V30 1 O 0.0 0.0 0.0 0
M  V30 2 C -0.2708 -1.4602 0.0 0
M  V30 3 N -1.684 -1.9666 0.0 0
M  V30 4 C 0.8596 -2.4141 0.0 0
M  V30 5 C -2.838 -0.9892 0.0 0
M  V30 6 C 2.2492 -1.8842 0.0 0
M  V30 7 C -2.5907 0.4946 0.0 0
M  V30 8 C -4.2512 -1.4955 0.0 0
M  V30 9 O -1.2011 1.0245 0.0 0
M  V30 10 C -3.7448 1.472 0.0 0
M  V30 11 C -5.4053 -0.5181 0.0 0
M  V30 12 C -0.9538 2.5083 0.0 0
M  V30 13 C -5.158 0.9656 0.0 0
M  V30 14 C -6.8184 -1.0245 0.0 0
M  V30 15 C 0.4357 3.0382 0.0 0
M  V30 16 C -2.1079 3.4857 0.0 0
M  V30 17 N -8.0667 -0.1766 0.0 0
M  V30 18 C -7.2423 -2.4494 0.0 0
M  V30 19 C 0.683 4.522 0.0 0
M  V30 20 C -1.8606 4.9695 0.0 0
M  V30 21 N -9.2561 -1.0834 0.0 0
M  V30 22 C -6.4651 -3.7095 0.0 0
M  V30 23 C -8.7497 -2.4965 0.0 0
M  V30 24 C -0.471 5.4995 0.0 0
M  V30 25 C -10.7046 -0.6594 0.0 0
M  V30 26 N -7.1835 -5.0166 0.0 0
M  V30 27 N -4.9813 -3.6388 0.0 0
M  V30 28 N -9.4681 -3.8037 0.0 0
M  V30 29 C -11.0814 0.8007 0.0 0
M  V30 30 C -11.788 -1.684 0.0 0
M  V30 31 C -8.6908 -5.0637 0.0 0
M  V30 32 C -12.5299 1.2247 0.0 0
M  V30 33 C -13.2365 -1.26 0.0 0
M  V30 34 C -13.6133 0.2001 0.0 0
M  V30 35 N -15.0618 0.6241 0.0 0
M  V30 36 C -15.4386 2.0843 0.0 0
M  V30 37 C -16.1452 -0.4003 0.0 0
M  V30 38 C -16.8871 2.5083 0.0 0
M  V30 39 C -17.5937 0.0235 0.0 0
M  V30 40 N -17.9705 1.4838 0.0 0
M  V30 41 C -19.419 1.9077 0.0 0
M  V30 42 O -20.5024 0.8832 0.0 0
M  V30 43 C -19.7958 3.368 0.0 0
M  V30 END ATOM
M  V30 BEGIN BOND
M  V30 1 2 1 2
M  V30 2 1 2 3
M  V30 3 1 2 4
M  V30 4 1 3 5
M  V30 5 2 4 6
M  V30 6 2 5 7
M  V30 7 1 5 8
M  V30 8 1 7 9
M  V30 9 1 7 10
M  V30 10 2 8 11
M  V30 11 1 9 12
M  V30 12 2 10 13
M  V30 13 1 11 14
M  V30 14 2 12 15
M  V30 15 1 12 16
M  V30 16 2 14 17
M  V30 17 1 14 18
M  V30 18 1 15 19
M  V30 19 2 16 20
M  V30 20 1 17 21
M  V30 21 2 18 22
M  V30 22 1 18 23
M  V30 23 2 19 24
M  V30 24 1 21 25
M  V30 25 1 22 26
M  V30 26 1 22 27
M  V30 27 2 23 28
M  V30 28 1 25 29
M  V30 29 1 25 30
M  V30 30 2 26 31
M  V30 31 1 29 32
M  V30 32 1 30 33
M  V30 33 1 32 34
M  V30 34 1 34 35
M  V30 35 1 35 36
M  V30 36 1 35 37
M  V30 37 1 36 38
M  V30 38 1 37 39
M  V30 39 1 38 40
M  V30 40 1 40 41
M  V30 41 2 41 42
M  V30 42 1 41 43
M  V30 43 1 11 13
M  V30 44 1 20 24
M  V30 45 1 21 23
M  V30 46 1 28 31
M  V30 47 1 33 34
M  V30 48 1 39 40
M  V30 END BOND
M  V30 END CTAB
M  END
>  <Compound ID>
248

>  <Name>
TX1-85-1

>  <Uniprot>
P49674

>  <Target>
CSNK1E

>  <Smiles>
C=CC(=O)NC1=CC(C2=NN(C3CCC(N4CCN(C(C)=O)CC4)CC3)C3=NC=NC(N)=C23)=CC=C1OC1=CC=CC=C1

>  <Kd (nM)>


>  <Assay (Kd)>


>  <Ki (nM)>


>  <Assay (Ki)>


>  <IC50 (nM)>


>  <Assay (IC50)>


>  <EC50 (nM)>


>  <Assay (EC50)>


>  <Article DOI>
10.1016/j.cell.2020.10.038

>  <Molecular Weight>
580.693

>  <Exact Mass>
580.291037012

>  <XLogP3>
3.34

>  <Heavy Atom Count>
43

>  <Ring Count>
6

>  <Hydrogen Bond Acceptor Count>
9

>  <Hydrogen Bond Donor Count>
2

>  <Rotatable Bond Count>
7

>  <Topological Polar Surface Area>
131.5

>  <Molecular Formula>
C32H36N8O3

>  <InChI>
InChI=1S/C32H36N8O3/c1-3-28(42)36-26-19-22(9-14-27(26)43-25-7-5-4-6-8-25)30-29-31(33)34-20-35-32(29)40(37-30)24-12-10-23(11-13-24)39-17-15-38(16-18-39)21(2)41/h3-9,14,19-20,23-24H,1,10-13,15-18H2,2H3,(H,36,42)(H2,33,34,35)

>  <InChI Key>
FYICDSWKKFSYOM-UHFFFAOYSA-N

>  <BindingDB>


>  <PubChem>
78243752

>  <ChEMBL>


$$$$
Compound 912
Actelion Java MolfileCreator 2.0

  0  0  0  0  0  0              0 V3000
M  V30 BEGIN CTAB
M  V30 COUNTS 43 48 0 0 0
M  V30 BEGIN ATOM
M  V30 1 O 0.0 0.0 0.0 0
M  V30 2 C -0.2708 -1.4602 0.0 0
M  V30 3 N -1.684 -1.9666 0.0 0
M  V30 4 C 0.8596 -2.4141 0.0 0
M  V30 5 C -2.838 -0.9892 0.0 0
M  V30 6 C 2.2492 -1.8842 0.0 0
M  V30 7 C -2.5907 0.4946 0.0 0
M  V30 8 C -4.2512 -1.4955 0.0 0
M  V30 9 O -1.2011 1.0245 0.0 0
M  V30 10 C -3.7448 1.472 0.0 0
M  V30 11 C -5.4053 -0.5181 0.0 0
M  V30 12 C -0.9538 2.5083 0.0 0
M  V30 13 C -5.158 0.9656 0.0 0
M  V30 14 C -6.8184 -1.0245 0.0 0
M  V30 15 C 0.4357 3.0382 0.0 0
M  V30 16 C -2.1079 3.4857 0.0 0
M  V30 17 N -8.0667 -0.1766 0.0 0
M  V30 18 C -7.2423 -2.4494 0.0 0
M  V30 19 C 0.683 4.522 0.0 0
M  V30 20 C -1.8606 4.9695 0.0 0
M  V30 21 N -9.2561 -1.0834 0.0 0
M  V30 22 C -6.4651 -3.7095 0.0 0
M  V30 23 C -8.7497 -2.4965 0.0 0
M  V30 24 C -0.471 5.4995 0.0 0
M  V30 25 C -10.7046 -0.6594 0.0 0
M  V30 26 N -7.1835 -5.0166 0.0 0
M  V30 27 N -4.9813 -3.6388 0.0 0
M  V30 28 N -9.4681 -3.8037 0.0 0
M  V30 29 C -11.0814 0.8007 0.0 0
M  V30 30 C -11.788 -1.684 0.0 0
M  V30 31 C -8.6908 -5.0637 0.0 0
M  V30 32 C -12.5299 1.2247 0.0 0
M  V30 33 C -13.2365 -1.26 0.0 0
M  V30 34 C -13.6133 0.2001 0.0 0
M  V30 35 N -15.0618 0.6241 0.0 0
M  V30 36 C -15.4386 2.0843 0.0 0
M  V30 37 C -16.1452 -0.4003 0.0 0
M  V30 38 C -16.8871 2.5083 0.0 0
M  V30 39 C -17.5937 0.0235 0.0 0
M  V30 40 N -17.9705 1.4838 0.0 0
M  V30 41 C -19.419 1.9077 0.0 0
M  V30 42 O -20.5024 0.8832 0.0 0
M  V30 43 C -19.7958 3.368 0.0 0
M  V30 END ATOM
M  V30 BEGIN BOND
M  V30 1 2 1 2
M  V30 2 1 2 3
M  V30 3 1 2 4
M  V30 4 1 3 5
M  V30 5 2 4 6
M  V30 6 2 5 7
M  V30 7 1 5 8
M  V30 8 1 7 9
M  V30 9 1 7 10
M  V30 10 2 8 11
M  V30 11 1 9 12
M  V30 12 2 10 13
M  V30 13 1 11 14
M  V30 14 2 12 15
M  V30 15 1 12 16
M  V30 16 2 14 17
M  V30 17 1 14 18
M  V30 18 1 15 19
M  V30 19 2 16 20
M  V30 20 1 17 21
M  V30 21 2 18 22
M  V30 22 1 18 23
M  V30 23 2 19 24
M  V30 24 1 21 25
M  V30 25 1 22 26
M  V30 26 1 22 27
M  V30 27 2 23 28
M  V30 28 1 25 29
M  V30 29 1 25 30
M  V30 30 2 26 31
M  V30 31 1 29 32
M  V30 32 1 30 33
M  V30 33 1 32 34
M  V30 34 1 34 35
M  V30 35 1 35 36
M  V30 36 1 35 37
M  V30 37 1 36 38
M  V30 38 1 37 39
M  V30 39 1 38 40
M  V30 40 1 40 41
M  V30 41 2 41 42
M  V30 42 1 41 43
M  V30 43 1 11 13
M  V30 44 1 20 24
M  V30 45 1 21 23
M  V30 46 1 28 31
M  V30 47 1 33 34
M  V30 48 1 39 40
M  V30 END BOND
M  V30 END CTAB
M  END
>  <Compound ID>
248

>  <Name>
TX1-85-1

>  <Uniprot>
P06241

>  <Target>
FYN

>  <Smiles>
C=CC(=O)NC1=CC(C2=NN(C3CCC(N4CCN(C(C)=O)CC4)CC3)C3=NC=NC(N)=C23)=CC=C1OC1=CC=CC=C1

>  <Kd (nM)>


>  <Assay (Kd)>


>  <Ki (nM)>


>  <Assay (Ki)>


>  <IC50 (nM)>


>  <Assay (IC50)>


>  <EC50 (nM)>


>  <Assay (EC50)>


>  <Article DOI>
10.1016/j.cell.2020.10.038

>  <Molecular Weight>
580.693

>  <Exact Mass>
580.291037012

>  <XLogP3>
3.34

>  <Heavy Atom Count>
43

>  <Ring Count>
6

>  <Hydrogen Bond Acceptor Count>
9

>  <Hydrogen Bond Donor Count>
2

>  <Rotatable Bond Count>
7

>  <Topological Polar Surface Area>
131.5

>  <Molecular Formula>
C32H36N8O3

>  <InChI>
InChI=1S/C32H36N8O3/c1-3-28(42)36-26-19-22(9-14-27(26)43-25-7-5-4-6-8-25)30-29-31(33)34-20-35-32(29)40(37-30)24-12-10-23(11-13-24)39-17-15-38(16-18-39)21(2)41/h3-9,14,19-20,23-24H,1,10-13,15-18H2,2H3,(H,36,42)(H2,33,34,35)

>  <InChI Key>
FYICDSWKKFSYOM-UHFFFAOYSA-N

>  <BindingDB>


>  <PubChem>
78243752

>  <ChEMBL>


$$$$
Compound 913
Actelion Java MolfileCreator 2.0

  0  0  0  0  0  0              0 V3000
M  V30 BEGIN CTAB
M  V30 COUNTS 43 48 0 0 0
M  V30 BEGIN ATOM
M  V30 1 O 0.0 0.0 0.0 0
M  V30 2 C -0.2708 -1.4602 0.0 0
M  V30 3 N -1.684 -1.9666 0.0 0
M  V30 4 C 0.8596 -2.4141 0.0 0
M  V30 5 C -2.838 -0.9892 0.0 0
M  V30 6 C 2.2492 -1.8842 0.0 0
M  V30 7 C -2.5907 0.4946 0.0 0
M  V30 8 C -4.2512 -1.4955 0.0 0
M  V30 9 O -1.2011 1.0245 0.0 0
M  V30 10 C -3.7448 1.472 0.0 0
M  V30 11 C -5.4053 -0.5181 0.0 0
M  V30 12 C -0.9538 2.5083 0.0 0
M  V30 13 C -5.158 0.9656 0.0 0
M  V30 14 C -6.8184 -1.0245 0.0 0
M  V30 15 C 0.4357 3.0382 0.0 0
M  V30 16 C -2.1079 3.4857 0.0 0
M  V30 17 N -8.0667 -0.1766 0.0 0
M  V30 18 C -7.2423 -2.4494 0.0 0
M  V30 19 C 0.683 4.522 0.0 0
M  V30 20 C -1.8606 4.9695 0.0 0
M  V30 21 N -9.2561 -1.0834 0.0 0
M  V30 22 C -6.4651 -3.7095 0.0 0
M  V30 23 C -8.7497 -2.4965 0.0 0
M  V30 24 C -0.471 5.4995 0.0 0
M  V30 25 C -10.7046 -0.6594 0.0 0
M  V30 26 N -7.1835 -5.0166 0.0 0
M  V30 27 N -4.9813 -3.6388 0.0 0
M  V30 28 N -9.4681 -3.8037 0.0 0
M  V30 29 C -11.0814 0.8007 0.0 0
M  V30 30 C -11.788 -1.684 0.0 0
M  V30 31 C -8.6908 -5.0637 0.0 0
M  V30 32 C -12.5299 1.2247 0.0 0
M  V30 33 C -13.2365 -1.26 0.0 0
M  V30 34 C -13.6133 0.2001 0.0 0
M  V30 35 N -15.0618 0.6241 0.0 0
M  V30 36 C -15.4386 2.0843 0.0 0
M  V30 37 C -16.1452 -0.4003 0.0 0
M  V30 38 C -16.8871 2.5083 0.0 0
M  V30 39 C -17.5937 0.0235 0.0 0
M  V30 40 N -17.9705 1.4838 0.0 0
M  V30 41 C -19.419 1.9077 0.0 0
M  V30 42 O -20.5024 0.8832 0.0 0
M  V30 43 C -19.7958 3.368 0.0 0
M  V30 END ATOM
M  V30 BEGIN BOND
M  V30 1 2 1 2
M  V30 2 1 2 3
M  V30 3 1 2 4
M  V30 4 1 3 5
M  V30 5 2 4 6
M  V30 6 2 5 7
M  V30 7 1 5 8
M  V30 8 1 7 9
M  V30 9 1 7 10
M  V30 10 2 8 11
M  V30 11 1 9 12
M  V30 12 2 10 13
M  V30 13 1 11 14
M  V30 14 2 12 15
M  V30 15 1 12 16
M  V30 16 2 14 17
M  V30 17 1 14 18
M  V30 18 1 15 19
M  V30 19 2 16 20
M  V30 20 1 17 21
M  V30 21 2 18 22
M  V30 22 1 18 23
M  V30 23 2 19 24
M  V30 24 1 21 25
M  V30 25 1 22 26
M  V30 26 1 22 27
M  V30 27 2 23 28
M  V30 28 1 25 29
M  V30 29 1 25 30
M  V30 30 2 26 31
M  V30 31 1 29 32
M  V30 32 1 30 33
M  V30 33 1 32 34
M  V30 34 1 34 35
M  V30 35 1 35 36
M  V30 36 1 35 37
M  V30 37 1 36 38
M  V30 38 1 37 39
M  V30 39 1 38 40
M  V30 40 1 40 41
M  V30 41 2 41 42
M  V30 42 1 41 43
M  V30 43 1 11 13
M  V30 44 1 20 24
M  V30 45 1 21 23
M  V30 46 1 28 31
M  V30 47 1 33 34
M  V30 48 1 39 40
M  V30 END BOND
M  V30 END CTAB
M  END
>  <Compound ID>
248

>  <Name>
TX1-85-1

>  <Uniprot>
O95835

>  <Target>
LATS1

>  <Smiles>
C=CC(=O)NC1=CC(C2=NN(C3CCC(N4CCN(C(C)=O)CC4)CC3)C3=NC=NC(N)=C23)=CC=C1OC1=CC=CC=C1

>  <Kd (nM)>


>  <Assay (Kd)>


>  <Ki (nM)>


>  <Assay (Ki)>


>  <IC50 (nM)>


>  <Assay (IC50)>


>  <EC50 (nM)>


>  <Assay (EC50)>


>  <Article DOI>
10.1016/j.cell.2020.10.038

>  <Molecular Weight>
580.693

>  <Exact Mass>
580.291037012

>  <XLogP3>
3.34

>  <Heavy Atom Count>
43

>  <Ring Count>
6

>  <Hydrogen Bond Acceptor Count>
9

>  <Hydrogen Bond Donor Count>
2

>  <Rotatable Bond Count>
7

>  <Topological Polar Surface Area>
131.5

>  <Molecular Formula>
C32H36N8O3

>  <InChI>
InChI=1S/C32H36N8O3/c1-3-28(42)36-26-19-22(9-14-27(26)43-25-7-5-4-6-8-25)30-29-31(33)34-20-35-32(29)40(37-30)24-12-10-23(11-13-24)39-17-15-38(16-18-39)21(2)41/h3-9,14,19-20,23-24H,1,10-13,15-18H2,2H3,(H,36,42)(H2,33,34,35)

>  <InChI Key>
FYICDSWKKFSYOM-UHFFFAOYSA-N

>  <BindingDB>


>  <PubChem>
78243752

>  <ChEMBL>


$$$$
Compound 914
Actelion Java MolfileCreator 2.0

  0  0  0  0  0  0              0 V3000
M  V30 BEGIN CTAB
M  V30 COUNTS 43 48 0 0 0
M  V30 BEGIN ATOM
M  V30 1 O 0.0 0.0 0.0 0
M  V30 2 C -0.2708 -1.4602 0.0 0
M  V30 3 N -1.684 -1.9666 0.0 0
M  V30 4 C 0.8596 -2.4141 0.0 0
M  V30 5 C -2.838 -0.9892 0.0 0
M  V30 6 C 2.2492 -1.8842 0.0 0
M  V30 7 C -2.5907 0.4946 0.0 0
M  V30 8 C -4.2512 -1.4955 0.0 0
M  V30 9 O -1.2011 1.0245 0.0 0
M  V30 10 C -3.7448 1.472 0.0 0
M  V30 11 C -5.4053 -0.5181 0.0 0
M  V30 12 C -0.9538 2.5083 0.0 0
M  V30 13 C -5.158 0.9656 0.0 0
M  V30 14 C -6.8184 -1.0245 0.0 0
M  V30 15 C 0.4357 3.0382 0.0 0
M  V30 16 C -2.1079 3.4857 0.0 0
M  V30 17 N -8.0667 -0.1766 0.0 0
M  V30 18 C -7.2423 -2.4494 0.0 0
M  V30 19 C 0.683 4.522 0.0 0
M  V30 20 C -1.8606 4.9695 0.0 0
M  V30 21 N -9.2561 -1.0834 0.0 0
M  V30 22 C -6.4651 -3.7095 0.0 0
M  V30 23 C -8.7497 -2.4965 0.0 0
M  V30 24 C -0.471 5.4995 0.0 0
M  V30 25 C -10.7046 -0.6594 0.0 0
M  V30 26 N -7.1835 -5.0166 0.0 0
M  V30 27 N -4.9813 -3.6388 0.0 0
M  V30 28 N -9.4681 -3.8037 0.0 0
M  V30 29 C -11.0814 0.8007 0.0 0
M  V30 30 C -11.788 -1.684 0.0 0
M  V30 31 C -8.6908 -5.0637 0.0 0
M  V30 32 C -12.5299 1.2247 0.0 0
M  V30 33 C -13.2365 -1.26 0.0 0
M  V30 34 C -13.6133 0.2001 0.0 0
M  V30 35 N -15.0618 0.6241 0.0 0
M  V30 36 C -15.4386 2.0843 0.0 0
M  V30 37 C -16.1452 -0.4003 0.0 0
M  V30 38 C -16.8871 2.5083 0.0 0
M  V30 39 C -17.5937 0.0235 0.0 0
M  V30 40 N -17.9705 1.4838 0.0 0
M  V30 41 C -19.419 1.9077 0.0 0
M  V30 42 O -20.5024 0.8832 0.0 0
M  V30 43 C -19.7958 3.368 0.0 0
M  V30 END ATOM
M  V30 BEGIN BOND
M  V30 1 2 1 2
M  V30 2 1 2 3
M  V30 3 1 2 4
M  V30 4 1 3 5
M  V30 5 2 4 6
M  V30 6 2 5 7
M  V30 7 1 5 8
M  V30 8 1 7 9
M  V30 9 1 7 10
M  V30 10 2 8 11
M  V30 11 1 9 12
M  V30 12 2 10 13
M  V30 13 1 11 14
M  V30 14 2 12 15
M  V30 15 1 12 16
M  V30 16 2 14 17
M  V30 17 1 14 18
M  V30 18 1 15 19
M  V30 19 2 16 20
M  V30 20 1 17 21
M  V30 21 2 18 22
M  V30 22 1 18 23
M  V30 23 2 19 24
M  V30 24 1 21 25
M  V30 25 1 22 26
M  V30 26 1 22 27
M  V30 27 2 23 28
M  V30 28 1 25 29
M  V30 29 1 25 30
M  V30 30 2 26 31
M  V30 31 1 29 32
M  V30 32 1 30 33
M  V30 33 1 32 34
M  V30 34 1 34 35
M  V30 35 1 35 36
M  V30 36 1 35 37
M  V30 37 1 36 38
M  V30 38 1 37 39
M  V30 39 1 38 40
M  V30 40 1 40 41
M  V30 41 2 41 42
M  V30 42 1 41 43
M  V30 43 1 11 13
M  V30 44 1 20 24
M  V30 45 1 21 23
M  V30 46 1 28 31
M  V30 47 1 33 34
M  V30 48 1 39 40
M  V30 END BOND
M  V30 END CTAB
M  END
>  <Compound ID>
248

>  <Name>
TX1-85-1

>  <Uniprot>
P06239

>  <Target>
LCK

>  <Smiles>
C=CC(=O)NC1=CC(C2=NN(C3CCC(N4CCN(C(C)=O)CC4)CC3)C3=NC=NC(N)=C23)=CC=C1OC1=CC=CC=C1

>  <Kd (nM)>


>  <Assay (Kd)>


>  <Ki (nM)>


>  <Assay (Ki)>


>  <IC50 (nM)>


>  <Assay (IC50)>


>  <EC50 (nM)>


>  <Assay (EC50)>


>  <Article DOI>
10.1016/j.cell.2020.10.038

>  <Molecular Weight>
580.693

>  <Exact Mass>
580.291037012

>  <XLogP3>
3.34

>  <Heavy Atom Count>
43

>  <Ring Count>
6

>  <Hydrogen Bond Acceptor Count>
9

>  <Hydrogen Bond Donor Count>
2

>  <Rotatable Bond Count>
7

>  <Topological Polar Surface Area>
131.5

>  <Molecular Formula>
C32H36N8O3

>  <InChI>
InChI=1S/C32H36N8O3/c1-3-28(42)36-26-19-22(9-14-27(26)43-25-7-5-4-6-8-25)30-29-31(33)34-20-35-32(29)40(37-30)24-12-10-23(11-13-24)39-17-15-38(16-18-39)21(2)41/h3-9,14,19-20,23-24H,1,10-13,15-18H2,2H3,(H,36,42)(H2,33,34,35)

>  <InChI Key>
FYICDSWKKFSYOM-UHFFFAOYSA-N

>  <BindingDB>


>  <PubChem>
78243752

>  <ChEMBL>


$$$$
Compound 915
Actelion Java MolfileCreator 2.0

  0  0  0  0  0  0              0 V3000
M  V30 BEGIN CTAB
M  V30 COUNTS 43 48 0 0 0
M  V30 BEGIN ATOM
M  V30 1 O 0.0 0.0 0.0 0
M  V30 2 C -0.2708 -1.4602 0.0 0
M  V30 3 N -1.684 -1.9666 0.0 0
M  V30 4 C 0.8596 -2.4141 0.0 0
M  V30 5 C -2.838 -0.9892 0.0 0
M  V30 6 C 2.2492 -1.8842 0.0 0
M  V30 7 C -2.5907 0.4946 0.0 0
M  V30 8 C -4.2512 -1.4955 0.0 0
M  V30 9 O -1.2011 1.0245 0.0 0
M  V30 10 C -3.7448 1.472 0.0 0
M  V30 11 C -5.4053 -0.5181 0.0 0
M  V30 12 C -0.9538 2.5083 0.0 0
M  V30 13 C -5.158 0.9656 0.0 0
M  V30 14 C -6.8184 -1.0245 0.0 0
M  V30 15 C 0.4357 3.0382 0.0 0
M  V30 16 C -2.1079 3.4857 0.0 0
M  V30 17 N -8.0667 -0.1766 0.0 0
M  V30 18 C -7.2423 -2.4494 0.0 0
M  V30 19 C 0.683 4.522 0.0 0
M  V30 20 C -1.8606 4.9695 0.0 0
M  V30 21 N -9.2561 -1.0834 0.0 0
M  V30 22 C -6.4651 -3.7095 0.0 0
M  V30 23 C -8.7497 -2.4965 0.0 0
M  V30 24 C -0.471 5.4995 0.0 0
M  V30 25 C -10.7046 -0.6594 0.0 0
M  V30 26 N -7.1835 -5.0166 0.0 0
M  V30 27 N -4.9813 -3.6388 0.0 0
M  V30 28 N -9.4681 -3.8037 0.0 0
M  V30 29 C -11.0814 0.8007 0.0 0
M  V30 30 C -11.788 -1.684 0.0 0
M  V30 31 C -8.6908 -5.0637 0.0 0
M  V30 32 C -12.5299 1.2247 0.0 0
M  V30 33 C -13.2365 -1.26 0.0 0
M  V30 34 C -13.6133 0.2001 0.0 0
M  V30 35 N -15.0618 0.6241 0.0 0
M  V30 36 C -15.4386 2.0843 0.0 0
M  V30 37 C -16.1452 -0.4003 0.0 0
M  V30 38 C -16.8871 2.5083 0.0 0
M  V30 39 C -17.5937 0.0235 0.0 0
M  V30 40 N -17.9705 1.4838 0.0 0
M  V30 41 C -19.419 1.9077 0.0 0
M  V30 42 O -20.5024 0.8832 0.0 0
M  V30 43 C -19.7958 3.368 0.0 0
M  V30 END ATOM
M  V30 BEGIN BOND
M  V30 1 2 1 2
M  V30 2 1 2 3
M  V30 3 1 2 4
M  V30 4 1 3 5
M  V30 5 2 4 6
M  V30 6 2 5 7
M  V30 7 1 5 8
M  V30 8 1 7 9
M  V30 9 1 7 10
M  V30 10 2 8 11
M  V30 11 1 9 12
M  V30 12 2 10 13
M  V30 13 1 11 14
M  V30 14 2 12 15
M  V30 15 1 12 16
M  V30 16 2 14 17
M  V30 17 1 14 18
M  V30 18 1 15 19
M  V30 19 2 16 20
M  V30 20 1 17 21
M  V30 21 2 18 22
M  V30 22 1 18 23
M  V30 23 2 19 24
M  V30 24 1 21 25
M  V30 25 1 22 26
M  V30 26 1 22 27
M  V30 27 2 23 28
M  V30 28 1 25 29
M  V30 29 1 25 30
M  V30 30 2 26 31
M  V30 31 1 29 32
M  V30 32 1 30 33
M  V30 33 1 32 34
M  V30 34 1 34 35
M  V30 35 1 35 36
M  V30 36 1 35 37
M  V30 37 1 36 38
M  V30 38 1 37 39
M  V30 39 1 38 40
M  V30 40 1 40 41
M  V30 41 2 41 42
M  V30 42 1 41 43
M  V30 43 1 11 13
M  V30 44 1 20 24
M  V30 45 1 21 23
M  V30 46 1 28 31
M  V30 47 1 33 34
M  V30 48 1 39 40
M  V30 END BOND
M  V30 END CTAB
M  END
>  <Compound ID>
248

>  <Name>
TX1-85-1

>  <Uniprot>
P53667

>  <Target>
LIMK1

>  <Smiles>
C=CC(=O)NC1=CC(C2=NN(C3CCC(N4CCN(C(C)=O)CC4)CC3)C3=NC=NC(N)=C23)=CC=C1OC1=CC=CC=C1

>  <Kd (nM)>


>  <Assay (Kd)>


>  <Ki (nM)>


>  <Assay (Ki)>


>  <IC50 (nM)>


>  <Assay (IC50)>


>  <EC50 (nM)>


>  <Assay (EC50)>


>  <Article DOI>
10.1016/j.cell.2020.10.038

>  <Molecular Weight>
580.693

>  <Exact Mass>
580.291037012

>  <XLogP3>
3.34

>  <Heavy Atom Count>
43

>  <Ring Count>
6

>  <Hydrogen Bond Acceptor Count>
9

>  <Hydrogen Bond Donor Count>
2

>  <Rotatable Bond Count>
7

>  <Topological Polar Surface Area>
131.5

>  <Molecular Formula>
C32H36N8O3

>  <InChI>
InChI=1S/C32H36N8O3/c1-3-28(42)36-26-19-22(9-14-27(26)43-25-7-5-4-6-8-25)30-29-31(33)34-20-35-32(29)40(37-30)24-12-10-23(11-13-24)39-17-15-38(16-18-39)21(2)41/h3-9,14,19-20,23-24H,1,10-13,15-18H2,2H3,(H,36,42)(H2,33,34,35)

>  <InChI Key>
FYICDSWKKFSYOM-UHFFFAOYSA-N

>  <BindingDB>


>  <PubChem>
78243752

>  <ChEMBL>


$$$$
Compound 916
Actelion Java MolfileCreator 2.0

  0  0  0  0  0  0              0 V3000
M  V30 BEGIN CTAB
M  V30 COUNTS 43 48 0 0 0
M  V30 BEGIN ATOM
M  V30 1 O 0.0 0.0 0.0 0
M  V30 2 C -0.2708 -1.4602 0.0 0
M  V30 3 N -1.684 -1.9666 0.0 0
M  V30 4 C 0.8596 -2.4141 0.0 0
M  V30 5 C -2.838 -0.9892 0.0 0
M  V30 6 C 2.2492 -1.8842 0.0 0
M  V30 7 C -2.5907 0.4946 0.0 0
M  V30 8 C -4.2512 -1.4955 0.0 0
M  V30 9 O -1.2011 1.0245 0.0 0
M  V30 10 C -3.7448 1.472 0.0 0
M  V30 11 C -5.4053 -0.5181 0.0 0
M  V30 12 C -0.9538 2.5083 0.0 0
M  V30 13 C -5.158 0.9656 0.0 0
M  V30 14 C -6.8184 -1.0245 0.0 0
M  V30 15 C 0.4357 3.0382 0.0 0
M  V30 16 C -2.1079 3.4857 0.0 0
M  V30 17 N -8.0667 -0.1766 0.0 0
M  V30 18 C -7.2423 -2.4494 0.0 0
M  V30 19 C 0.683 4.522 0.0 0
M  V30 20 C -1.8606 4.9695 0.0 0
M  V30 21 N -9.2561 -1.0834 0.0 0
M  V30 22 C -6.4651 -3.7095 0.0 0
M  V30 23 C -8.7497 -2.4965 0.0 0
M  V30 24 C -0.471 5.4995 0.0 0
M  V30 25 C -10.7046 -0.6594 0.0 0
M  V30 26 N -7.1835 -5.0166 0.0 0
M  V30 27 N -4.9813 -3.6388 0.0 0
M  V30 28 N -9.4681 -3.8037 0.0 0
M  V30 29 C -11.0814 0.8007 0.0 0
M  V30 30 C -11.788 -1.684 0.0 0
M  V30 31 C -8.6908 -5.0637 0.0 0
M  V30 32 C -12.5299 1.2247 0.0 0
M  V30 33 C -13.2365 -1.26 0.0 0
M  V30 34 C -13.6133 0.2001 0.0 0
M  V30 35 N -15.0618 0.6241 0.0 0
M  V30 36 C -15.4386 2.0843 0.0 0
M  V30 37 C -16.1452 -0.4003 0.0 0
M  V30 38 C -16.8871 2.5083 0.0 0
M  V30 39 C -17.5937 0.0235 0.0 0
M  V30 40 N -17.9705 1.4838 0.0 0
M  V30 41 C -19.419 1.9077 0.0 0
M  V30 42 O -20.5024 0.8832 0.0 0
M  V30 43 C -19.7958 3.368 0.0 0
M  V30 END ATOM
M  V30 BEGIN BOND
M  V30 1 2 1 2
M  V30 2 1 2 3
M  V30 3 1 2 4
M  V30 4 1 3 5
M  V30 5 2 4 6
M  V30 6 2 5 7
M  V30 7 1 5 8
M  V30 8 1 7 9
M  V30 9 1 7 10
M  V30 10 2 8 11
M  V30 11 1 9 12
M  V30 12 2 10 13
M  V30 13 1 11 14
M  V30 14 2 12 15
M  V30 15 1 12 16
M  V30 16 2 14 17
M  V30 17 1 14 18
M  V30 18 1 15 19
M  V30 19 2 16 20
M  V30 20 1 17 21
M  V30 21 2 18 22
M  V30 22 1 18 23
M  V30 23 2 19 24
M  V30 24 1 21 25
M  V30 25 1 22 26
M  V30 26 1 22 27
M  V30 27 2 23 28
M  V30 28 1 25 29
M  V30 29 1 25 30
M  V30 30 2 26 31
M  V30 31 1 29 32
M  V30 32 1 30 33
M  V30 33 1 32 34
M  V30 34 1 34 35
M  V30 35 1 35 36
M  V30 36 1 35 37
M  V30 37 1 36 38
M  V30 38 1 37 39
M  V30 39 1 38 40
M  V30 40 1 40 41
M  V30 41 2 41 42
M  V30 42 1 41 43
M  V30 43 1 11 13
M  V30 44 1 20 24
M  V30 45 1 21 23
M  V30 46 1 28 31
M  V30 47 1 33 34
M  V30 48 1 39 40
M  V30 END BOND
M  V30 END CTAB
M  END
>  <Compound ID>
248

>  <Name>
TX1-85-1

>  <Uniprot>
Q13163

>  <Target>
MAP2K5

>  <Smiles>
C=CC(=O)NC1=CC(C2=NN(C3CCC(N4CCN(C(C)=O)CC4)CC3)C3=NC=NC(N)=C23)=CC=C1OC1=CC=CC=C1

>  <Kd (nM)>


>  <Assay (Kd)>


>  <Ki (nM)>


>  <Assay (Ki)>


>  <IC50 (nM)>


>  <Assay (IC50)>


>  <EC50 (nM)>


>  <Assay (EC50)>


>  <Article DOI>
10.1016/j.cell.2020.10.038

>  <Molecular Weight>
580.693

>  <Exact Mass>
580.291037012

>  <XLogP3>
3.34

>  <Heavy Atom Count>
43

>  <Ring Count>
6

>  <Hydrogen Bond Acceptor Count>
9

>  <Hydrogen Bond Donor Count>
2

>  <Rotatable Bond Count>
7

>  <Topological Polar Surface Area>
131.5

>  <Molecular Formula>
C32H36N8O3

>  <InChI>
InChI=1S/C32H36N8O3/c1-3-28(42)36-26-19-22(9-14-27(26)43-25-7-5-4-6-8-25)30-29-31(33)34-20-35-32(29)40(37-30)24-12-10-23(11-13-24)39-17-15-38(16-18-39)21(2)41/h3-9,14,19-20,23-24H,1,10-13,15-18H2,2H3,(H,36,42)(H2,33,34,35)

>  <InChI Key>
FYICDSWKKFSYOM-UHFFFAOYSA-N

>  <BindingDB>


>  <PubChem>
78243752

>  <ChEMBL>


$$$$
Compound 917
Actelion Java MolfileCreator 2.0

  0  0  0  0  0  0              0 V3000
M  V30 BEGIN CTAB
M  V30 COUNTS 43 48 0 0 0
M  V30 BEGIN ATOM
M  V30 1 O 0.0 0.0 0.0 0
M  V30 2 C -0.2708 -1.4602 0.0 0
M  V30 3 N -1.684 -1.9666 0.0 0
M  V30 4 C 0.8596 -2.4141 0.0 0
M  V30 5 C -2.838 -0.9892 0.0 0
M  V30 6 C 2.2492 -1.8842 0.0 0
M  V30 7 C -2.5907 0.4946 0.0 0
M  V30 8 C -4.2512 -1.4955 0.0 0
M  V30 9 O -1.2011 1.0245 0.0 0
M  V30 10 C -3.7448 1.472 0.0 0
M  V30 11 C -5.4053 -0.5181 0.0 0
M  V30 12 C -0.9538 2.5083 0.0 0
M  V30 13 C -5.158 0.9656 0.0 0
M  V30 14 C -6.8184 -1.0245 0.0 0
M  V30 15 C 0.4357 3.0382 0.0 0
M  V30 16 C -2.1079 3.4857 0.0 0
M  V30 17 N -8.0667 -0.1766 0.0 0
M  V30 18 C -7.2423 -2.4494 0.0 0
M  V30 19 C 0.683 4.522 0.0 0
M  V30 20 C -1.8606 4.9695 0.0 0
M  V30 21 N -9.2561 -1.0834 0.0 0
M  V30 22 C -6.4651 -3.7095 0.0 0
M  V30 23 C -8.7497 -2.4965 0.0 0
M  V30 24 C -0.471 5.4995 0.0 0
M  V30 25 C -10.7046 -0.6594 0.0 0
M  V30 26 N -7.1835 -5.0166 0.0 0
M  V30 27 N -4.9813 -3.6388 0.0 0
M  V30 28 N -9.4681 -3.8037 0.0 0
M  V30 29 C -11.0814 0.8007 0.0 0
M  V30 30 C -11.788 -1.684 0.0 0
M  V30 31 C -8.6908 -5.0637 0.0 0
M  V30 32 C -12.5299 1.2247 0.0 0
M  V30 33 C -13.2365 -1.26 0.0 0
M  V30 34 C -13.6133 0.2001 0.0 0
M  V30 35 N -15.0618 0.6241 0.0 0
M  V30 36 C -15.4386 2.0843 0.0 0
M  V30 37 C -16.1452 -0.4003 0.0 0
M  V30 38 C -16.8871 2.5083 0.0 0
M  V30 39 C -17.5937 0.0235 0.0 0
M  V30 40 N -17.9705 1.4838 0.0 0
M  V30 41 C -19.419 1.9077 0.0 0
M  V30 42 O -20.5024 0.8832 0.0 0
M  V30 43 C -19.7958 3.368 0.0 0
M  V30 END ATOM
M  V30 BEGIN BOND
M  V30 1 2 1 2
M  V30 2 1 2 3
M  V30 3 1 2 4
M  V30 4 1 3 5
M  V30 5 2 4 6
M  V30 6 2 5 7
M  V30 7 1 5 8
M  V30 8 1 7 9
M  V30 9 1 7 10
M  V30 10 2 8 11
M  V30 11 1 9 12
M  V30 12 2 10 13
M  V30 13 1 11 14
M  V30 14 2 12 15
M  V30 15 1 12 16
M  V30 16 2 14 17
M  V30 17 1 14 18
M  V30 18 1 15 19
M  V30 19 2 16 20
M  V30 20 1 17 21
M  V30 21 2 18 22
M  V30 22 1 18 23
M  V30 23 2 19 24
M  V30 24 1 21 25
M  V30 25 1 22 26
M  V30 26 1 22 27
M  V30 27 2 23 28
M  V30 28 1 25 29
M  V30 29 1 25 30
M  V30 30 2 26 31
M  V30 31 1 29 32
M  V30 32 1 30 33
M  V30 33 1 32 34
M  V30 34 1 34 35
M  V30 35 1 35 36
M  V30 36 1 35 37
M  V30 37 1 36 38
M  V30 38 1 37 39
M  V30 39 1 38 40
M  V30 40 1 40 41
M  V30 41 2 41 42
M  V30 42 1 41 43
M  V30 43 1 11 13
M  V30 44 1 20 24
M  V30 45 1 21 23
M  V30 46 1 28 31
M  V30 47 1 33 34
M  V30 48 1 39 40
M  V30 END BOND
M  V30 END CTAB
M  END
>  <Compound ID>
248

>  <Name>
TX1-85-1

>  <Uniprot>
P12931

>  <Target>
Src

>  <Smiles>
C=CC(=O)NC1=CC(C2=NN(C3CCC(N4CCN(C(C)=O)CC4)CC3)C3=NC=NC(N)=C23)=CC=C1OC1=CC=CC=C1

>  <Kd (nM)>


>  <Assay (Kd)>


>  <Ki (nM)>


>  <Assay (Ki)>


>  <IC50 (nM)>


>  <Assay (IC50)>


>  <EC50 (nM)>


>  <Assay (EC50)>


>  <Article DOI>
10.1016/j.cell.2020.10.038

>  <Molecular Weight>
580.693

>  <Exact Mass>
580.291037012

>  <XLogP3>
3.34

>  <Heavy Atom Count>
43

>  <Ring Count>
6

>  <Hydrogen Bond Acceptor Count>
9

>  <Hydrogen Bond Donor Count>
2

>  <Rotatable Bond Count>
7

>  <Topological Polar Surface Area>
131.5

>  <Molecular Formula>
C32H36N8O3

>  <InChI>
InChI=1S/C32H36N8O3/c1-3-28(42)36-26-19-22(9-14-27(26)43-25-7-5-4-6-8-25)30-29-31(33)34-20-35-32(29)40(37-30)24-12-10-23(11-13-24)39-17-15-38(16-18-39)21(2)41/h3-9,14,19-20,23-24H,1,10-13,15-18H2,2H3,(H,36,42)(H2,33,34,35)

>  <InChI Key>
FYICDSWKKFSYOM-UHFFFAOYSA-N

>  <BindingDB>


>  <PubChem>
78243752

>  <ChEMBL>


$$$$
Compound 918
Actelion Java MolfileCreator 2.0

  0  0  0  0  0  0              0 V3000
M  V30 BEGIN CTAB
M  V30 COUNTS 33 38 0 0 0
M  V30 BEGIN ATOM
M  V30 1 N 0.0 0.0 0.0 0
M  V30 2 C 1.3872 -0.529 0.0 0
M  V30 3 C -1.1756 -0.9287 0.0 0
M  V30 4 C 2.5394 0.4232 0.0 0
M  V30 5 C 1.6106 -1.9986 0.0 0
M  V30 6 N -2.6687 -0.6818 0.0 0
M  V30 7 C -0.9522 -2.3983 0.0 0
M  V30 8 C 3.9267 -0.1058 0.0 0
M  V30 9 C 2.2925 1.9163 0.0 0
M  V30 10 C 0.4349 -2.9273 0.0 0
M  V30 11 C -3.3623 0.6583 0.0 0
M  V30 12 C -3.3623 -1.9986 0.0 0
M  V30 13 N -2.2925 -3.0684 0.0 0
M  V30 14 C 5.0788 0.8464 0.0 0
M  V30 15 C 3.4446 2.8686 0.0 0
M  V30 16 C -2.5629 1.928 0.0 0
M  V30 17 C -4.8672 0.7524 0.0 0
M  V30 18 C -4.8554 -2.2219 0.0 0
M  V30 19 C 4.8319 2.3395 0.0 0
M  V30 20 C -3.2565 3.2683 0.0 0
M  V30 21 C -5.5608 2.0926 0.0 0
M  V30 22 C -5.408 -3.6092 0.0 0
M  V30 23 C -5.8077 -1.0463 0.0 0
M  V30 24 C -4.7614 3.3623 0.0 0
M  V30 25 N -6.9011 -3.8326 0.0 0
M  V30 26 N -4.4792 -4.7614 0.0 0
M  V30 27 C -7.3008 -1.2697 0.0 0
M  V30 28 C -5.455 4.7026 0.0 0
M  V30 29 C -7.8534 -2.6569 0.0 0
M  V30 30 N -6.7953 4.0325 0.0 0
M  V30 31 C -4.1383 5.3962 0.0 0
M  V30 32 C -6.1487 6.0428 0.0 0
M  V30 33 C -4.8319 6.7365 0.0 0
M  V30 END ATOM
M  V30 BEGIN BOND
M  V30 1 2 1 2
M  V30 2 1 1 3
M  V30 3 1 2 4
M  V30 4 1 2 5
M  V30 5 1 3 6
M  V30 6 2 3 7
M  V30 7 2 4 8
M  V30 8 1 4 9
M  V30 9 2 5 10
M  V30 10 1 6 11
M  V30 11 1 6 12
M  V30 12 1 7 13
M  V30 13 1 8 14
M  V30 14 2 9 15
M  V30 15 2 11 16
M  V30 16 1 11 17
M  V30 17 1 12 18
M  V30 18 2 14 19
M  V30 19 1 16 20
M  V30 20 2 17 21
M  V30 21 2 18 22
M  V30 22 1 18 23
M  V30 23 2 20 24
M  V30 24 1 22 25
M  V30 25 1 22 26
M  V30 26 2 23 27
M  V30 27 1 24 28
M  V30 28 2 25 29
M  V30 29 1 28 30
M  V30 30 1 28 31
M  V30 31 1 28 32
M  V30 32 1 31 33
M  V30 33 1 7 10
M  V30 34 2 12 13
M  V30 35 1 15 19
M  V30 36 1 21 24
M  V30 37 1 27 29
M  V30 38 1 32 33
M  V30 END BOND
M  V30 END CTAB
M  END
>  <Compound ID>
249

>  <Name>
Miransertib

>  <Uniprot>
O95835

>  <Target>
LATS1

>  <Smiles>
NC1=NC=CC=C1C1=NC2=CC=C(C3=CC=CC=C3)N=C2N1C1=CC=C(C2(N)CCC2)C=C1

>  <Kd (nM)>


>  <Assay (Kd)>


>  <Ki (nM)>


>  <Assay (Ki)>


>  <IC50 (nM)>


>  <Assay (IC50)>


>  <EC50 (nM)>


>  <Assay (EC50)>


>  <Article DOI>
10.1016/j.cell.2020.10.038

>  <Molecular Weight>
432.531

>  <Exact Mass>
432.206244768

>  <XLogP3>
3.83

>  <Heavy Atom Count>
33

>  <Ring Count>
6

>  <Hydrogen Bond Acceptor Count>
6

>  <Hydrogen Bond Donor Count>
2

>  <Rotatable Bond Count>
4

>  <Topological Polar Surface Area>
95.64

>  <Molecular Formula>
C27H24N6

>  <InChI>
InChI=1S/C27H24N6/c28-24-21(8-4-17-30-24)25-32-23-14-13-22(18-6-2-1-3-7-18)31-26(23)33(25)20-11-9-19(10-12-20)27(29)15-5-16-27/h1-4,6-14,17H,5,15-16,29H2,(H2,28,30)

>  <InChI Key>
HNFMVVHMKGFCMB-UHFFFAOYSA-N

>  <BindingDB>


>  <PubChem>
53262401

>  <ChEMBL>
CHEMBL4297188

$$$$
Compound 919
Actelion Java MolfileCreator 2.0

  0  0  0  0  0  0              0 V3000
M  V30 BEGIN CTAB
M  V30 COUNTS 33 38 0 0 0
M  V30 BEGIN ATOM
M  V30 1 N 0.0 0.0 0.0 0
M  V30 2 C 1.3872 -0.529 0.0 0
M  V30 3 C -1.1756 -0.9287 0.0 0
M  V30 4 C 2.5394 0.4232 0.0 0
M  V30 5 C 1.6106 -1.9986 0.0 0
M  V30 6 N -2.6687 -0.6818 0.0 0
M  V30 7 C -0.9522 -2.3983 0.0 0
M  V30 8 C 3.9267 -0.1058 0.0 0
M  V30 9 C 2.2925 1.9163 0.0 0
M  V30 10 C 0.4349 -2.9273 0.0 0
M  V30 11 C -3.3623 0.6583 0.0 0
M  V30 12 C -3.3623 -1.9986 0.0 0
M  V30 13 N -2.2925 -3.0684 0.0 0
M  V30 14 C 5.0788 0.8464 0.0 0
M  V30 15 C 3.4446 2.8686 0.0 0
M  V30 16 C -2.5629 1.928 0.0 0
M  V30 17 C -4.8672 0.7524 0.0 0
M  V30 18 C -4.8554 -2.2219 0.0 0
M  V30 19 C 4.8319 2.3395 0.0 0
M  V30 20 C -3.2565 3.2683 0.0 0
M  V30 21 C -5.5608 2.0926 0.0 0
M  V30 22 C -5.408 -3.6092 0.0 0
M  V30 23 C -5.8077 -1.0463 0.0 0
M  V30 24 C -4.7614 3.3623 0.0 0
M  V30 25 N -6.9011 -3.8326 0.0 0
M  V30 26 N -4.4792 -4.7614 0.0 0
M  V30 27 C -7.3008 -1.2697 0.0 0
M  V30 28 C -5.455 4.7026 0.0 0
M  V30 29 C -7.8534 -2.6569 0.0 0
M  V30 30 N -6.7953 4.0325 0.0 0
M  V30 31 C -4.1383 5.3962 0.0 0
M  V30 32 C -6.1487 6.0428 0.0 0
M  V30 33 C -4.8319 6.7365 0.0 0
M  V30 END ATOM
M  V30 BEGIN BOND
M  V30 1 2 1 2
M  V30 2 1 1 3
M  V30 3 1 2 4
M  V30 4 1 2 5
M  V30 5 1 3 6
M  V30 6 2 3 7
M  V30 7 2 4 8
M  V30 8 1 4 9
M  V30 9 2 5 10
M  V30 10 1 6 11
M  V30 11 1 6 12
M  V30 12 1 7 13
M  V30 13 1 8 14
M  V30 14 2 9 15
M  V30 15 2 11 16
M  V30 16 1 11 17
M  V30 17 1 12 18
M  V30 18 2 14 19
M  V30 19 1 16 20
M  V30 20 2 17 21
M  V30 21 2 18 22
M  V30 22 1 18 23
M  V30 23 2 20 24
M  V30 24 1 22 25
M  V30 25 1 22 26
M  V30 26 2 23 27
M  V30 27 1 24 28
M  V30 28 2 25 29
M  V30 29 1 28 30
M  V30 30 1 28 31
M  V30 31 1 28 32
M  V30 32 1 31 33
M  V30 33 1 7 10
M  V30 34 2 12 13
M  V30 35 1 15 19
M  V30 36 1 21 24
M  V30 37 1 27 29
M  V30 38 1 32 33
M  V30 END BOND
M  V30 END CTAB
M  END
>  <Compound ID>
249

>  <Name>
Miransertib

>  <Uniprot>
Q9UEE5

>  <Target>
STK17A

>  <Smiles>
NC1=NC=CC=C1C1=NC2=CC=C(C3=CC=CC=C3)N=C2N1C1=CC=C(C2(N)CCC2)C=C1

>  <Kd (nM)>


>  <Assay (Kd)>


>  <Ki (nM)>


>  <Assay (Ki)>


>  <IC50 (nM)>


>  <Assay (IC50)>


>  <EC50 (nM)>


>  <Assay (EC50)>


>  <Article DOI>
10.1016/j.cell.2020.10.038

>  <Molecular Weight>
432.531

>  <Exact Mass>
432.206244768

>  <XLogP3>
3.83

>  <Heavy Atom Count>
33

>  <Ring Count>
6

>  <Hydrogen Bond Acceptor Count>
6

>  <Hydrogen Bond Donor Count>
2

>  <Rotatable Bond Count>
4

>  <Topological Polar Surface Area>
95.64

>  <Molecular Formula>
C27H24N6

>  <InChI>
InChI=1S/C27H24N6/c28-24-21(8-4-17-30-24)25-32-23-14-13-22(18-6-2-1-3-7-18)31-26(23)33(25)20-11-9-19(10-12-20)27(29)15-5-16-27/h1-4,6-14,17H,5,15-16,29H2,(H2,28,30)

>  <InChI Key>
HNFMVVHMKGFCMB-UHFFFAOYSA-N

>  <BindingDB>


>  <PubChem>
53262401

>  <ChEMBL>
CHEMBL4297188

$$$$
Compound 920
Actelion Java MolfileCreator 2.0

  0  0  0  0  0  0              0 V3000
M  V30 BEGIN CTAB
M  V30 COUNTS 30 34 0 0 0
M  V30 BEGIN ATOM
M  V30 1 N 0.0 0.0 0.0 0
M  V30 2 C 1.2227 -0.8347 0.0 0
M  V30 3 C -1.3637 -0.6348 0.0 0
M  V30 4 C 2.5629 -0.1763 0.0 0
M  V30 5 C 1.0933 -2.316 0.0 0
M  V30 6 N -2.7628 -0.0587 0.0 0
M  V30 7 C -1.4931 -2.1162 0.0 0
M  V30 8 C 3.7856 -1.011 0.0 0
M  V30 9 C 2.6687 1.3285 0.0 0
M  V30 10 C -0.2704 -2.9509 0.0 0
M  V30 11 C -3.1273 1.4108 0.0 0
M  V30 12 C -3.7386 -1.1874 0.0 0
M  V30 13 N -2.9627 -2.4571 0.0 0
M  V30 14 C 5.1259 -0.3527 0.0 0
M  V30 15 C 4.009 1.9868 0.0 0
M  V30 16 C -2.0574 2.4571 0.0 0
M  V30 17 C -4.5733 1.8458 0.0 0
M  V30 18 C -5.2435 -1.0581 0.0 0
M  V30 19 C 5.2317 1.1521 0.0 0
M  V30 20 C -2.4218 3.9267 0.0 0
M  V30 21 C -4.9378 3.3154 0.0 0
M  V30 22 C -6.1017 -2.2808 0.0 0
M  V30 23 C -5.9019 0.3056 0.0 0
M  V30 24 C -3.8679 4.3617 0.0 0
M  V30 25 N -7.6066 -2.1514 0.0 0
M  V30 26 N -5.4669 -3.621 0.0 0
M  V30 27 C -7.4067 0.435 0.0 0
M  V30 28 C -4.2324 5.8313 0.0 0
M  V30 29 C -8.265 -0.7877 0.0 0
M  V30 30 N -3.1625 6.8777 0.0 0
M  V30 END ATOM
M  V30 BEGIN BOND
M  V30 1 2 1 2
M  V30 2 1 1 3
M  V30 3 1 2 4
M  V30 4 1 2 5
M  V30 5 1 3 6
M  V30 6 2 3 7
M  V30 7 2 4 8
M  V30 8 1 4 9
M  V30 9 2 5 10
M  V30 10 1 6 11
M  V30 11 1 6 12
M  V30 12 1 7 13
M  V30 13 1 8 14
M  V30 14 2 9 15
M  V30 15 2 11 16
M  V30 16 1 11 17
M  V30 17 1 12 18
M  V30 18 2 14 19
M  V30 19 1 16 20
M  V30 20 2 17 21
M  V30 21 2 18 22
M  V30 22 1 18 23
M  V30 23 2 20 24
M  V30 24 1 22 25
M  V30 25 1 22 26
M  V30 26 2 23 27
M  V30 27 1 24 28
M  V30 28 2 25 29
M  V30 29 1 28 30
M  V30 30 1 7 10
M  V30 31 2 12 13
M  V30 32 1 15 19
M  V30 33 1 21 24
M  V30 34 1 27 29
M  V30 END BOND
M  V30 END CTAB
M  END
>  <Compound ID>
250

>  <Name>


>  <Uniprot>
P31749

>  <Target>
AKT1

>  <Smiles>
NCC1=CC=C(N2C(C3=CC=CN=C3N)=NC3=CC=C(C4=CC=CC=C4)N=C32)C=C1

>  <Kd (nM)>


>  <Assay (Kd)>


>  <Ki (nM)>


>  <Assay (Ki)>


>  <IC50 (nM)>
3.7

>  <Assay (IC50)>
Inhibition of unphosphorylated AKT1 expressed in baculovirus infected Sf9 insect cells

>  <EC50 (nM)>


>  <Assay (EC50)>


>  <Article DOI>
10.1021/acs.jmedchem.6b00619

>  <Molecular Weight>
392.466

>  <Exact Mass>
392.17494464

>  <XLogP3>
3.13

>  <Heavy Atom Count>
30

>  <Ring Count>
5

>  <Hydrogen Bond Acceptor Count>
6

>  <Hydrogen Bond Donor Count>
2

>  <Rotatable Bond Count>
4

>  <Topological Polar Surface Area>
95.64

>  <Molecular Formula>
C24H20N6

>  <InChI>
InChI=1S/C24H20N6/c25-15-16-8-10-18(11-9-16)30-23(19-7-4-14-27-22(19)26)29-21-13-12-20(28-24(21)30)17-5-2-1-3-6-17/h1-14H,15,25H2,(H2,26,27)

>  <InChI Key>
JAARXSVCUDUSTR-UHFFFAOYSA-N

>  <BindingDB>


>  <PubChem>
53262403

>  <ChEMBL>
CHEMBL4597416

$$$$
Compound 921
Actelion Java MolfileCreator 2.0

  0  0  0  0  0  0              0 V3000
M  V30 BEGIN CTAB
M  V30 COUNTS 30 34 0 0 0
M  V30 BEGIN ATOM
M  V30 1 N 0.0 0.0 0.0 0
M  V30 2 C 1.2227 -0.8347 0.0 0
M  V30 3 C -1.3637 -0.6348 0.0 0
M  V30 4 C 2.5629 -0.1763 0.0 0
M  V30 5 C 1.0933 -2.316 0.0 0
M  V30 6 N -2.7628 -0.0587 0.0 0
M  V30 7 C -1.4931 -2.1162 0.0 0
M  V30 8 C 3.7856 -1.011 0.0 0
M  V30 9 C 2.6687 1.3285 0.0 0
M  V30 10 C -0.2704 -2.9509 0.0 0
M  V30 11 C -3.1273 1.4108 0.0 0
M  V30 12 C -3.7386 -1.1874 0.0 0
M  V30 13 N -2.9627 -2.4571 0.0 0
M  V30 14 C 5.1259 -0.3527 0.0 0
M  V30 15 C 4.009 1.9868 0.0 0
M  V30 16 C -2.0574 2.4571 0.0 0
M  V30 17 C -4.5733 1.8458 0.0 0
M  V30 18 C -5.2435 -1.0581 0.0 0
M  V30 19 C 5.2317 1.1521 0.0 0
M  V30 20 C -2.4218 3.9267 0.0 0
M  V30 21 C -4.9378 3.3154 0.0 0
M  V30 22 C -6.1017 -2.2808 0.0 0
M  V30 23 C -5.9019 0.3056 0.0 0
M  V30 24 C -3.8679 4.3617 0.0 0
M  V30 25 N -7.6066 -2.1514 0.0 0
M  V30 26 N -5.4669 -3.621 0.0 0
M  V30 27 C -7.4067 0.435 0.0 0
M  V30 28 C -4.2324 5.8313 0.0 0
M  V30 29 C -8.265 -0.7877 0.0 0
M  V30 30 N -3.1625 6.8777 0.0 0
M  V30 END ATOM
M  V30 BEGIN BOND
M  V30 1 2 1 2
M  V30 2 1 1 3
M  V30 3 1 2 4
M  V30 4 1 2 5
M  V30 5 1 3 6
M  V30 6 2 3 7
M  V30 7 2 4 8
M  V30 8 1 4 9
M  V30 9 2 5 10
M  V30 10 1 6 11
M  V30 11 1 6 12
M  V30 12 1 7 13
M  V30 13 1 8 14
M  V30 14 2 9 15
M  V30 15 2 11 16
M  V30 16 1 11 17
M  V30 17 1 12 18
M  V30 18 2 14 19
M  V30 19 1 16 20
M  V30 20 2 17 21
M  V30 21 2 18 22
M  V30 22 1 18 23
M  V30 23 2 20 24
M  V30 24 1 22 25
M  V30 25 1 22 26
M  V30 26 2 23 27
M  V30 27 1 24 28
M  V30 28 2 25 29
M  V30 29 1 28 30
M  V30 30 1 7 10
M  V30 31 2 12 13
M  V30 32 1 15 19
M  V30 33 1 21 24
M  V30 34 1 27 29
M  V30 END BOND
M  V30 END CTAB
M  END
>  <Compound ID>
250

>  <Name>


>  <Uniprot>
P31751

>  <Target>
AKT2

>  <Smiles>
NCC1=CC=C(N2C(C3=CC=CN=C3N)=NC3=CC=C(C4=CC=CC=C4)N=C32)C=C1

>  <Kd (nM)>


>  <Assay (Kd)>


>  <Ki (nM)>


>  <Assay (Ki)>


>  <IC50 (nM)>
33

>  <Assay (IC50)>
Inhibition of unphosphorylated AKT2 expressed in baculovirus infected Sf9 insect cells

>  <EC50 (nM)>


>  <Assay (EC50)>


>  <Article DOI>
10.1021/acs.jmedchem.6b00619

>  <Molecular Weight>
392.466

>  <Exact Mass>
392.17494464

>  <XLogP3>
3.13

>  <Heavy Atom Count>
30

>  <Ring Count>
5

>  <Hydrogen Bond Acceptor Count>
6

>  <Hydrogen Bond Donor Count>
2

>  <Rotatable Bond Count>
4

>  <Topological Polar Surface Area>
95.64

>  <Molecular Formula>
C24H20N6

>  <InChI>
InChI=1S/C24H20N6/c25-15-16-8-10-18(11-9-16)30-23(19-7-4-14-27-22(19)26)29-21-13-12-20(28-24(21)30)17-5-2-1-3-6-17/h1-14H,15,25H2,(H2,26,27)

>  <InChI Key>
JAARXSVCUDUSTR-UHFFFAOYSA-N

>  <BindingDB>


>  <PubChem>
53262403

>  <ChEMBL>
CHEMBL4597416

$$$$
Compound 922
Actelion Java MolfileCreator 2.0

  0  0  0  0  0  0              0 V3000
M  V30 BEGIN CTAB
M  V30 COUNTS 30 34 0 0 0
M  V30 BEGIN ATOM
M  V30 1 N 0.0 0.0 0.0 0
M  V30 2 C 1.2227 -0.8347 0.0 0
M  V30 3 C -1.3637 -0.6348 0.0 0
M  V30 4 C 2.5629 -0.1763 0.0 0
M  V30 5 C 1.0933 -2.316 0.0 0
M  V30 6 N -2.7628 -0.0587 0.0 0
M  V30 7 C -1.4931 -2.1162 0.0 0
M  V30 8 C 3.7856 -1.011 0.0 0
M  V30 9 C 2.6687 1.3285 0.0 0
M  V30 10 C -0.2704 -2.9509 0.0 0
M  V30 11 C -3.1273 1.4108 0.0 0
M  V30 12 C -3.7386 -1.1874 0.0 0
M  V30 13 N -2.9627 -2.4571 0.0 0
M  V30 14 C 5.1259 -0.3527 0.0 0
M  V30 15 C 4.009 1.9868 0.0 0
M  V30 16 C -2.0574 2.4571 0.0 0
M  V30 17 C -4.5733 1.8458 0.0 0
M  V30 18 C -5.2435 -1.0581 0.0 0
M  V30 19 C 5.2317 1.1521 0.0 0
M  V30 20 C -2.4218 3.9267 0.0 0
M  V30 21 C -4.9378 3.3154 0.0 0
M  V30 22 C -6.1017 -2.2808 0.0 0
M  V30 23 C -5.9019 0.3056 0.0 0
M  V30 24 C -3.8679 4.3617 0.0 0
M  V30 25 N -7.6066 -2.1514 0.0 0
M  V30 26 N -5.4669 -3.621 0.0 0
M  V30 27 C -7.4067 0.435 0.0 0
M  V30 28 C -4.2324 5.8313 0.0 0
M  V30 29 C -8.265 -0.7877 0.0 0
M  V30 30 N -3.1625 6.8777 0.0 0
M  V30 END ATOM
M  V30 BEGIN BOND
M  V30 1 2 1 2
M  V30 2 1 1 3
M  V30 3 1 2 4
M  V30 4 1 2 5
M  V30 5 1 3 6
M  V30 6 2 3 7
M  V30 7 2 4 8
M  V30 8 1 4 9
M  V30 9 2 5 10
M  V30 10 1 6 11
M  V30 11 1 6 12
M  V30 12 1 7 13
M  V30 13 1 8 14
M  V30 14 2 9 15
M  V30 15 2 11 16
M  V30 16 1 11 17
M  V30 17 1 12 18
M  V30 18 2 14 19
M  V30 19 1 16 20
M  V30 20 2 17 21
M  V30 21 2 18 22
M  V30 22 1 18 23
M  V30 23 2 20 24
M  V30 24 1 22 25
M  V30 25 1 22 26
M  V30 26 2 23 27
M  V30 27 1 24 28
M  V30 28 2 25 29
M  V30 29 1 28 30
M  V30 30 1 7 10
M  V30 31 2 12 13
M  V30 32 1 15 19
M  V30 33 1 21 24
M  V30 34 1 27 29
M  V30 END BOND
M  V30 END CTAB
M  END
>  <Compound ID>
250

>  <Name>


>  <Uniprot>
Q9Y243

>  <Target>
AKT3

>  <Smiles>
NCC1=CC=C(N2C(C3=CC=CN=C3N)=NC3=CC=C(C4=CC=CC=C4)N=C32)C=C1

>  <Kd (nM)>


>  <Assay (Kd)>


>  <Ki (nM)>


>  <Assay (Ki)>


>  <IC50 (nM)>
430

>  <Assay (IC50)>
Inhibition of unphosphorylated AKT3 expressed in baculovirus infected Sf9 insect cells

>  <EC50 (nM)>


>  <Assay (EC50)>


>  <Article DOI>
10.1021/acs.jmedchem.6b00619

>  <Molecular Weight>
392.466

>  <Exact Mass>
392.17494464

>  <XLogP3>
3.13

>  <Heavy Atom Count>
30

>  <Ring Count>
5

>  <Hydrogen Bond Acceptor Count>
6

>  <Hydrogen Bond Donor Count>
2

>  <Rotatable Bond Count>
4

>  <Topological Polar Surface Area>
95.64

>  <Molecular Formula>
C24H20N6

>  <InChI>
InChI=1S/C24H20N6/c25-15-16-8-10-18(11-9-16)30-23(19-7-4-14-27-22(19)26)29-21-13-12-20(28-24(21)30)17-5-2-1-3-6-17/h1-14H,15,25H2,(H2,26,27)

>  <InChI Key>
JAARXSVCUDUSTR-UHFFFAOYSA-N

>  <BindingDB>


>  <PubChem>
53262403

>  <ChEMBL>
CHEMBL4597416

$$$$
Compound 923
Actelion Java MolfileCreator 2.0

  0  0  0  0  0  0              0 V3000
M  V30 BEGIN CTAB
M  V30 COUNTS 35 37 0 0 0
M  V30 BEGIN ATOM
M  V30 1 F 0.0 0.0 0.0 0
M  V30 2 C -0.2105 -1.4737 0.0 0
M  V30 3 F 1.2632 -1.6609 0.0 0
M  V30 4 F -1.7077 -1.2632 0.0 0
M  V30 5 C -0.421 -2.9475 0.0 0
M  V30 6 N -1.8129 -3.509 0.0 0
M  V30 7 C 0.7602 -3.8482 0.0 0
M  V30 8 C -2.0235 -4.9827 0.0 0
M  V30 9 C 0.5497 -5.322 0.0 0
M  V30 10 C -3.4154 -5.5442 0.0 0
M  V30 11 C -0.8421 -5.8834 0.0 0
M  V30 12 O -3.6259 -7.018 0.0 0
M  V30 13 N -4.6202 -4.6202 0.0 0
M  V30 14 C -6.0121 -5.1816 0.0 0
M  V30 15 C -6.2226 -6.6554 0.0 0
M  V30 16 C -7.2168 -4.2576 0.0 0
M  V30 17 O -5.0412 -7.556 0.0 0
M  V30 18 C -7.6145 -7.2168 0.0 0
M  V30 19 C -8.6087 -4.819 0.0 0
M  V30 20 C -5.2518 -9.0298 0.0 0
M  V30 21 C -8.8193 -6.2928 0.0 0
M  V30 22 N -9.9772 -4.164 0.0 0
M  V30 23 C -4.0704 -9.9305 0.0 0
M  V30 24 N -10.3048 -6.5501 0.0 0
M  V30 25 C -11.0183 -5.2401 0.0 0
M  V30 26 C -10.258 -2.6785 0.0 0
M  V30 27 C -12.5154 -5.0295 0.0 0
M  V30 28 C -13.1003 -3.6376 0.0 0
M  V30 29 C -14.5974 -3.4271 0.0 0
M  V30 30 C -16.0946 -3.2165 0.0 0
M  V30 31 C -14.808 -4.9009 0.0 0
M  V30 32 C -14.4103 -1.9299 0.0 0
M  V30 33 O -16.6795 -1.8246 0.0 0
M  V30 34 O -17.0187 -4.3979 0.0 0
M  V30 35 C -18.5158 -4.1874 0.0 0
M  V30 END ATOM
M  V30 BEGIN BOND
M  V30 1 1 1 2
M  V30 2 1 2 3
M  V30 3 1 2 4
M  V30 4 1 2 5
M  V30 5 2 5 6
M  V30 6 1 5 7
M  V30 7 1 6 8
M  V30 8 2 7 9
M  V30 9 1 8 10
M  V30 10 2 8 11
M  V30 11 2 10 12
M  V30 12 1 10 13
M  V30 13 1 13 14
M  V30 14 2 14 15
M  V30 15 1 14 16
M  V30 16 1 15 17
M  V30 17 1 15 18
M  V30 18 2 16 19
M  V30 19 1 17 20
M  V30 20 2 18 21
M  V30 21 1 19 22
M  V30 22 1 20 23
M  V30 23 1 21 24
M  V30 24 1 22 25
M  V30 25 1 22 26
M  V30 26 1 25 27
M  V30 27 1 27 28
M  V30 28 1 28 29
M  V30 29 1 29 30
M  V30 30 1 29 31
M  V30 31 1 29 32
M  V30 32 2 30 33
M  V30 33 1 30 34
M  V30 34 1 34 35
M  V30 35 1 9 11
M  V30 36 1 19 21
M  V30 37 2 24 25
M  V30 END BOND
M  V30 END CTAB
M  END
>  <Compound ID>
251

>  <Name>


>  <Uniprot>
Q9NWZ3

>  <Target>
IRAK4

>  <Smiles>
CCOC1=CC2=C(C=C1NC(=O)C1=CC=CC(C(F)(F)F)=N1)N(C)C(CCC(C)(C)C(=O)OC)=N2

>  <Kd (nM)>


>  <Assay (Kd)>


>  <Ki (nM)>


>  <Assay (Ki)>


>  <IC50 (nM)>
70

>  <Assay (IC50)>
IC50 was assessed by Z'-Lyte kinase assay

>  <EC50 (nM)>


>  <Assay (EC50)>


>  <Article DOI>
10.1021/acsmedchemlett.0c00474

>  <Molecular Weight>
492.498

>  <Exact Mass>
492.198440004

>  <XLogP3>
4.2

>  <Heavy Atom Count>
35

>  <Ring Count>
3

>  <Hydrogen Bond Acceptor Count>
7

>  <Hydrogen Bond Donor Count>
1

>  <Rotatable Bond Count>
8

>  <Topological Polar Surface Area>
95.34

>  <Molecular Formula>
C24H27F3N4O4

>  <InChI>
InChI=1S/C24H27F3N4O4/c1-6-35-18-13-15-17(31(4)20(29-15)10-11-23(2,3)22(33)34-5)12-16(18)30-21(32)14-8-7-9-19(28-14)24(25,26)27/h7-9,12-13H,6,10-11H2,1-5H3,(H,30,32)

>  <InChI Key>
HZWJTPQMGLFQCE-UHFFFAOYSA-N

>  <BindingDB>


>  <PubChem>


>  <ChEMBL>


$$$$
Compound 924
Actelion Java MolfileCreator 2.0

  0  0  0  0  0  0              0 V3000
M  V30 BEGIN CTAB
M  V30 COUNTS 41 42 0 0 0
M  V30 BEGIN ATOM
M  V30 1 S 0.0 0.0 0.0 0
M  V30 2 C -0.0472 1.5128 0.0 0
M  V30 3 N 1.2173 2.3046 0.0 0
M  V30 4 C -1.3828 2.2455 0.0 0
M  V30 5 C 2.5292 1.5955 0.0 0
M  V30 6 C -2.671 1.4773 0.0 0
M  V30 7 C 3.7938 2.3874 0.0 0
M  V30 8 C -4.0066 2.2101 0.0 0
M  V30 9 C 5.1057 1.6782 0.0 0
M  V30 10 C -5.2948 1.4419 0.0 0
M  V30 11 C 6.3703 2.4701 0.0 0
M  V30 12 C -6.6304 2.1746 0.0 0
M  V30 13 C 7.6822 1.761 0.0 0 CFG=2
M  V30 14 C -7.9186 1.4064 0.0 0
M  V30 15 N 8.9469 2.5528 0.0 0
M  V30 16 C 7.7059 0.2718 0.0 0
M  V30 17 C -9.2542 2.1392 0.0 0
M  V30 18 C 10.2588 1.8437 0.0 0
M  V30 19 O 9.0178 -0.4372 0.0 0
M  V30 20 N 6.4176 -0.4963 0.0 0
M  V30 21 C -10.5424 1.3709 0.0 0
M  V30 22 O 10.2824 0.3545 0.0 0
M  V30 23 O 11.5234 2.6356 0.0 0
M  V30 24 C 6.4413 -1.9855 0.0 0
M  V30 25 C -11.878 2.1037 0.0 0
M  V30 26 C 12.8353 1.9264 0.0 0
M  V30 27 C 5.153 -2.7538 0.0 0
M  V30 28 C 7.7532 -2.6947 0.0 0
M  V30 29 C -13.1662 1.3355 0.0 0
M  V30 30 C 14.0999 2.7183 0.0 0
M  V30 31 C 5.1766 -4.2429 0.0 0
M  V30 32 C 7.7768 -4.1838 0.0 0
M  V30 33 C -14.5017 2.0683 0.0 0
M  V30 34 C 15.4118 2.0092 0.0 0
M  V30 35 C 14.0526 4.2311 0.0 0
M  V30 36 C 6.4885 -4.9521 0.0 0
M  V30 37 C -15.79 1.3 0.0 0
M  V30 38 C 16.6764 2.801 0.0 0
M  V30 39 C 15.3173 5.023 0.0 0
M  V30 40 C -17.1255 2.0328 0.0 0
M  V30 41 C 16.6292 4.3139 0.0 0
M  V30 END ATOM
M  V30 BEGIN BOND
M  V30 1 2 1 2
M  V30 2 1 2 3
M  V30 3 1 2 4
M  V30 4 1 3 5
M  V30 5 1 4 6
M  V30 6 1 5 7
M  V30 7 1 6 8
M  V30 8 1 7 9
M  V30 9 1 8 10
M  V30 10 1 9 11
M  V30 11 1 10 12
M  V30 12 1 11 13
M  V30 13 1 12 14
M  V30 14 1 13 15 CFG=3
M  V30 15 1 13 16
M  V30 16 1 14 17
M  V30 17 1 15 18
M  V30 18 2 16 19
M  V30 19 1 16 20
M  V30 20 1 17 21
M  V30 21 2 18 22
M  V30 22 1 18 23
M  V30 23 1 20 24
M  V30 24 1 21 25
M  V30 25 1 23 26
M  V30 26 2 24 27
M  V30 27 1 24 28
M  V30 28 1 25 29
M  V30 29 1 26 30
M  V30 30 1 27 31
M  V30 31 2 28 32
M  V30 32 1 29 33
M  V30 33 2 30 34
M  V30 34 1 30 35
M  V30 35 2 31 36
M  V30 36 1 33 37
M  V30 37 1 34 38
M  V30 38 2 35 39
M  V30 39 1 37 40
M  V30 40 2 38 41
M  V30 41 1 32 36
M  V30 42 1 39 41
M  V30 END BOND
M  V30 BEGIN COLLECTION
M  V30 MDLV30/STEABS ATOMS=(1 13)
M  V30 END COLLECTION
M  V30 END CTAB
M  END
>  <Compound ID>
252

>  <Name>
TM

>  <Uniprot>
Q8IXJ6

>  <Target>
SIRT2

>  <Smiles>
CCCCCCCCCCCCCC(=S)NCCCC[C@H](NC(=O)OCC1=CC=CC=C1)C(=O)NC1=CC=CC=C1

>  <Kd (nM)>


>  <Assay (Kd)>


>  <Ki (nM)>


>  <Assay (Ki)>


>  <IC50 (nM)>
93/370

>  <Assay (IC50)>
Inhibit SIRT2 deacetylase/defatty-acylase

>  <EC50 (nM)>


>  <Assay (EC50)>


>  <Article DOI>
10.1021/acsmedchemlett.0c00423

>  <Molecular Weight>
581.867

>  <Exact Mass>
581.365113492

>  <XLogP3>
9.61

>  <Heavy Atom Count>
41

>  <Ring Count>
2

>  <Hydrogen Bond Acceptor Count>
4

>  <Hydrogen Bond Donor Count>
3

>  <Rotatable Bond Count>
22

>  <Topological Polar Surface Area>
79.46

>  <Molecular Formula>
C34H51N3O3S

>  <InChI>
InChI=1S/C34H51N3O3S/c1-2-3-4-5-6-7-8-9-10-11-18-26-32(41)35-27-20-19-25-31(33(38)36-30-23-16-13-17-24-30)37-34(39)40-28-29-21-14-12-15-22-29/h12-17,21-24,31H,2-11,18-20,25-28H2,1H3,(H,35,41)(H,36,38)(H,37,39)/t31-/m0/s1

>  <InChI Key>
CJQGLLUJIVNREL-HKBQPEDESA-N

>  <BindingDB>
50276140

>  <PubChem>
126843233

>  <ChEMBL>
CHEMBL4129995

$$$$
Compound 925
Actelion Java MolfileCreator 2.0

  0  0  0  0  0  0              0 V3000
M  V30 BEGIN CTAB
M  V30 COUNTS 33 36 0 0 0
M  V30 BEGIN ATOM
M  V30 1 Cl 0.0 0.0 0.0 0
M  V30 2 C 0.6126 -1.3547 0.0 0
M  V30 3 C -0.2709 -2.5682 0.0 0
M  V30 4 C 2.0969 -1.4843 0.0 0
M  V30 5 C 0.3416 -3.923 0.0 0
M  V30 6 C 2.7095 -2.8391 0.0 0
M  V30 7 C -0.7186 -4.995 0.0 0
M  V30 8 C 1.826 -4.0525 0.0 0
M  V30 9 N -0.5419 -6.4794 0.0 0
M  V30 10 N -2.1558 -4.512 0.0 0
M  V30 11 N 2.6388 -5.3013 0.0 0
M  V30 12 C 0.7304 -7.2451 0.0 0
M  V30 13 C -3.2868 -5.5016 0.0 0 CFG=2
M  V30 14 C 2.1558 -6.715 0.0 0
M  V30 15 C 4.1232 -5.101 0.0 0
M  V30 16 C 0.4594 -8.7177 0.0 0
M  V30 17 C -4.7712 -5.1717 0.0 0
M  V30 18 C -3.1454 -6.986 0.0 0
M  V30 19 C 3.2986 -7.6693 0.0 0
M  V30 20 C 5.0186 -6.2791 0.0 0
M  V30 21 C 1.6021 -9.672 0.0 0
M  V30 22 N -5.5369 -6.4558 0.0 0
M  V30 23 C -4.5356 -7.575 0.0 0
M  V30 24 C 3.0276 -9.1419 0.0 0
M  V30 25 F 6.503 -6.0788 0.0 0
M  V30 26 F 4.4295 -7.6575 0.0 0
M  V30 27 F 1.3312 -11.1446 0.0 0
M  V30 28 C -7.0449 -6.5972 0.0 0
M  V30 29 O -7.681 -7.952 0.0 0
M  V30 30 N -7.9284 -5.3602 0.0 0
M  V30 31 C -9.4364 -5.5016 0.0 0
M  V30 32 C -10.3199 -4.2646 0.0 0
M  V30 33 C -10.0725 -6.8564 0.0 0
M  V30 END ATOM
M  V30 BEGIN BOND
M  V30 1 1 1 2
M  V30 2 2 2 3
M  V30 3 1 2 4
M  V30 4 1 3 5
M  V30 5 2 4 6
M  V30 6 1 5 7
M  V30 7 2 5 8
M  V30 8 2 7 9
M  V30 9 1 7 10
M  V30 10 1 8 11
M  V30 11 1 9 12
M  V30 12 1 13 10 CFG=1
M  V30 13 1 11 14
M  V30 14 1 11 15
M  V30 15 1 12 16
M  V30 16 1 13 17
M  V30 17 1 13 18
M  V30 18 1 14 19
M  V30 19 1 15 20
M  V30 20 2 16 21
M  V30 21 1 17 22
M  V30 22 1 18 23
M  V30 23 2 19 24
M  V30 24 1 20 25
M  V30 25 1 20 26
M  V30 26 1 21 27
M  V30 27 1 22 28
M  V30 28 2 28 29
M  V30 29 1 28 30
M  V30 30 1 30 31
M  V30 31 1 31 32
M  V30 32 1 31 33
M  V30 33 1 6 8
M  V30 34 2 12 14
M  V30 35 1 21 24
M  V30 36 1 22 23
M  V30 END BOND
M  V30 BEGIN COLLECTION
M  V30 MDLV30/STEABS ATOMS=(1 13)
M  V30 END COLLECTION
M  V30 END CTAB
M  END
>  <Compound ID>
253

>  <Name>
NVS-PAK1-1

>  <Uniprot>
Q13153

>  <Target>
PAK1

>  <Smiles>
CC(C)NC(=O)N1CC[C@H](NC2=NC3=CC(F)=CC=C3N(CC(F)F)C3=CC=C(Cl)C=C23)C1

>  <Kd (nM)>
7

>  <Assay (Kd)>
Kd was assessed by qPCR analysis

>  <Ki (nM)>


>  <Assay (Ki)>


>  <IC50 (nM)>
5.2

>  <Assay (IC50)>
Inhibition of wild type dephosphorylated form of PAK1

>  <EC50 (nM)>


>  <Assay (EC50)>


>  <Article DOI>
10.1021/acsmedchemlett.5b00102

>  <Molecular Weight>
479.934

>  <Exact Mass>
479.16997276

>  <XLogP3>
4.5

>  <Heavy Atom Count>
33

>  <Ring Count>
4

>  <Hydrogen Bond Acceptor Count>
4

>  <Hydrogen Bond Donor Count>
2

>  <Rotatable Bond Count>
4

>  <Topological Polar Surface Area>
59.97

>  <Molecular Formula>
C23H25ClF3N5O

>  <InChI>
InChI=1S/C23H25ClF3N5O/c1-13(2)28-23(33)31-8-7-16(11-31)29-22-17-9-14(24)3-5-19(17)32(12-21(26)27)20-6-4-15(25)10-18(20)30-22/h3-6,9-10,13,16,21H,7-8,11-12H2,1-2H3,(H,28,33)(H,29,30)/t16-/m0/s1

>  <InChI Key>
OINGHOPGNMYCAB-INIZCTEOSA-N

>  <BindingDB>
50112348

>  <PubChem>
137125241

>  <ChEMBL>
CHEMBL3609372

$$$$
Compound 926
Actelion Java MolfileCreator 2.0

  0  0  0  0  0  0              0 V3000
M  V30 BEGIN CTAB
M  V30 COUNTS 40 44 0 0 0
M  V30 BEGIN ATOM
M  V30 1 O 0.0 0.0 0.0 0
M  V30 2 C 1.0516 1.0752 0.0 0
M  V30 3 N 0.6498 2.5405 0.0 0
M  V30 4 C 2.4932 0.6971 0.0 0
M  V30 5 C -0.8153 2.9422 0.0 0
M  V30 6 C 2.8713 -0.7444 0.0 0
M  V30 7 C 3.5448 1.7724 0.0 0
M  V30 8 C -1.8906 1.8906 0.0 0
M  V30 9 C -1.217 4.4074 0.0 0
M  V30 10 C 4.3129 -1.1225 0.0 0
M  V30 11 C 4.9864 1.3943 0.0 0
M  V30 12 C -3.3558 2.2923 0.0 0
M  V30 13 C -2.6822 4.8092 0.0 0
M  V30 14 C 5.3645 -0.0472 0.0 0
M  V30 15 N -4.4311 1.2407 0.0 0
M  V30 16 C -3.7575 3.7575 0.0 0
M  V30 17 N 6.8061 -0.4253 0.0 0
M  V30 18 C -4.0529 -0.2008 0.0 0
M  V30 19 C 7.1843 -1.8669 0.0 0
M  V30 20 N -2.6113 -0.5789 0.0 0
M  V30 21 C -5.1282 -1.2525 0.0 0
M  V30 22 O 6.109 -2.9186 0.0 0
M  V30 23 C 8.6258 -2.245 0.0 0
M  V30 24 C -2.2332 -2.0205 0.0 0
M  V30 25 C -4.7501 -2.6941 0.0 0
M  V30 26 C 9.004 -3.6866 0.0 0
M  V30 27 N -3.3085 -3.0722 0.0 0
M  V30 28 C -5.8254 -3.7457 0.0 0
M  V30 29 C 10.4455 -4.0648 0.0 0
M  V30 30 C -5.6009 -5.2227 0.0 0
M  V30 31 C -7.326 -3.4976 0.0 0
M  V30 32 N 10.8237 -5.5063 0.0 0
M  V30 33 C -6.9479 -5.8963 0.0 0
M  V30 34 C -4.3483 -6.0263 0.0 0
M  V30 35 N -8.0232 -4.821 0.0 0
M  V30 36 C 12.2653 -5.8845 0.0 0
M  V30 37 C 9.7484 -6.558 0.0 0
M  V30 38 C -7.0425 -7.3851 0.0 0
M  V30 39 C -4.4429 -7.5151 0.0 0
M  V30 40 C -5.7899 -8.1886 0.0 0
M  V30 END ATOM
M  V30 BEGIN BOND
M  V30 1 2 1 2
M  V30 2 1 2 3
M  V30 3 1 2 4
M  V30 4 1 3 5
M  V30 5 2 4 6
M  V30 6 1 4 7
M  V30 7 2 5 8
M  V30 8 1 5 9
M  V30 9 1 6 10
M  V30 10 2 7 11
M  V30 11 1 8 12
M  V30 12 2 9 13
M  V30 13 2 10 14
M  V30 14 1 12 15
M  V30 15 2 12 16
M  V30 16 1 14 17
M  V30 17 1 15 18
M  V30 18 1 17 19
M  V30 19 2 18 20
M  V30 20 1 18 21
M  V30 21 2 19 22
M  V30 22 1 19 23
M  V30 23 1 20 24
M  V30 24 2 21 25
M  V30 25 2 23 26
M  V30 26 2 24 27
M  V30 27 1 25 28
M  V30 28 1 26 29
M  V30 29 1 28 30
M  V30 30 2 28 31
M  V30 31 1 29 32
M  V30 32 2 30 33
M  V30 33 1 30 34
M  V30 34 1 31 35
M  V30 35 1 32 36
M  V30 36 1 32 37
M  V30 37 1 33 38
M  V30 38 2 34 39
M  V30 39 2 38 40
M  V30 40 1 11 14
M  V30 41 1 13 16
M  V30 42 1 25 27
M  V30 43 1 33 35
M  V30 44 1 39 40
M  V30 END BOND
M  V30 END CTAB
M  END
>  <Compound ID>
254

>  <Name>
THZ-P1-2

>  <Uniprot>
P48426

>  <Target>
PIP4K2A

>  <Smiles>
CN(C)C/C=C/C(=O)NC1=CC=C(C(=O)NC2=CC=CC(NC3=CC(C4=C[NH]C5=CC=CC=C45)=NC=N3)=C2)C=C1

>  <Kd (nM)>


>  <Assay (Kd)>


>  <Ki (nM)>


>  <Assay (Ki)>


>  <IC50 (nM)>
950

>  <Assay (IC50)>
IC50 was assessed by ADP-Glo assay

>  <EC50 (nM)>


>  <Assay (EC50)>


>  <Article DOI>
10.1021/acsmedchemlett.9b00402

>  <Molecular Weight>
531.62

>  <Exact Mass>
531.238273168

>  <XLogP3>
4.17

>  <Heavy Atom Count>
40

>  <Ring Count>
5

>  <Hydrogen Bond Acceptor Count>
6

>  <Hydrogen Bond Donor Count>
4

>  <Rotatable Bond Count>
9

>  <Topological Polar Surface Area>
115.04

>  <Molecular Formula>
C31H29N7O2

>  <InChI>
InChI=1S/C31H29N7O2/c1-38(2)16-6-11-30(39)36-22-14-12-21(13-15-22)31(40)37-24-8-5-7-23(17-24)35-29-18-28(33-20-34-29)26-19-32-27-10-4-3-9-25(26)27/h3-15,17-20,32H,16H2,1-2H3,(H,36,39)(H,37,40)(H,33,34,35)/b11-6+

>  <InChI Key>
MJJJRRMQCUUKEO-IZZDOVSWSA-N

>  <BindingDB>
50511422

>  <PubChem>
134451950

>  <ChEMBL>
CHEMBL4446338

$$$$
Compound 927
Actelion Java MolfileCreator 2.0

  0  0  0  0  0  0              0 V3000
M  V30 BEGIN CTAB
M  V30 COUNTS 40 44 0 0 0
M  V30 BEGIN ATOM
M  V30 1 O 0.0 0.0 0.0 0
M  V30 2 C 1.0516 1.0752 0.0 0
M  V30 3 N 0.6498 2.5405 0.0 0
M  V30 4 C 2.4932 0.6971 0.0 0
M  V30 5 C -0.8153 2.9422 0.0 0
M  V30 6 C 2.8713 -0.7444 0.0 0
M  V30 7 C 3.5448 1.7724 0.0 0
M  V30 8 C -1.8906 1.8906 0.0 0
M  V30 9 C -1.217 4.4074 0.0 0
M  V30 10 C 4.3129 -1.1225 0.0 0
M  V30 11 C 4.9864 1.3943 0.0 0
M  V30 12 C -3.3558 2.2923 0.0 0
M  V30 13 C -2.6822 4.8092 0.0 0
M  V30 14 C 5.3645 -0.0472 0.0 0
M  V30 15 N -4.4311 1.2407 0.0 0
M  V30 16 C -3.7575 3.7575 0.0 0
M  V30 17 N 6.8061 -0.4253 0.0 0
M  V30 18 C -4.0529 -0.2008 0.0 0
M  V30 19 C 7.1843 -1.8669 0.0 0
M  V30 20 N -2.6113 -0.5789 0.0 0
M  V30 21 C -5.1282 -1.2525 0.0 0
M  V30 22 O 6.109 -2.9186 0.0 0
M  V30 23 C 8.6258 -2.245 0.0 0
M  V30 24 C -2.2332 -2.0205 0.0 0
M  V30 25 C -4.7501 -2.6941 0.0 0
M  V30 26 C 9.004 -3.6866 0.0 0
M  V30 27 N -3.3085 -3.0722 0.0 0
M  V30 28 C -5.8254 -3.7457 0.0 0
M  V30 29 C 10.4455 -4.0648 0.0 0
M  V30 30 C -5.6009 -5.2227 0.0 0
M  V30 31 C -7.326 -3.4976 0.0 0
M  V30 32 N 10.8237 -5.5063 0.0 0
M  V30 33 C -6.9479 -5.8963 0.0 0
M  V30 34 C -4.3483 -6.0263 0.0 0
M  V30 35 N -8.0232 -4.821 0.0 0
M  V30 36 C 12.2653 -5.8845 0.0 0
M  V30 37 C 9.7484 -6.558 0.0 0
M  V30 38 C -7.0425 -7.3851 0.0 0
M  V30 39 C -4.4429 -7.5151 0.0 0
M  V30 40 C -5.7899 -8.1886 0.0 0
M  V30 END ATOM
M  V30 BEGIN BOND
M  V30 1 2 1 2
M  V30 2 1 2 3
M  V30 3 1 2 4
M  V30 4 1 3 5
M  V30 5 2 4 6
M  V30 6 1 4 7
M  V30 7 2 5 8
M  V30 8 1 5 9
M  V30 9 1 6 10
M  V30 10 2 7 11
M  V30 11 1 8 12
M  V30 12 2 9 13
M  V30 13 2 10 14
M  V30 14 1 12 15
M  V30 15 2 12 16
M  V30 16 1 14 17
M  V30 17 1 15 18
M  V30 18 1 17 19
M  V30 19 2 18 20
M  V30 20 1 18 21
M  V30 21 2 19 22
M  V30 22 1 19 23
M  V30 23 1 20 24
M  V30 24 2 21 25
M  V30 25 2 23 26
M  V30 26 2 24 27
M  V30 27 1 25 28
M  V30 28 1 26 29
M  V30 29 1 28 30
M  V30 30 2 28 31
M  V30 31 1 29 32
M  V30 32 2 30 33
M  V30 33 1 30 34
M  V30 34 1 31 35
M  V30 35 1 32 36
M  V30 36 1 32 37
M  V30 37 1 33 38
M  V30 38 2 34 39
M  V30 39 2 38 40
M  V30 40 1 11 14
M  V30 41 1 13 16
M  V30 42 1 25 27
M  V30 43 1 33 35
M  V30 44 1 39 40
M  V30 END BOND
M  V30 END CTAB
M  END
>  <Compound ID>
254

>  <Name>
THZ-P1-2

>  <Uniprot>
P78356

>  <Target>
PIP4K2B

>  <Smiles>
CN(C)C/C=C/C(=O)NC1=CC=C(C(=O)NC2=CC=CC(NC3=CC(C4=C[NH]C5=CC=CC=C45)=NC=N3)=C2)C=C1

>  <Kd (nM)>


>  <Assay (Kd)>


>  <Ki (nM)>


>  <Assay (Ki)>


>  <IC50 (nM)>
5900

>  <Assay (IC50)>
IC50 was assessed by ADP-Glo assay

>  <EC50 (nM)>


>  <Assay (EC50)>


>  <Article DOI>
10.1021/acsmedchemlett.9b00402

>  <Molecular Weight>
531.62

>  <Exact Mass>
531.238273168

>  <XLogP3>
4.17

>  <Heavy Atom Count>
40

>  <Ring Count>
5

>  <Hydrogen Bond Acceptor Count>
6

>  <Hydrogen Bond Donor Count>
4

>  <Rotatable Bond Count>
9

>  <Topological Polar Surface Area>
115.04

>  <Molecular Formula>
C31H29N7O2

>  <InChI>
InChI=1S/C31H29N7O2/c1-38(2)16-6-11-30(39)36-22-14-12-21(13-15-22)31(40)37-24-8-5-7-23(17-24)35-29-18-28(33-20-34-29)26-19-32-27-10-4-3-9-25(26)27/h3-15,17-20,32H,16H2,1-2H3,(H,36,39)(H,37,40)(H,33,34,35)/b11-6+

>  <InChI Key>
MJJJRRMQCUUKEO-IZZDOVSWSA-N

>  <BindingDB>
50511422

>  <PubChem>
134451950

>  <ChEMBL>
CHEMBL4446338

$$$$
Compound 928
Actelion Java MolfileCreator 2.0

  0  0  0  0  0  0              0 V3000
M  V30 BEGIN CTAB
M  V30 COUNTS 40 44 0 0 0
M  V30 BEGIN ATOM
M  V30 1 O 0.0 0.0 0.0 0
M  V30 2 C 1.0516 1.0752 0.0 0
M  V30 3 N 0.6498 2.5405 0.0 0
M  V30 4 C 2.4932 0.6971 0.0 0
M  V30 5 C -0.8153 2.9422 0.0 0
M  V30 6 C 2.8713 -0.7444 0.0 0
M  V30 7 C 3.5448 1.7724 0.0 0
M  V30 8 C -1.8906 1.8906 0.0 0
M  V30 9 C -1.217 4.4074 0.0 0
M  V30 10 C 4.3129 -1.1225 0.0 0
M  V30 11 C 4.9864 1.3943 0.0 0
M  V30 12 C -3.3558 2.2923 0.0 0
M  V30 13 C -2.6822 4.8092 0.0 0
M  V30 14 C 5.3645 -0.0472 0.0 0
M  V30 15 N -4.4311 1.2407 0.0 0
M  V30 16 C -3.7575 3.7575 0.0 0
M  V30 17 N 6.8061 -0.4253 0.0 0
M  V30 18 C -4.0529 -0.2008 0.0 0
M  V30 19 C 7.1843 -1.8669 0.0 0
M  V30 20 N -2.6113 -0.5789 0.0 0
M  V30 21 C -5.1282 -1.2525 0.0 0
M  V30 22 O 6.109 -2.9186 0.0 0
M  V30 23 C 8.6258 -2.245 0.0 0
M  V30 24 C -2.2332 -2.0205 0.0 0
M  V30 25 C -4.7501 -2.6941 0.0 0
M  V30 26 C 9.004 -3.6866 0.0 0
M  V30 27 N -3.3085 -3.0722 0.0 0
M  V30 28 C -5.8254 -3.7457 0.0 0
M  V30 29 C 10.4455 -4.0648 0.0 0
M  V30 30 C -5.6009 -5.2227 0.0 0
M  V30 31 C -7.326 -3.4976 0.0 0
M  V30 32 N 10.8237 -5.5063 0.0 0
M  V30 33 C -6.9479 -5.8963 0.0 0
M  V30 34 C -4.3483 -6.0263 0.0 0
M  V30 35 N -8.0232 -4.821 0.0 0
M  V30 36 C 12.2653 -5.8845 0.0 0
M  V30 37 C 9.7484 -6.558 0.0 0
M  V30 38 C -7.0425 -7.3851 0.0 0
M  V30 39 C -4.4429 -7.5151 0.0 0
M  V30 40 C -5.7899 -8.1886 0.0 0
M  V30 END ATOM
M  V30 BEGIN BOND
M  V30 1 2 1 2
M  V30 2 1 2 3
M  V30 3 1 2 4
M  V30 4 1 3 5
M  V30 5 2 4 6
M  V30 6 1 4 7
M  V30 7 2 5 8
M  V30 8 1 5 9
M  V30 9 1 6 10
M  V30 10 2 7 11
M  V30 11 1 8 12
M  V30 12 2 9 13
M  V30 13 2 10 14
M  V30 14 1 12 15
M  V30 15 2 12 16
M  V30 16 1 14 17
M  V30 17 1 15 18
M  V30 18 1 17 19
M  V30 19 2 18 20
M  V30 20 1 18 21
M  V30 21 2 19 22
M  V30 22 1 19 23
M  V30 23 1 20 24
M  V30 24 2 21 25
M  V30 25 2 23 26
M  V30 26 2 24 27
M  V30 27 1 25 28
M  V30 28 1 26 29
M  V30 29 1 28 30
M  V30 30 2 28 31
M  V30 31 1 29 32
M  V30 32 2 30 33
M  V30 33 1 30 34
M  V30 34 1 31 35
M  V30 35 1 32 36
M  V30 36 1 32 37
M  V30 37 1 33 38
M  V30 38 2 34 39
M  V30 39 2 38 40
M  V30 40 1 11 14
M  V30 41 1 13 16
M  V30 42 1 25 27
M  V30 43 1 33 35
M  V30 44 1 39 40
M  V30 END BOND
M  V30 END CTAB
M  END
>  <Compound ID>
254

>  <Name>
THZ-P1-2

>  <Uniprot>
Q8TBX8

>  <Target>
PIP4K2C

>  <Smiles>
CN(C)C/C=C/C(=O)NC1=CC=C(C(=O)NC2=CC=CC(NC3=CC(C4=C[NH]C5=CC=CC=C45)=NC=N3)=C2)C=C1

>  <Kd (nM)>
4.8

>  <Assay (Kd)>
Kd of PIP4K2C

>  <Ki (nM)>


>  <Assay (Ki)>


>  <IC50 (nM)>


>  <Assay (IC50)>


>  <EC50 (nM)>


>  <Assay (EC50)>


>  <Article DOI>
10.1021/acs.jmedchem.0c00227

>  <Molecular Weight>
531.62

>  <Exact Mass>
531.238273168

>  <XLogP3>
4.17

>  <Heavy Atom Count>
40

>  <Ring Count>
5

>  <Hydrogen Bond Acceptor Count>
6

>  <Hydrogen Bond Donor Count>
4

>  <Rotatable Bond Count>
9

>  <Topological Polar Surface Area>
115.04

>  <Molecular Formula>
C31H29N7O2

>  <InChI>
InChI=1S/C31H29N7O2/c1-38(2)16-6-11-30(39)36-22-14-12-21(13-15-22)31(40)37-24-8-5-7-23(17-24)35-29-18-28(33-20-34-29)26-19-32-27-10-4-3-9-25(26)27/h3-15,17-20,32H,16H2,1-2H3,(H,36,39)(H,37,40)(H,33,34,35)/b11-6+

>  <InChI Key>
MJJJRRMQCUUKEO-IZZDOVSWSA-N

>  <BindingDB>
50511422

>  <PubChem>
134451950

>  <ChEMBL>
CHEMBL4446338

$$$$
Compound 929
Actelion Java MolfileCreator 2.0

  0  0  0  0  0  0              0 V3000
M  V30 BEGIN CTAB
M  V30 COUNTS 25 29 0 0 0
M  V30 BEGIN ATOM
M  V30 1 O 0.0 0.0 0.0 0
M  V30 2 C 1.4776 -0.211 0.0 0
M  V30 3 N 2.404 0.9733 0.0 0
M  V30 4 C 2.017 -1.5948 0.0 0
M  V30 5 C 3.8816 0.7622 0.0 0
M  V30 6 C 1.8411 2.3805 0.0 0
M  V30 7 C 3.4946 -1.8059 0.0 0
M  V30 8 N 4.808 1.9466 0.0 0
M  V30 9 C 4.421 -0.6215 0.0 0
M  V30 10 C 0.3752 2.7675 0.0 0
M  V30 11 C 2.6385 3.6588 0.0 0
M  V30 12 C 6.2857 1.7356 0.0 0
M  V30 13 C 5.8987 -0.8326 0.0 0
M  V30 14 C 1.759 3.3304 0.0 0
M  V30 15 C -0.598 3.9402 0.0 0
M  V30 16 C 1.6652 4.8315 0.0 0
M  V30 17 N 6.8251 0.3518 0.0 0
M  V30 18 N 7.2121 2.92 0.0 0
M  V30 19 C 0.1993 5.2185 0.0 0
M  V30 20 C 8.6897 2.7089 0.0 0
M  V30 21 C 9.2291 1.3251 0.0 0
M  V30 22 C 9.6161 3.8933 0.0 0
M  V30 23 C 10.7068 1.114 0.0 0
M  V30 24 C 11.0937 3.6822 0.0 0
M  V30 25 C 11.6332 2.2985 0.0 0
M  V30 END ATOM
M  V30 BEGIN BOND
M  V30 1 2 1 2
M  V30 2 1 2 3
M  V30 3 1 2 4
M  V30 4 1 3 5
M  V30 5 1 3 6
M  V30 6 2 4 7
M  V30 7 2 5 8
M  V30 8 1 5 9
M  V30 9 1 6 10
M  V30 10 1 6 11
M  V30 11 1 8 12
M  V30 12 2 9 13
M  V30 13 1 10 14
M  V30 14 1 10 15
M  V30 15 1 11 16
M  V30 16 2 12 17
M  V30 17 1 12 18
M  V30 18 1 15 19
M  V30 19 1 18 20
M  V30 20 2 20 21
M  V30 21 1 20 22
M  V30 22 1 21 23
M  V30 23 2 22 24
M  V30 24 2 23 25
M  V30 25 1 7 9
M  V30 26 1 13 17
M  V30 27 1 14 16
M  V30 28 1 16 19
M  V30 29 1 24 25
M  V30 END BOND
M  V30 END CTAB
M  END
>  <Compound ID>
255

>  <Name>


>  <Uniprot>
Q2M2I8

>  <Target>
AAK1

>  <Smiles>
O=C1C=CC2=CN=C(NC3=CC=CC=C3)N=C2N1C1CC2CCC1C2

>  <Kd (nM)>


>  <Assay (Kd)>


>  <Ki (nM)>


>  <Assay (Ki)>


>  <IC50 (nM)>


>  <Assay (IC50)>


>  <EC50 (nM)>


>  <Assay (EC50)>


>  <Article DOI>
10.1016/j.cell.2020.10.038

>  <Molecular Weight>
332.407

>  <Exact Mass>
332.16371126

>  <XLogP3>
3.75

>  <Heavy Atom Count>
25

>  <Ring Count>
5

>  <Hydrogen Bond Acceptor Count>
5

>  <Hydrogen Bond Donor Count>
1

>  <Rotatable Bond Count>
3

>  <Topological Polar Surface Area>
59.81

>  <Molecular Formula>
C20H20N4O

>  <InChI>
InChI=1S/C20H20N4O/c25-18-9-8-15-12-21-20(22-16-4-2-1-3-5-16)23-19(15)24(18)17-11-13-6-7-14(17)10-13/h1-5,8-9,12-14,17H,6-7,10-11H2,(H,21,22,23)

>  <InChI Key>
QAWADIWIAIIMDV-UHFFFAOYSA-N

>  <BindingDB>
6256

>  <PubChem>
5330234

>  <ChEMBL>
CHEMBL358560

$$$$
Compound 930
Actelion Java MolfileCreator 2.0

  0  0  0  0  0  0              0 V3000
M  V30 BEGIN CTAB
M  V30 COUNTS 25 29 0 0 0
M  V30 BEGIN ATOM
M  V30 1 O 0.0 0.0 0.0 0
M  V30 2 C 1.4776 -0.211 0.0 0
M  V30 3 N 2.404 0.9733 0.0 0
M  V30 4 C 2.017 -1.5948 0.0 0
M  V30 5 C 3.8816 0.7622 0.0 0
M  V30 6 C 1.8411 2.3805 0.0 0
M  V30 7 C 3.4946 -1.8059 0.0 0
M  V30 8 N 4.808 1.9466 0.0 0
M  V30 9 C 4.421 -0.6215 0.0 0
M  V30 10 C 0.3752 2.7675 0.0 0
M  V30 11 C 2.6385 3.6588 0.0 0
M  V30 12 C 6.2857 1.7356 0.0 0
M  V30 13 C 5.8987 -0.8326 0.0 0
M  V30 14 C 1.759 3.3304 0.0 0
M  V30 15 C -0.598 3.9402 0.0 0
M  V30 16 C 1.6652 4.8315 0.0 0
M  V30 17 N 6.8251 0.3518 0.0 0
M  V30 18 N 7.2121 2.92 0.0 0
M  V30 19 C 0.1993 5.2185 0.0 0
M  V30 20 C 8.6897 2.7089 0.0 0
M  V30 21 C 9.2291 1.3251 0.0 0
M  V30 22 C 9.6161 3.8933 0.0 0
M  V30 23 C 10.7068 1.114 0.0 0
M  V30 24 C 11.0937 3.6822 0.0 0
M  V30 25 C 11.6332 2.2985 0.0 0
M  V30 END ATOM
M  V30 BEGIN BOND
M  V30 1 2 1 2
M  V30 2 1 2 3
M  V30 3 1 2 4
M  V30 4 1 3 5
M  V30 5 1 3 6
M  V30 6 2 4 7
M  V30 7 2 5 8
M  V30 8 1 5 9
M  V30 9 1 6 10
M  V30 10 1 6 11
M  V30 11 1 8 12
M  V30 12 2 9 13
M  V30 13 1 10 14
M  V30 14 1 10 15
M  V30 15 1 11 16
M  V30 16 2 12 17
M  V30 17 1 12 18
M  V30 18 1 15 19
M  V30 19 1 18 20
M  V30 20 2 20 21
M  V30 21 1 20 22
M  V30 22 1 21 23
M  V30 23 2 22 24
M  V30 24 2 23 25
M  V30 25 1 7 9
M  V30 26 1 13 17
M  V30 27 1 14 16
M  V30 28 1 16 19
M  V30 29 1 24 25
M  V30 END BOND
M  V30 END CTAB
M  END
>  <Compound ID>
255

>  <Name>


>  <Uniprot>
O14965

>  <Target>
AURKA

>  <Smiles>
O=C1C=CC2=CN=C(NC3=CC=CC=C3)N=C2N1C1CC2CCC1C2

>  <Kd (nM)>


>  <Assay (Kd)>


>  <Ki (nM)>


>  <Assay (Ki)>


>  <IC50 (nM)>


>  <Assay (IC50)>


>  <EC50 (nM)>


>  <Assay (EC50)>


>  <Article DOI>
10.1016/j.cell.2020.10.038

>  <Molecular Weight>
332.407

>  <Exact Mass>
332.16371126

>  <XLogP3>
3.75

>  <Heavy Atom Count>
25

>  <Ring Count>
5

>  <Hydrogen Bond Acceptor Count>
5

>  <Hydrogen Bond Donor Count>
1

>  <Rotatable Bond Count>
3

>  <Topological Polar Surface Area>
59.81

>  <Molecular Formula>
C20H20N4O

>  <InChI>
InChI=1S/C20H20N4O/c25-18-9-8-15-12-21-20(22-16-4-2-1-3-5-16)23-19(15)24(18)17-11-13-6-7-14(17)10-13/h1-5,8-9,12-14,17H,6-7,10-11H2,(H,21,22,23)

>  <InChI Key>
QAWADIWIAIIMDV-UHFFFAOYSA-N

>  <BindingDB>
6256

>  <PubChem>
5330234

>  <ChEMBL>
CHEMBL358560

$$$$
Compound 931
Actelion Java MolfileCreator 2.0

  0  0  0  0  0  0              0 V3000
M  V30 BEGIN CTAB
M  V30 COUNTS 25 29 0 0 0
M  V30 BEGIN ATOM
M  V30 1 O 0.0 0.0 0.0 0
M  V30 2 C 1.4776 -0.211 0.0 0
M  V30 3 N 2.404 0.9733 0.0 0
M  V30 4 C 2.017 -1.5948 0.0 0
M  V30 5 C 3.8816 0.7622 0.0 0
M  V30 6 C 1.8411 2.3805 0.0 0
M  V30 7 C 3.4946 -1.8059 0.0 0
M  V30 8 N 4.808 1.9466 0.0 0
M  V30 9 C 4.421 -0.6215 0.0 0
M  V30 10 C 0.3752 2.7675 0.0 0
M  V30 11 C 2.6385 3.6588 0.0 0
M  V30 12 C 6.2857 1.7356 0.0 0
M  V30 13 C 5.8987 -0.8326 0.0 0
M  V30 14 C 1.759 3.3304 0.0 0
M  V30 15 C -0.598 3.9402 0.0 0
M  V30 16 C 1.6652 4.8315 0.0 0
M  V30 17 N 6.8251 0.3518 0.0 0
M  V30 18 N 7.2121 2.92 0.0 0
M  V30 19 C 0.1993 5.2185 0.0 0
M  V30 20 C 8.6897 2.7089 0.0 0
M  V30 21 C 9.2291 1.3251 0.0 0
M  V30 22 C 9.6161 3.8933 0.0 0
M  V30 23 C 10.7068 1.114 0.0 0
M  V30 24 C 11.0937 3.6822 0.0 0
M  V30 25 C 11.6332 2.2985 0.0 0
M  V30 END ATOM
M  V30 BEGIN BOND
M  V30 1 2 1 2
M  V30 2 1 2 3
M  V30 3 1 2 4
M  V30 4 1 3 5
M  V30 5 1 3 6
M  V30 6 2 4 7
M  V30 7 2 5 8
M  V30 8 1 5 9
M  V30 9 1 6 10
M  V30 10 1 6 11
M  V30 11 1 8 12
M  V30 12 2 9 13
M  V30 13 1 10 14
M  V30 14 1 10 15
M  V30 15 1 11 16
M  V30 16 2 12 17
M  V30 17 1 12 18
M  V30 18 1 15 19
M  V30 19 1 18 20
M  V30 20 2 20 21
M  V30 21 1 20 22
M  V30 22 1 21 23
M  V30 23 2 22 24
M  V30 24 2 23 25
M  V30 25 1 7 9
M  V30 26 1 13 17
M  V30 27 1 14 16
M  V30 28 1 16 19
M  V30 29 1 24 25
M  V30 END BOND
M  V30 END CTAB
M  END
>  <Compound ID>
255

>  <Name>


>  <Uniprot>
Q96GD4

>  <Target>
AURKB

>  <Smiles>
O=C1C=CC2=CN=C(NC3=CC=CC=C3)N=C2N1C1CC2CCC1C2

>  <Kd (nM)>


>  <Assay (Kd)>


>  <Ki (nM)>


>  <Assay (Ki)>


>  <IC50 (nM)>


>  <Assay (IC50)>


>  <EC50 (nM)>


>  <Assay (EC50)>


>  <Article DOI>
10.1016/j.cell.2020.10.038

>  <Molecular Weight>
332.407

>  <Exact Mass>
332.16371126

>  <XLogP3>
3.75

>  <Heavy Atom Count>
25

>  <Ring Count>
5

>  <Hydrogen Bond Acceptor Count>
5

>  <Hydrogen Bond Donor Count>
1

>  <Rotatable Bond Count>
3

>  <Topological Polar Surface Area>
59.81

>  <Molecular Formula>
C20H20N4O

>  <InChI>
InChI=1S/C20H20N4O/c25-18-9-8-15-12-21-20(22-16-4-2-1-3-5-16)23-19(15)24(18)17-11-13-6-7-14(17)10-13/h1-5,8-9,12-14,17H,6-7,10-11H2,(H,21,22,23)

>  <InChI Key>
QAWADIWIAIIMDV-UHFFFAOYSA-N

>  <BindingDB>
6256

>  <PubChem>
5330234

>  <ChEMBL>
CHEMBL358560

$$$$
Compound 932
Actelion Java MolfileCreator 2.0

  0  0  0  0  0  0              0 V3000
M  V30 BEGIN CTAB
M  V30 COUNTS 25 29 0 0 0
M  V30 BEGIN ATOM
M  V30 1 O 0.0 0.0 0.0 0
M  V30 2 C 1.4776 -0.211 0.0 0
M  V30 3 N 2.404 0.9733 0.0 0
M  V30 4 C 2.017 -1.5948 0.0 0
M  V30 5 C 3.8816 0.7622 0.0 0
M  V30 6 C 1.8411 2.3805 0.0 0
M  V30 7 C 3.4946 -1.8059 0.0 0
M  V30 8 N 4.808 1.9466 0.0 0
M  V30 9 C 4.421 -0.6215 0.0 0
M  V30 10 C 0.3752 2.7675 0.0 0
M  V30 11 C 2.6385 3.6588 0.0 0
M  V30 12 C 6.2857 1.7356 0.0 0
M  V30 13 C 5.8987 -0.8326 0.0 0
M  V30 14 C 1.759 3.3304 0.0 0
M  V30 15 C -0.598 3.9402 0.0 0
M  V30 16 C 1.6652 4.8315 0.0 0
M  V30 17 N 6.8251 0.3518 0.0 0
M  V30 18 N 7.2121 2.92 0.0 0
M  V30 19 C 0.1993 5.2185 0.0 0
M  V30 20 C 8.6897 2.7089 0.0 0
M  V30 21 C 9.2291 1.3251 0.0 0
M  V30 22 C 9.6161 3.8933 0.0 0
M  V30 23 C 10.7068 1.114 0.0 0
M  V30 24 C 11.0937 3.6822 0.0 0
M  V30 25 C 11.6332 2.2985 0.0 0
M  V30 END ATOM
M  V30 BEGIN BOND
M  V30 1 2 1 2
M  V30 2 1 2 3
M  V30 3 1 2 4
M  V30 4 1 3 5
M  V30 5 1 3 6
M  V30 6 2 4 7
M  V30 7 2 5 8
M  V30 8 1 5 9
M  V30 9 1 6 10
M  V30 10 1 6 11
M  V30 11 1 8 12
M  V30 12 2 9 13
M  V30 13 1 10 14
M  V30 14 1 10 15
M  V30 15 1 11 16
M  V30 16 2 12 17
M  V30 17 1 12 18
M  V30 18 1 15 19
M  V30 19 1 18 20
M  V30 20 2 20 21
M  V30 21 1 20 22
M  V30 22 1 21 23
M  V30 23 2 22 24
M  V30 24 2 23 25
M  V30 25 1 7 9
M  V30 26 1 13 17
M  V30 27 1 14 16
M  V30 28 1 16 19
M  V30 29 1 24 25
M  V30 END BOND
M  V30 END CTAB
M  END
>  <Compound ID>
255

>  <Name>


>  <Uniprot>
Q00534

>  <Target>
CDK6

>  <Smiles>
O=C1C=CC2=CN=C(NC3=CC=CC=C3)N=C2N1C1CC2CCC1C2

>  <Kd (nM)>


>  <Assay (Kd)>


>  <Ki (nM)>


>  <Assay (Ki)>


>  <IC50 (nM)>


>  <Assay (IC50)>


>  <EC50 (nM)>


>  <Assay (EC50)>


>  <Article DOI>
10.1016/j.cell.2020.10.038

>  <Molecular Weight>
332.407

>  <Exact Mass>
332.16371126

>  <XLogP3>
3.75

>  <Heavy Atom Count>
25

>  <Ring Count>
5

>  <Hydrogen Bond Acceptor Count>
5

>  <Hydrogen Bond Donor Count>
1

>  <Rotatable Bond Count>
3

>  <Topological Polar Surface Area>
59.81

>  <Molecular Formula>
C20H20N4O

>  <InChI>
InChI=1S/C20H20N4O/c25-18-9-8-15-12-21-20(22-16-4-2-1-3-5-16)23-19(15)24(18)17-11-13-6-7-14(17)10-13/h1-5,8-9,12-14,17H,6-7,10-11H2,(H,21,22,23)

>  <InChI Key>
QAWADIWIAIIMDV-UHFFFAOYSA-N

>  <BindingDB>
6256

>  <PubChem>
5330234

>  <ChEMBL>
CHEMBL358560

$$$$
Compound 933
Actelion Java MolfileCreator 2.0

  0  0  0  0  0  0              0 V3000
M  V30 BEGIN CTAB
M  V30 COUNTS 25 29 0 0 0
M  V30 BEGIN ATOM
M  V30 1 O 0.0 0.0 0.0 0
M  V30 2 C 1.4776 -0.211 0.0 0
M  V30 3 N 2.404 0.9733 0.0 0
M  V30 4 C 2.017 -1.5948 0.0 0
M  V30 5 C 3.8816 0.7622 0.0 0
M  V30 6 C 1.8411 2.3805 0.0 0
M  V30 7 C 3.4946 -1.8059 0.0 0
M  V30 8 N 4.808 1.9466 0.0 0
M  V30 9 C 4.421 -0.6215 0.0 0
M  V30 10 C 0.3752 2.7675 0.0 0
M  V30 11 C 2.6385 3.6588 0.0 0
M  V30 12 C 6.2857 1.7356 0.0 0
M  V30 13 C 5.8987 -0.8326 0.0 0
M  V30 14 C 1.759 3.3304 0.0 0
M  V30 15 C -0.598 3.9402 0.0 0
M  V30 16 C 1.6652 4.8315 0.0 0
M  V30 17 N 6.8251 0.3518 0.0 0
M  V30 18 N 7.2121 2.92 0.0 0
M  V30 19 C 0.1993 5.2185 0.0 0
M  V30 20 C 8.6897 2.7089 0.0 0
M  V30 21 C 9.2291 1.3251 0.0 0
M  V30 22 C 9.6161 3.8933 0.0 0
M  V30 23 C 10.7068 1.114 0.0 0
M  V30 24 C 11.0937 3.6822 0.0 0
M  V30 25 C 11.6332 2.2985 0.0 0
M  V30 END ATOM
M  V30 BEGIN BOND
M  V30 1 2 1 2
M  V30 2 1 2 3
M  V30 3 1 2 4
M  V30 4 1 3 5
M  V30 5 1 3 6
M  V30 6 2 4 7
M  V30 7 2 5 8
M  V30 8 1 5 9
M  V30 9 1 6 10
M  V30 10 1 6 11
M  V30 11 1 8 12
M  V30 12 2 9 13
M  V30 13 1 10 14
M  V30 14 1 10 15
M  V30 15 1 11 16
M  V30 16 2 12 17
M  V30 17 1 12 18
M  V30 18 1 15 19
M  V30 19 1 18 20
M  V30 20 2 20 21
M  V30 21 1 20 22
M  V30 22 1 21 23
M  V30 23 2 22 24
M  V30 24 2 23 25
M  V30 25 1 7 9
M  V30 26 1 13 17
M  V30 27 1 14 16
M  V30 28 1 16 19
M  V30 29 1 24 25
M  V30 END BOND
M  V30 END CTAB
M  END
>  <Compound ID>
255

>  <Name>


>  <Uniprot>
P50750

>  <Target>
CDK9

>  <Smiles>
O=C1C=CC2=CN=C(NC3=CC=CC=C3)N=C2N1C1CC2CCC1C2

>  <Kd (nM)>


>  <Assay (Kd)>


>  <Ki (nM)>


>  <Assay (Ki)>


>  <IC50 (nM)>


>  <Assay (IC50)>


>  <EC50 (nM)>


>  <Assay (EC50)>


>  <Article DOI>
10.1016/j.cell.2020.10.038

>  <Molecular Weight>
332.407

>  <Exact Mass>
332.16371126

>  <XLogP3>
3.75

>  <Heavy Atom Count>
25

>  <Ring Count>
5

>  <Hydrogen Bond Acceptor Count>
5

>  <Hydrogen Bond Donor Count>
1

>  <Rotatable Bond Count>
3

>  <Topological Polar Surface Area>
59.81

>  <Molecular Formula>
C20H20N4O

>  <InChI>
InChI=1S/C20H20N4O/c25-18-9-8-15-12-21-20(22-16-4-2-1-3-5-16)23-19(15)24(18)17-11-13-6-7-14(17)10-13/h1-5,8-9,12-14,17H,6-7,10-11H2,(H,21,22,23)

>  <InChI Key>
QAWADIWIAIIMDV-UHFFFAOYSA-N

>  <BindingDB>
6256

>  <PubChem>
5330234

>  <ChEMBL>
CHEMBL358560

$$$$
Compound 934
Actelion Java MolfileCreator 2.0

  0  0  0  0  0  0              0 V3000
M  V30 BEGIN CTAB
M  V30 COUNTS 25 29 0 0 0
M  V30 BEGIN ATOM
M  V30 1 O 0.0 0.0 0.0 0
M  V30 2 C 1.4776 -0.211 0.0 0
M  V30 3 N 2.404 0.9733 0.0 0
M  V30 4 C 2.017 -1.5948 0.0 0
M  V30 5 C 3.8816 0.7622 0.0 0
M  V30 6 C 1.8411 2.3805 0.0 0
M  V30 7 C 3.4946 -1.8059 0.0 0
M  V30 8 N 4.808 1.9466 0.0 0
M  V30 9 C 4.421 -0.6215 0.0 0
M  V30 10 C 0.3752 2.7675 0.0 0
M  V30 11 C 2.6385 3.6588 0.0 0
M  V30 12 C 6.2857 1.7356 0.0 0
M  V30 13 C 5.8987 -0.8326 0.0 0
M  V30 14 C 1.759 3.3304 0.0 0
M  V30 15 C -0.598 3.9402 0.0 0
M  V30 16 C 1.6652 4.8315 0.0 0
M  V30 17 N 6.8251 0.3518 0.0 0
M  V30 18 N 7.2121 2.92 0.0 0
M  V30 19 C 0.1993 5.2185 0.0 0
M  V30 20 C 8.6897 2.7089 0.0 0
M  V30 21 C 9.2291 1.3251 0.0 0
M  V30 22 C 9.6161 3.8933 0.0 0
M  V30 23 C 10.7068 1.114 0.0 0
M  V30 24 C 11.0937 3.6822 0.0 0
M  V30 25 C 11.6332 2.2985 0.0 0
M  V30 END ATOM
M  V30 BEGIN BOND
M  V30 1 2 1 2
M  V30 2 1 2 3
M  V30 3 1 2 4
M  V30 4 1 3 5
M  V30 5 1 3 6
M  V30 6 2 4 7
M  V30 7 2 5 8
M  V30 8 1 5 9
M  V30 9 1 6 10
M  V30 10 1 6 11
M  V30 11 1 8 12
M  V30 12 2 9 13
M  V30 13 1 10 14
M  V30 14 1 10 15
M  V30 15 1 11 16
M  V30 16 2 12 17
M  V30 17 1 12 18
M  V30 18 1 15 19
M  V30 19 1 18 20
M  V30 20 2 20 21
M  V30 21 1 20 22
M  V30 22 1 21 23
M  V30 23 2 22 24
M  V30 24 2 23 25
M  V30 25 1 7 9
M  V30 26 1 13 17
M  V30 27 1 14 16
M  V30 28 1 16 19
M  V30 29 1 24 25
M  V30 END BOND
M  V30 END CTAB
M  END
>  <Compound ID>
255

>  <Name>


>  <Uniprot>
P21802

>  <Target>
FGFR2

>  <Smiles>
O=C1C=CC2=CN=C(NC3=CC=CC=C3)N=C2N1C1CC2CCC1C2

>  <Kd (nM)>


>  <Assay (Kd)>


>  <Ki (nM)>


>  <Assay (Ki)>


>  <IC50 (nM)>


>  <Assay (IC50)>


>  <EC50 (nM)>


>  <Assay (EC50)>


>  <Article DOI>
10.1016/j.cell.2020.10.038

>  <Molecular Weight>
332.407

>  <Exact Mass>
332.16371126

>  <XLogP3>
3.75

>  <Heavy Atom Count>
25

>  <Ring Count>
5

>  <Hydrogen Bond Acceptor Count>
5

>  <Hydrogen Bond Donor Count>
1

>  <Rotatable Bond Count>
3

>  <Topological Polar Surface Area>
59.81

>  <Molecular Formula>
C20H20N4O

>  <InChI>
InChI=1S/C20H20N4O/c25-18-9-8-15-12-21-20(22-16-4-2-1-3-5-16)23-19(15)24(18)17-11-13-6-7-14(17)10-13/h1-5,8-9,12-14,17H,6-7,10-11H2,(H,21,22,23)

>  <InChI Key>
QAWADIWIAIIMDV-UHFFFAOYSA-N

>  <BindingDB>
6256

>  <PubChem>
5330234

>  <ChEMBL>
CHEMBL358560

$$$$
Compound 935
Actelion Java MolfileCreator 2.0

  0  0  0  0  0  0              0 V3000
M  V30 BEGIN CTAB
M  V30 COUNTS 25 29 0 0 0
M  V30 BEGIN ATOM
M  V30 1 O 0.0 0.0 0.0 0
M  V30 2 C 1.4776 -0.211 0.0 0
M  V30 3 N 2.404 0.9733 0.0 0
M  V30 4 C 2.017 -1.5948 0.0 0
M  V30 5 C 3.8816 0.7622 0.0 0
M  V30 6 C 1.8411 2.3805 0.0 0
M  V30 7 C 3.4946 -1.8059 0.0 0
M  V30 8 N 4.808 1.9466 0.0 0
M  V30 9 C 4.421 -0.6215 0.0 0
M  V30 10 C 0.3752 2.7675 0.0 0
M  V30 11 C 2.6385 3.6588 0.0 0
M  V30 12 C 6.2857 1.7356 0.0 0
M  V30 13 C 5.8987 -0.8326 0.0 0
M  V30 14 C 1.759 3.3304 0.0 0
M  V30 15 C -0.598 3.9402 0.0 0
M  V30 16 C 1.6652 4.8315 0.0 0
M  V30 17 N 6.8251 0.3518 0.0 0
M  V30 18 N 7.2121 2.92 0.0 0
M  V30 19 C 0.1993 5.2185 0.0 0
M  V30 20 C 8.6897 2.7089 0.0 0
M  V30 21 C 9.2291 1.3251 0.0 0
M  V30 22 C 9.6161 3.8933 0.0 0
M  V30 23 C 10.7068 1.114 0.0 0
M  V30 24 C 11.0937 3.6822 0.0 0
M  V30 25 C 11.6332 2.2985 0.0 0
M  V30 END ATOM
M  V30 BEGIN BOND
M  V30 1 2 1 2
M  V30 2 1 2 3
M  V30 3 1 2 4
M  V30 4 1 3 5
M  V30 5 1 3 6
M  V30 6 2 4 7
M  V30 7 2 5 8
M  V30 8 1 5 9
M  V30 9 1 6 10
M  V30 10 1 6 11
M  V30 11 1 8 12
M  V30 12 2 9 13
M  V30 13 1 10 14
M  V30 14 1 10 15
M  V30 15 1 11 16
M  V30 16 2 12 17
M  V30 17 1 12 18
M  V30 18 1 15 19
M  V30 19 1 18 20
M  V30 20 2 20 21
M  V30 21 1 20 22
M  V30 22 1 21 23
M  V30 23 2 22 24
M  V30 24 2 23 25
M  V30 25 1 7 9
M  V30 26 1 13 17
M  V30 27 1 14 16
M  V30 28 1 16 19
M  V30 29 1 24 25
M  V30 END BOND
M  V30 END CTAB
M  END
>  <Compound ID>
255

>  <Name>


>  <Uniprot>
Q9UEE5

>  <Target>
STK17A

>  <Smiles>
O=C1C=CC2=CN=C(NC3=CC=CC=C3)N=C2N1C1CC2CCC1C2

>  <Kd (nM)>


>  <Assay (Kd)>


>  <Ki (nM)>


>  <Assay (Ki)>


>  <IC50 (nM)>


>  <Assay (IC50)>


>  <EC50 (nM)>


>  <Assay (EC50)>


>  <Article DOI>
10.1016/j.cell.2020.10.038

>  <Molecular Weight>
332.407

>  <Exact Mass>
332.16371126

>  <XLogP3>
3.75

>  <Heavy Atom Count>
25

>  <Ring Count>
5

>  <Hydrogen Bond Acceptor Count>
5

>  <Hydrogen Bond Donor Count>
1

>  <Rotatable Bond Count>
3

>  <Topological Polar Surface Area>
59.81

>  <Molecular Formula>
C20H20N4O

>  <InChI>
InChI=1S/C20H20N4O/c25-18-9-8-15-12-21-20(22-16-4-2-1-3-5-16)23-19(15)24(18)17-11-13-6-7-14(17)10-13/h1-5,8-9,12-14,17H,6-7,10-11H2,(H,21,22,23)

>  <InChI Key>
QAWADIWIAIIMDV-UHFFFAOYSA-N

>  <BindingDB>
6256

>  <PubChem>
5330234

>  <ChEMBL>
CHEMBL358560

$$$$
Compound 936
Actelion Java MolfileCreator 2.0

  0  0  0  0  0  0              0 V3000
M  V30 BEGIN CTAB
M  V30 COUNTS 25 29 0 0 0
M  V30 BEGIN ATOM
M  V30 1 O 0.0 0.0 0.0 0
M  V30 2 C 1.4776 -0.211 0.0 0
M  V30 3 N 2.404 0.9733 0.0 0
M  V30 4 C 2.017 -1.5948 0.0 0
M  V30 5 C 3.8816 0.7622 0.0 0
M  V30 6 C 1.8411 2.3805 0.0 0
M  V30 7 C 3.4946 -1.8059 0.0 0
M  V30 8 N 4.808 1.9466 0.0 0
M  V30 9 C 4.421 -0.6215 0.0 0
M  V30 10 C 0.3752 2.7675 0.0 0
M  V30 11 C 2.6385 3.6588 0.0 0
M  V30 12 C 6.2857 1.7356 0.0 0
M  V30 13 C 5.8987 -0.8326 0.0 0
M  V30 14 C 1.759 3.3304 0.0 0
M  V30 15 C -0.598 3.9402 0.0 0
M  V30 16 C 1.6652 4.8315 0.0 0
M  V30 17 N 6.8251 0.3518 0.0 0
M  V30 18 N 7.2121 2.92 0.0 0
M  V30 19 C 0.1993 5.2185 0.0 0
M  V30 20 C 8.6897 2.7089 0.0 0
M  V30 21 C 9.2291 1.3251 0.0 0
M  V30 22 C 9.6161 3.8933 0.0 0
M  V30 23 C 10.7068 1.114 0.0 0
M  V30 24 C 11.0937 3.6822 0.0 0
M  V30 25 C 11.6332 2.2985 0.0 0
M  V30 END ATOM
M  V30 BEGIN BOND
M  V30 1 2 1 2
M  V30 2 1 2 3
M  V30 3 1 2 4
M  V30 4 1 3 5
M  V30 5 1 3 6
M  V30 6 2 4 7
M  V30 7 2 5 8
M  V30 8 1 5 9
M  V30 9 1 6 10
M  V30 10 1 6 11
M  V30 11 1 8 12
M  V30 12 2 9 13
M  V30 13 1 10 14
M  V30 14 1 10 15
M  V30 15 1 11 16
M  V30 16 2 12 17
M  V30 17 1 12 18
M  V30 18 1 15 19
M  V30 19 1 18 20
M  V30 20 2 20 21
M  V30 21 1 20 22
M  V30 22 1 21 23
M  V30 23 2 22 24
M  V30 24 2 23 25
M  V30 25 1 7 9
M  V30 26 1 13 17
M  V30 27 1 14 16
M  V30 28 1 16 19
M  V30 29 1 24 25
M  V30 END BOND
M  V30 END CTAB
M  END
>  <Compound ID>
255

>  <Name>


>  <Uniprot>
P33981

>  <Target>
TTK

>  <Smiles>
O=C1C=CC2=CN=C(NC3=CC=CC=C3)N=C2N1C1CC2CCC1C2

>  <Kd (nM)>


>  <Assay (Kd)>


>  <Ki (nM)>


>  <Assay (Ki)>


>  <IC50 (nM)>


>  <Assay (IC50)>


>  <EC50 (nM)>


>  <Assay (EC50)>


>  <Article DOI>
10.1016/j.cell.2020.10.038

>  <Molecular Weight>
332.407

>  <Exact Mass>
332.16371126

>  <XLogP3>
3.75

>  <Heavy Atom Count>
25

>  <Ring Count>
5

>  <Hydrogen Bond Acceptor Count>
5

>  <Hydrogen Bond Donor Count>
1

>  <Rotatable Bond Count>
3

>  <Topological Polar Surface Area>
59.81

>  <Molecular Formula>
C20H20N4O

>  <InChI>
InChI=1S/C20H20N4O/c25-18-9-8-15-12-21-20(22-16-4-2-1-3-5-16)23-19(15)24(18)17-11-13-6-7-14(17)10-13/h1-5,8-9,12-14,17H,6-7,10-11H2,(H,21,22,23)

>  <InChI Key>
QAWADIWIAIIMDV-UHFFFAOYSA-N

>  <BindingDB>
6256

>  <PubChem>
5330234

>  <ChEMBL>
CHEMBL358560

$$$$
Compound 937
Actelion Java MolfileCreator 2.0

  0  0  0  0  0  0              0 V3000
M  V30 BEGIN CTAB
M  V30 COUNTS 28 31 0 0 0
M  V30 BEGIN ATOM
M  V30 1 O 0.0 0.0 0.0 0
M  V30 2 C 0.0236 1.5107 0.0 0
M  V30 3 N 1.3219 2.2425 0.0 0
M  V30 4 C -1.2747 2.3015 0.0 0
M  V30 5 C 2.5966 1.4753 0.0 0
M  V30 6 N -2.5966 1.5934 0.0 0
M  V30 7 C -1.2511 3.8123 0.0 0
M  V30 8 C 3.895 2.2071 0.0 0 CFG=2
M  V30 9 C -3.895 2.3842 0.0 0
M  V30 10 C -2.5494 4.6031 0.0 0
M  V30 11 O 3.9186 3.7179 0.0 0
M  V30 12 C 5.1697 1.4399 0.0 0
M  V30 13 N -3.8713 3.895 0.0 0
M  V30 14 N -2.5258 6.1139 0.0 0
M  V30 15 N 6.468 2.1717 0.0 0
M  V30 16 C -1.2275 6.8457 0.0 0
M  V30 17 C 6.4916 3.6825 0.0 0
M  V30 18 C 7.7427 1.4045 0.0 0
M  V30 19 C 0.2006 6.4444 0.0 0
M  V30 20 C -0.8262 8.2975 0.0 0
M  V30 21 C 7.79 4.4143 0.0 0
M  V30 22 C 9.0411 2.1363 0.0 0
M  V30 23 O 0.6019 7.8962 0.0 0
M  V30 24 C 9.0647 3.6471 0.0 0
M  V30 25 C 7.8136 5.9251 0.0 0
M  V30 26 C 10.363 4.3789 0.0 0
M  V30 27 C 9.1119 6.6569 0.0 0
M  V30 28 C 10.3866 5.8897 0.0 0
M  V30 END ATOM
M  V30 BEGIN BOND
M  V30 1 2 1 2
M  V30 2 1 2 3
M  V30 3 1 2 4
M  V30 4 1 3 5
M  V30 5 2 4 6
M  V30 6 1 4 7
M  V30 7 1 5 8
M  V30 8 1 6 9
M  V30 9 2 7 10
M  V30 10 1 8 11 CFG=3
M  V30 11 1 8 12
M  V30 12 2 9 13
M  V30 13 1 10 14
M  V30 14 1 12 15
M  V30 15 1 14 16
M  V30 16 1 15 17
M  V30 17 1 15 18
M  V30 18 1 16 19
M  V30 19 1 16 20
M  V30 20 1 17 21
M  V30 21 1 18 22
M  V30 22 1 19 23
M  V30 23 2 21 24
M  V30 24 1 21 25
M  V30 25 1 24 26
M  V30 26 2 25 27
M  V30 27 2 26 28
M  V30 28 1 10 13
M  V30 29 1 20 23
M  V30 30 1 22 24
M  V30 31 1 27 28
M  V30 END BOND
M  V30 BEGIN COLLECTION
M  V30 MDLV30/STEABS ATOMS=(1 8)
M  V30 END COLLECTION
M  V30 END CTAB
M  END
>  <Compound ID>
256

>  <Name>
EPZ015666

>  <Uniprot>
O14744

>  <Target>
PRMT5

>  <Smiles>
O=C(NC[C@H](O)CN1CCC2=CC=CC=C2C1)C1=CC(NC2COC2)=NC=N1

>  <Kd (nM)>


>  <Assay (Kd)>


>  <Ki (nM)>


>  <Assay (Ki)>


>  <IC50 (nM)>
30

>  <Assay (IC50)>
IC50 was assessed by a human PRMT5/MEP50 radioactive biochemical assay

>  <EC50 (nM)>


>  <Assay (EC50)>


>  <Article DOI>
10.1021/acs.jmedchem.0c01111

>  <Molecular Weight>
383.452

>  <Exact Mass>
383.19573966

>  <XLogP3>
0.77

>  <Heavy Atom Count>
28

>  <Ring Count>
4

>  <Hydrogen Bond Acceptor Count>
7

>  <Hydrogen Bond Donor Count>
3

>  <Rotatable Bond Count>
7

>  <Topological Polar Surface Area>
99.61

>  <Molecular Formula>
C20H25N5O3

>  <InChI>
InChI=1S/C20H25N5O3/c26-17(10-25-6-5-14-3-1-2-4-15(14)9-25)8-21-20(27)18-7-19(23-13-22-18)24-16-11-28-12-16/h1-4,7,13,16-17,26H,5-6,8-12H2,(H,21,27)(H,22,23,24)/t17-/m0/s1

>  <InChI Key>
ZKXZLIFRWWKZRY-KRWDZBQOSA-N

>  <BindingDB>
177922

>  <PubChem>
90241673

>  <ChEMBL>
CHEMBL4060831

$$$$
Compound 938
Actelion Java MolfileCreator 2.0

  0  0  0  0  0  0              0 V3000
M  V30 BEGIN CTAB
M  V30 COUNTS 20 21 0 0 0
M  V30 BEGIN ATOM
M  V30 1 O 0.0 0.0 0.0 0
M  V30 2 C 0.4132 1.4463 0.0 0
M  V30 3 N -0.6313 2.5482 0.0 0
M  V30 4 C 1.8595 1.8136 0.0 0
M  V30 5 N -2.1005 2.2038 0.0 0
M  V30 6 C 2.2727 3.2599 0.0 0
M  V30 7 C 2.8811 0.7346 0.0 0
M  V30 8 C -3.1451 3.3058 0.0 0
M  V30 9 C 3.719 3.6272 0.0 0
M  V30 10 C 4.3274 1.1019 0.0 0
M  V30 11 C -4.6143 2.9614 0.0 0
M  V30 12 C 4.7406 2.5482 0.0 0
M  V30 13 C -5.6589 4.0634 0.0 0
M  V30 14 C 6.1869 2.9155 0.0 0
M  V30 15 C -7.1282 3.719 0.0 0
M  V30 16 C 7.2085 1.8365 0.0 0
M  V30 17 C 6.6001 4.3618 0.0 0
M  V30 18 C 8.6548 2.2038 0.0 0
M  V30 19 C 8.0464 4.7291 0.0 0
M  V30 20 C 9.068 3.6501 0.0 0
M  V30 END ATOM
M  V30 BEGIN BOND
M  V30 1 2 1 2
M  V30 2 1 2 3
M  V30 3 1 2 4
M  V30 4 1 3 5
M  V30 5 2 4 6
M  V30 6 1 4 7
M  V30 7 1 5 8
M  V30 8 1 6 9
M  V30 9 2 7 10
M  V30 10 1 8 11
M  V30 11 2 9 12
M  V30 12 1 11 13
M  V30 13 1 12 14
M  V30 14 1 13 15
M  V30 15 2 14 16
M  V30 16 1 14 17
M  V30 17 1 16 18
M  V30 18 2 17 19
M  V30 19 2 18 20
M  V30 20 1 10 12
M  V30 21 1 19 20
M  V30 END BOND
M  V30 END CTAB
M  END
>  <Compound ID>
257

>  <Name>
SR-3558

>  <Uniprot>
Q13547

>  <Target>
HDAC1

>  <Smiles>
CCCCNNC(=O)C1=CC=C(C2=CC=CC=C2)C=C1

>  <Kd (nM)>


>  <Assay (Kd)>


>  <Ki (nM)>


>  <Assay (Ki)>


>  <IC50 (nM)>
90

>  <Assay (IC50)>
IC50 was assessed by HDAC-Glot I/II Assays

>  <EC50 (nM)>


>  <Assay (EC50)>


>  <Article DOI>
10.1039/d0cc03243c

>  <Molecular Weight>
268.36

>  <Exact Mass>
268.15756326

>  <XLogP3>
3.84

>  <Heavy Atom Count>
20

>  <Ring Count>
2

>  <Hydrogen Bond Acceptor Count>
2

>  <Hydrogen Bond Donor Count>
2

>  <Rotatable Bond Count>
6

>  <Topological Polar Surface Area>
41.13

>  <Molecular Formula>
C17H20N2O

>  <InChI>
InChI=1S/C17H20N2O/c1-2-3-13-18-19-17(20)16-11-9-15(10-12-16)14-7-5-4-6-8-14/h4-12,18H,2-3,13H2,1H3,(H,19,20)

>  <InChI Key>
WRMLHFIPUNMIQC-UHFFFAOYSA-N

>  <BindingDB>


>  <PubChem>
118418386

>  <ChEMBL>


$$$$
Compound 939
Actelion Java MolfileCreator 2.0

  0  0  0  0  0  0              0 V3000
M  V30 BEGIN CTAB
M  V30 COUNTS 20 21 0 0 0
M  V30 BEGIN ATOM
M  V30 1 O 0.0 0.0 0.0 0
M  V30 2 C 0.4132 1.4463 0.0 0
M  V30 3 N -0.6313 2.5482 0.0 0
M  V30 4 C 1.8595 1.8136 0.0 0
M  V30 5 N -2.1005 2.2038 0.0 0
M  V30 6 C 2.2727 3.2599 0.0 0
M  V30 7 C 2.8811 0.7346 0.0 0
M  V30 8 C -3.1451 3.3058 0.0 0
M  V30 9 C 3.719 3.6272 0.0 0
M  V30 10 C 4.3274 1.1019 0.0 0
M  V30 11 C -4.6143 2.9614 0.0 0
M  V30 12 C 4.7406 2.5482 0.0 0
M  V30 13 C -5.6589 4.0634 0.0 0
M  V30 14 C 6.1869 2.9155 0.0 0
M  V30 15 C -7.1282 3.719 0.0 0
M  V30 16 C 7.2085 1.8365 0.0 0
M  V30 17 C 6.6001 4.3618 0.0 0
M  V30 18 C 8.6548 2.2038 0.0 0
M  V30 19 C 8.0464 4.7291 0.0 0
M  V30 20 C 9.068 3.6501 0.0 0
M  V30 END ATOM
M  V30 BEGIN BOND
M  V30 1 2 1 2
M  V30 2 1 2 3
M  V30 3 1 2 4
M  V30 4 1 3 5
M  V30 5 2 4 6
M  V30 6 1 4 7
M  V30 7 1 5 8
M  V30 8 1 6 9
M  V30 9 2 7 10
M  V30 10 1 8 11
M  V30 11 2 9 12
M  V30 12 1 11 13
M  V30 13 1 12 14
M  V30 14 1 13 15
M  V30 15 2 14 16
M  V30 16 1 14 17
M  V30 17 1 16 18
M  V30 18 2 17 19
M  V30 19 2 18 20
M  V30 20 1 10 12
M  V30 21 1 19 20
M  V30 END BOND
M  V30 END CTAB
M  END
>  <Compound ID>
257

>  <Name>
SR-3558

>  <Uniprot>
Q92769

>  <Target>
HDAC2

>  <Smiles>
CCCCNNC(=O)C1=CC=C(C2=CC=CC=C2)C=C1

>  <Kd (nM)>


>  <Assay (Kd)>


>  <Ki (nM)>


>  <Assay (Ki)>


>  <IC50 (nM)>
800

>  <Assay (IC50)>
IC50 was assessed by HDAC-Glot I/II Assays

>  <EC50 (nM)>


>  <Assay (EC50)>


>  <Article DOI>
10.1039/d0cc03243c

>  <Molecular Weight>
268.36

>  <Exact Mass>
268.15756326

>  <XLogP3>
3.84

>  <Heavy Atom Count>
20

>  <Ring Count>
2

>  <Hydrogen Bond Acceptor Count>
2

>  <Hydrogen Bond Donor Count>
2

>  <Rotatable Bond Count>
6

>  <Topological Polar Surface Area>
41.13

>  <Molecular Formula>
C17H20N2O

>  <InChI>
InChI=1S/C17H20N2O/c1-2-3-13-18-19-17(20)16-11-9-15(10-12-16)14-7-5-4-6-8-14/h4-12,18H,2-3,13H2,1H3,(H,19,20)

>  <InChI Key>
WRMLHFIPUNMIQC-UHFFFAOYSA-N

>  <BindingDB>


>  <PubChem>
118418386

>  <ChEMBL>


$$$$
Compound 940
Actelion Java MolfileCreator 2.0

  0  0  0  0  0  0              0 V3000
M  V30 BEGIN CTAB
M  V30 COUNTS 20 21 0 0 0
M  V30 BEGIN ATOM
M  V30 1 O 0.0 0.0 0.0 0
M  V30 2 C 0.4132 1.4463 0.0 0
M  V30 3 N -0.6313 2.5482 0.0 0
M  V30 4 C 1.8595 1.8136 0.0 0
M  V30 5 N -2.1005 2.2038 0.0 0
M  V30 6 C 2.2727 3.2599 0.0 0
M  V30 7 C 2.8811 0.7346 0.0 0
M  V30 8 C -3.1451 3.3058 0.0 0
M  V30 9 C 3.719 3.6272 0.0 0
M  V30 10 C 4.3274 1.1019 0.0 0
M  V30 11 C -4.6143 2.9614 0.0 0
M  V30 12 C 4.7406 2.5482 0.0 0
M  V30 13 C -5.6589 4.0634 0.0 0
M  V30 14 C 6.1869 2.9155 0.0 0
M  V30 15 C -7.1282 3.719 0.0 0
M  V30 16 C 7.2085 1.8365 0.0 0
M  V30 17 C 6.6001 4.3618 0.0 0
M  V30 18 C 8.6548 2.2038 0.0 0
M  V30 19 C 8.0464 4.7291 0.0 0
M  V30 20 C 9.068 3.6501 0.0 0
M  V30 END ATOM
M  V30 BEGIN BOND
M  V30 1 2 1 2
M  V30 2 1 2 3
M  V30 3 1 2 4
M  V30 4 1 3 5
M  V30 5 2 4 6
M  V30 6 1 4 7
M  V30 7 1 5 8
M  V30 8 1 6 9
M  V30 9 2 7 10
M  V30 10 1 8 11
M  V30 11 2 9 12
M  V30 12 1 11 13
M  V30 13 1 12 14
M  V30 14 1 13 15
M  V30 15 2 14 16
M  V30 16 1 14 17
M  V30 17 1 16 18
M  V30 18 2 17 19
M  V30 19 2 18 20
M  V30 20 1 10 12
M  V30 21 1 19 20
M  V30 END BOND
M  V30 END CTAB
M  END
>  <Compound ID>
257

>  <Name>
SR-3558

>  <Uniprot>
O15379

>  <Target>
HDAC3

>  <Smiles>
CCCCNNC(=O)C1=CC=C(C2=CC=CC=C2)C=C1

>  <Kd (nM)>


>  <Assay (Kd)>


>  <Ki (nM)>


>  <Assay (Ki)>


>  <IC50 (nM)>
60

>  <Assay (IC50)>
IC50 was assessed by HDAC-Glot I/II Assays

>  <EC50 (nM)>


>  <Assay (EC50)>


>  <Article DOI>
10.1039/d0cc03243c

>  <Molecular Weight>
268.36

>  <Exact Mass>
268.15756326

>  <XLogP3>
3.84

>  <Heavy Atom Count>
20

>  <Ring Count>
2

>  <Hydrogen Bond Acceptor Count>
2

>  <Hydrogen Bond Donor Count>
2

>  <Rotatable Bond Count>
6

>  <Topological Polar Surface Area>
41.13

>  <Molecular Formula>
C17H20N2O

>  <InChI>
InChI=1S/C17H20N2O/c1-2-3-13-18-19-17(20)16-11-9-15(10-12-16)14-7-5-4-6-8-14/h4-12,18H,2-3,13H2,1H3,(H,19,20)

>  <InChI Key>
WRMLHFIPUNMIQC-UHFFFAOYSA-N

>  <BindingDB>


>  <PubChem>
118418386

>  <ChEMBL>


$$$$
Compound 941
Actelion Java MolfileCreator 2.0

  0  0  0  0  0  0              0 V3000
M  V30 BEGIN CTAB
M  V30 COUNTS 36 40 0 0 0
M  V30 BEGIN ATOM
M  V30 1 O 0.0 0.0 0.0 0
M  V30 2 C 0.4601 -1.4157 0.0 0
M  V30 3 N -0.5545 -2.5248 0.0 0
M  V30 4 C 1.9113 -1.7107 0.0 0
M  V30 5 C -2.0292 -2.2062 0.0 0 CFG=1
M  V30 6 C 2.9023 -0.5781 0.0 0
M  V30 7 C 2.3714 -3.1265 0.0 0
M  V30 8 C -2.513 -0.7668 0.0 0
M  V30 9 C -3.0439 -3.3152 0.0 0
M  V30 10 N 2.4186 0.8612 0.0 0
M  V30 11 C 4.3535 -0.873 0.0 0
M  V30 12 N 3.8226 -3.4214 0.0 0
M  V30 13 C -3.9877 -0.4483 0.0 0
M  V30 14 C -4.5187 -2.9967 0.0 0
M  V30 15 C 3.4096 1.9938 0.0 0
M  V30 16 C 4.8136 -2.2888 0.0 0
M  V30 17 C -5.0024 -1.5573 0.0 0 CFG=1
M  V30 18 C 2.9259 3.4332 0.0 0
M  V30 19 C 4.8608 1.6989 0.0 0
M  V30 20 N 6.2648 -2.5838 0.0 0
M  V30 21 C -6.4772 -1.2388 0.0 0
M  V30 22 C 7.362 -1.5691 0.0 0
M  V30 23 C 6.8665 -3.9405 0.0 0
M  V30 24 O -7.4918 -2.3478 0.0 0
M  V30 25 N -6.9609 0.2005 0.0 0
M  V30 26 N 7.3384 -0.0589 0.0 0
M  V30 27 C 8.648 -2.3006 0.0 0
M  V30 28 C 8.3413 -3.7636 0.0 0
M  V30 29 C -8.4356 0.5191 0.0 0
M  V30 30 C 8.6244 0.7078 0.0 0
M  V30 31 C 9.934 -1.5337 0.0 0
M  V30 32 C -9.875 0.0589 0.0 0
M  V30 33 C -9.5683 1.5337 0.0 0
M  V30 34 C 9.9104 -0.0235 0.0 0
M  V30 35 C 11.1964 0.7432 0.0 0
M  V30 36 N 12.4824 1.5101 0.0 0
M  V30 END ATOM
M  V30 BEGIN BOND
M  V30 1 2 1 2
M  V30 2 1 2 3
M  V30 3 1 2 4
M  V30 4 1 5 3 CFG=3
M  V30 5 2 4 6
M  V30 6 1 4 7
M  V30 7 1 5 8
M  V30 8 1 5 9
M  V30 9 1 6 10
M  V30 10 1 6 11
M  V30 11 2 7 12
M  V30 12 1 8 13
M  V30 13 1 9 14
M  V30 14 1 10 15
M  V30 15 2 11 16
M  V30 16 1 13 17
M  V30 17 1 15 18
M  V30 18 1 15 19
M  V30 19 1 16 20
M  V30 20 1 17 21 CFG=1
M  V30 21 1 20 22
M  V30 22 1 20 23
M  V30 23 2 21 24
M  V30 24 1 21 25
M  V30 25 2 22 26
M  V30 26 1 22 27
M  V30 27 2 23 28
M  V30 28 1 25 29
M  V30 29 1 26 30
M  V30 30 2 27 31
M  V30 31 1 29 32
M  V30 32 1 29 33
M  V30 33 2 30 34
M  V30 34 1 34 35
M  V30 35 3 35 36
M  V30 36 1 12 16
M  V30 37 1 14 17
M  V30 38 1 27 28
M  V30 39 1 31 34
M  V30 40 1 32 33
M  V30 END BOND
M  V30 BEGIN COLLECTION
M  V30 MDLV30/STEABS ATOMS=(2 5 17)
M  V30 END COLLECTION
M  V30 END CTAB
M  END
>  <Compound ID>
258

>  <Name>


>  <Uniprot>
Q9NWZ3

>  <Target>
IRAK4

>  <Smiles>
CC(C)NC1=CC(N2C=CC3=CC(C#N)=CN=C32)=NC=C1C(=O)N[C@H]1CC[C@H](C(=O)NC2CC2)CC1

>  <Kd (nM)>


>  <Assay (Kd)>


>  <Ki (nM)>


>  <Assay (Ki)>


>  <IC50 (nM)>
3

>  <Assay (IC50)>
IC50 was assessed by Caliper biochemistry assay

>  <EC50 (nM)>


>  <Assay (EC50)>


>  <Article DOI>
10.1016/j.chembiol.2020.08.010

>  <Molecular Weight>
485.592

>  <Exact Mass>
485.253923232

>  <XLogP3>
3.62

>  <Heavy Atom Count>
36

>  <Ring Count>
5

>  <Hydrogen Bond Acceptor Count>
7

>  <Hydrogen Bond Donor Count>
3

>  <Rotatable Bond Count>
7

>  <Topological Polar Surface Area>
124.73

>  <Molecular Formula>
C27H31N7O2

>  <InChI>
InChI=1S/C27H31N7O2/c1-16(2)31-23-12-24(34-10-9-19-11-17(13-28)14-30-25(19)34)29-15-22(23)27(36)33-20-5-3-18(4-6-20)26(35)32-21-7-8-21/h9-12,14-16,18,20-21H,3-8H2,1-2H3,(H,29,31)(H,32,35)(H,33,36)/t18-,20-

>  <InChI Key>
QPYNPSIRCQLZNI-KESTWPANSA-N

>  <BindingDB>
187491

>  <PubChem>
118206508

>  <ChEMBL>
CHEMBL3926706

$$$$
Compound 942
Actelion Java MolfileCreator 2.0

  0  0  0  0  0  0              0 V3000
M  V30 BEGIN CTAB
M  V30 COUNTS 22 24 0 0 0
M  V30 BEGIN ATOM
M  V30 1 S 0.0 0.0 0.0 0
M  V30 2 C 1.2491 0.8405 0.0 0
M  V30 3 C -1.179 0.9572 0.0 0
M  V30 4 N 0.8405 2.2998 0.0 0
M  V30 5 C 2.6383 0.3152 0.0 0
M  V30 6 C -0.6537 2.3698 0.0 0
M  V30 7 C -2.6383 0.572 0.0 0
M  V30 8 C 3.794 1.2724 0.0 0
M  V30 9 C 2.8718 -1.1557 0.0 0
M  V30 10 O -1.4942 3.6423 0.0 0
M  V30 11 O -3.7123 1.646 0.0 0
M  V30 12 N -3.0352 -0.8638 0.0 0
M  V30 13 C 5.1833 0.7471 0.0 0
M  V30 14 C 4.261 -1.681 0.0 0
M  V30 15 C -0.8288 4.9965 0.0 0
M  V30 16 N 5.4168 -0.7237 0.0 0
M  V30 17 N 6.339 1.7044 0.0 0
M  V30 18 C 7.7282 1.179 0.0 0
M  V30 19 O 7.9617 -0.2918 0.0 0
M  V30 20 C 8.884 2.1363 0.0 0
M  V30 21 C 9.4093 3.5489 0.0 0
M  V30 22 C 10.3549 2.3931 0.0 0
M  V30 END ATOM
M  V30 BEGIN BOND
M  V30 1 1 1 2
M  V30 2 1 1 3
M  V30 3 2 2 4
M  V30 4 1 2 5
M  V30 5 2 3 6
M  V30 6 1 3 7
M  V30 7 2 5 8
M  V30 8 1 5 9
M  V30 9 1 6 10
M  V30 10 2 7 11
M  V30 11 1 7 12
M  V30 12 1 8 13
M  V30 13 2 9 14
M  V30 14 1 10 15
M  V30 15 2 13 16
M  V30 16 1 13 17
M  V30 17 1 17 18
M  V30 18 2 18 19
M  V30 19 1 18 20
M  V30 20 1 20 21
M  V30 21 1 20 22
M  V30 22 1 4 6
M  V30 23 1 14 16
M  V30 24 1 21 22
M  V30 END BOND
M  V30 END CTAB
M  END
>  <Compound ID>
259

>  <Name>


>  <Uniprot>
P49841

>  <Target>
GSK-3beta

>  <Smiles>
COC1=C(C(N)=O)SC(C2=CC=NC(NC(=O)C3CC3)=C2)=N1

>  <Kd (nM)>


>  <Assay (Kd)>


>  <Ki (nM)>


>  <Assay (Ki)>


>  <IC50 (nM)>
1.1

>  <Assay (IC50)>
IC50 was assessed by competitive binding assay

>  <EC50 (nM)>


>  <Assay (EC50)>


>  <Article DOI>
10.1016/j.bmcl.2015.03.046

>  <Molecular Weight>
318.358

>  <Exact Mass>
318.078661308

>  <XLogP3>
1.03

>  <Heavy Atom Count>
22

>  <Ring Count>
3

>  <Hydrogen Bond Acceptor Count>
6

>  <Hydrogen Bond Donor Count>
2

>  <Rotatable Bond Count>
5

>  <Topological Polar Surface Area>
107.2

>  <Molecular Formula>
C14H14N4O3S

>  <InChI>
InChI=1S/C14H14N4O3S/c1-21-13-10(11(15)19)22-14(18-13)8-4-5-16-9(6-8)17-12(20)7-2-3-7/h4-7H,2-3H2,1H3,(H2,15,19)(H,16,17,20)

>  <InChI Key>
CYADPSMQNARVII-UHFFFAOYSA-N

>  <BindingDB>
50074681

>  <PubChem>
73333976

>  <ChEMBL>
CHEMBL3410089

$$$$
Compound 943
Actelion Java MolfileCreator 2.0

  0  0  0  0  0  0              0 V3000
M  V30 BEGIN CTAB
M  V30 COUNTS 27 29 0 0 0
M  V30 BEGIN ATOM
M  V30 1 F 0.0 0.0 0.0 0
M  V30 2 C 0.164 1.4994 0.0 0
M  V30 3 F 1.64 1.3354 0.0 0
M  V30 4 F -1.3354 1.6868 0.0 0
M  V30 5 O 0.328 2.9989 0.0 0
M  V30 6 C -0.8903 3.9009 0.0 0
M  V30 7 C -2.2726 3.3152 0.0 0
M  V30 8 C -0.7262 5.4003 0.0 0
M  V30 9 C -3.4909 4.2172 0.0 0
M  V30 10 C -1.9446 6.3024 0.0 0
M  V30 11 C -3.3269 5.7166 0.0 0
M  V30 12 N -4.5452 6.6186 0.0 0
M  V30 13 C -5.9275 6.0329 0.0 0
M  V30 14 N -7.1458 6.9349 0.0 0
M  V30 15 C -6.1149 4.5569 0.0 0
M  V30 16 C -8.5281 6.3492 0.0 0
M  V30 17 C -7.4972 3.9712 0.0 0
M  V30 18 N -8.7155 4.8732 0.0 0
M  V30 19 C -7.6847 2.4951 0.0 0
M  V30 20 C -6.4898 1.6166 0.0 0
M  V30 21 C -9.067 1.9094 0.0 0
M  V30 22 C -6.6772 0.1405 0.0 0
M  V30 23 C -9.2544 0.4334 0.0 0
M  V30 24 C -5.4823 -0.738 0.0 0
M  V30 25 C -8.0595 -0.4451 0.0 0
M  V30 26 O -4.1235 -0.1288 0.0 0
M  V30 27 N -5.6698 -2.214 0.0 0
M  V30 END ATOM
M  V30 BEGIN BOND
M  V30 1 1 1 2
M  V30 2 1 2 3
M  V30 3 1 2 4
M  V30 4 1 2 5
M  V30 5 1 5 6
M  V30 6 2 6 7
M  V30 7 1 6 8
M  V30 8 1 7 9
M  V30 9 2 8 10
M  V30 10 2 9 11
M  V30 11 1 11 12
M  V30 12 1 12 13
M  V30 13 2 13 14
M  V30 14 1 13 15
M  V30 15 1 14 16
M  V30 16 2 15 17
M  V30 17 2 16 18
M  V30 18 1 17 19
M  V30 19 2 19 20
M  V30 20 1 19 21
M  V30 21 1 20 22
M  V30 22 2 21 23
M  V30 23 1 22 24
M  V30 24 2 22 25
M  V30 25 2 24 26
M  V30 26 1 24 27
M  V30 27 1 10 11
M  V30 28 1 17 18
M  V30 29 1 23 25
M  V30 END BOND
M  V30 END CTAB
M  END
>  <Compound ID>
260

>  <Name>
GNF-2

>  <Uniprot>
P00519

>  <Target>
ABL1

>  <Smiles>
NC(=O)C1=CC=CC(C2=CC(NC3=CC=C(OC(F)(F)F)C=C3)=NC=N2)=C1

>  <Kd (nM)>


>  <Assay (Kd)>


>  <Ki (nM)>


>  <Assay (Ki)>


>  <IC50 (nM)>
9

>  <Assay (IC50)>
Inhibition of recombinant human c-ABL SH3/SH2/SH1 domain

>  <EC50 (nM)>


>  <Assay (EC50)>


>  <Article DOI>
10.1021/acs.jmedchem.8b01040

>  <Molecular Weight>
374.322

>  <Exact Mass>
374.099060316

>  <XLogP3>
3.8

>  <Heavy Atom Count>
27

>  <Ring Count>
3

>  <Hydrogen Bond Acceptor Count>
5

>  <Hydrogen Bond Donor Count>
2

>  <Rotatable Bond Count>
5

>  <Topological Polar Surface Area>
90.13

>  <Molecular Formula>
C18H13F3N4O2

>  <InChI>
InChI=1S/C18H13F3N4O2/c19-18(20,21)27-14-6-4-13(5-7-14)25-16-9-15(23-10-24-16)11-2-1-3-12(8-11)17(22)26/h1-10H,(H2,22,26)(H,23,24,25)

>  <InChI Key>
WEVYNIUIFUYDGI-UHFFFAOYSA-N

>  <BindingDB>
50325999

>  <PubChem>
5311510

>  <ChEMBL>
CHEMBL483847

$$$$
Compound 944
Actelion Java MolfileCreator 2.0

  0  0  0  0  0  0              0 V3000
M  V30 BEGIN CTAB
M  V30 COUNTS 25 27 0 0 0
M  V30 BEGIN ATOM
M  V30 1 S 0.0 0.0 0.0 0
M  V30 2 O 1.0233 -1.0703 0.0 0
M  V30 3 O -1.0468 1.0938 0.0 0
M  V30 4 N 1.0703 1.0468 0.0 0
M  V30 5 C -1.0938 -1.0233 0.0 0
M  V30 6 C -0.7527 -2.4582 0.0 0
M  V30 7 C -2.5406 -0.5998 0.0 0
M  V30 8 C -1.8466 -3.4815 0.0 0
M  V30 9 C -3.6345 -1.6231 0.0 0
M  V30 10 C -3.2933 -3.0581 0.0 0
M  V30 11 N -4.3872 -4.0814 0.0 0
M  V30 12 C -5.834 -3.658 0.0 0
M  V30 13 N -6.3515 -2.2348 0.0 0
M  V30 14 N -7.0219 -4.5637 0.0 0
M  V30 15 N -7.8571 -2.27 0.0 0
M  V30 16 C -8.2687 -3.7168 0.0 0
M  V30 17 C -8.7863 -1.0821 0.0 0
M  V30 18 N -9.692 -4.2108 0.0 0
M  V30 19 O -10.2801 -1.2703 0.0 0
M  V30 20 C -8.2334 0.3175 0.0 0
M  V30 21 S -6.7985 0.6822 0.0 0
M  V30 22 C -9.0333 1.5996 0.0 0
M  V30 23 C -6.7044 2.1877 0.0 0
M  V30 24 C -8.0805 2.7523 0.0 0
M  V30 25 C -10.5388 1.7172 0.0 0
M  V30 END ATOM
M  V30 BEGIN BOND
M  V30 1 2 1 2
M  V30 2 2 1 3
M  V30 3 1 1 4
M  V30 4 1 1 5
M  V30 5 2 5 6
M  V30 6 1 5 7
M  V30 7 1 6 8
M  V30 8 2 7 9
M  V30 9 2 8 10
M  V30 10 1 10 11
M  V30 11 1 11 12
M  V30 12 2 12 13
M  V30 13 1 12 14
M  V30 14 1 13 15
M  V30 15 2 14 16
M  V30 16 1 15 17
M  V30 17 1 16 18
M  V30 18 2 17 19
M  V30 19 1 17 20
M  V30 20 1 20 21
M  V30 21 2 20 22
M  V30 22 1 21 23
M  V30 23 1 22 24
M  V30 24 1 22 25
M  V30 25 1 9 10
M  V30 26 1 15 16
M  V30 27 2 23 24
M  V30 END BOND
M  V30 END CTAB
M  END
>  <Compound ID>
261

>  <Name>
J2

>  <Uniprot>
P24941

>  <Target>
CDK2

>  <Smiles>
CC1=C(C(=O)N2N=C(NC3=CC=C(S(N)(=O)=O)C=C3)N=C2N)SC=C1

>  <Kd (nM)>


>  <Assay (Kd)>


>  <Ki (nM)>


>  <Assay (Ki)>


>  <IC50 (nM)>
0.4

>  <Assay (IC50)>
IC50 was assessed by RET Kinase Enzymatic Assay

>  <EC50 (nM)>


>  <Assay (EC50)>


>  <Article DOI>
10.1021/jm050267e

>  <Molecular Weight>
378.439

>  <Exact Mass>
378.056880308

>  <XLogP3>
2.57

>  <Heavy Atom Count>
25

>  <Ring Count>
3

>  <Hydrogen Bond Acceptor Count>
9

>  <Hydrogen Bond Donor Count>
3

>  <Rotatable Bond Count>
4

>  <Topological Polar Surface Area>
145.99

>  <Molecular Formula>
C14H14N6O3S2

>  <InChI>
InChI=1S/C14H14N6O3S2/c1-8-6-7-24-11(8)12(21)20-13(15)18-14(19-20)17-9-2-4-10(5-3-9)25(16,22)23/h2-7H,1H3,(H2,16,22,23)(H3,15,17,18,19)

>  <InChI Key>
KQWTXAWKBUUOMU-UHFFFAOYSA-N

>  <BindingDB>
6870

>  <PubChem>
5330804

>  <ChEMBL>
CHEMBL363130

$$$$
Compound 945
Actelion Java MolfileCreator 2.0

  0  0  0  0  0  0              0 V3000
M  V30 BEGIN CTAB
M  V30 COUNTS 36 40 0 0 0
M  V30 BEGIN ATOM
M  V30 1 O 0.0 0.0 0.0 0
M  V30 2 C -0.4245 -1.4342 0.0 0
M  V30 3 N 0.6081 -2.5012 0.0 0
M  V30 4 C -1.8931 -1.7784 0.0 0
M  V30 5 C 2.0537 -2.1341 0.0 0
M  V30 6 C -2.9487 -0.6884 0.0 0
M  V30 7 C -2.3176 -3.2126 0.0 0
M  V30 8 C 3.0864 -3.2011 0.0 0
M  V30 9 C 2.4553 -0.6769 0.0 0
M  V30 10 N -4.4173 -1.0326 0.0 0
M  V30 11 N -3.7863 -3.5568 0.0 0
M  V30 12 C 4.5321 -2.834 0.0 0
M  V30 13 C 3.901 -0.3097 0.0 0
M  V30 14 C -4.8419 -2.4668 0.0 0
M  V30 15 C 4.9337 -1.3768 0.0 0
M  V30 16 O -6.3105 -2.811 0.0 0
M  V30 17 N 6.3793 -1.0096 0.0 0
M  V30 18 C -7.3661 -1.721 0.0 0
M  V30 19 C 7.412 -2.0767 0.0 0
M  V30 20 C 6.7809 0.4474 0.0 0
M  V30 21 C -6.9645 -0.2638 0.0 0
M  V30 22 C -8.8347 -2.0652 0.0 0
M  V30 23 C 8.8577 -1.7095 0.0 0
M  V30 24 C 8.2266 0.8146 0.0 0
M  V30 25 C -8.0201 0.8261 0.0 0
M  V30 26 C -9.8903 -0.9752 0.0 0
M  V30 27 C 9.2593 -0.2524 0.0 0
M  V30 28 C -9.4887 0.4818 0.0 0
M  V30 29 C 10.7049 0.1147 0.0 0
M  V30 30 O 11.1065 1.5719 0.0 0
M  V30 31 N 11.7376 -0.9523 0.0 0
M  V30 32 C 11.3131 -2.3865 0.0 0
M  V30 33 C 13.1833 -0.5851 0.0 0
M  V30 34 C 12.3457 -3.4535 0.0 0
M  V30 35 C 14.2159 -1.6522 0.0 0
M  V30 36 O 13.7914 -3.0864 0.0 0
M  V30 END ATOM
M  V30 BEGIN BOND
M  V30 1 2 1 2
M  V30 2 1 2 3
M  V30 3 1 2 4
M  V30 4 1 3 5
M  V30 5 2 4 6
M  V30 6 1 4 7
M  V30 7 2 5 8
M  V30 8 1 5 9
M  V30 9 1 6 10
M  V30 10 2 7 11
M  V30 11 1 8 12
M  V30 12 2 9 13
M  V30 13 2 10 14
M  V30 14 2 12 15
M  V30 15 1 14 16
M  V30 16 1 15 17
M  V30 17 1 16 18
M  V30 18 1 17 19
M  V30 19 1 17 20
M  V30 20 2 18 21
M  V30 21 1 18 22
M  V30 22 1 19 23
M  V30 23 1 20 24
M  V30 24 1 21 25
M  V30 25 2 22 26
M  V30 26 1 23 27
M  V30 27 2 25 28
M  V30 28 1 27 29
M  V30 29 2 29 30
M  V30 30 1 29 31
M  V30 31 1 31 32
M  V30 32 1 31 33
M  V30 33 1 32 34
M  V30 34 1 33 35
M  V30 35 1 34 36
M  V30 36 1 11 14
M  V30 37 1 13 15
M  V30 38 1 24 27
M  V30 39 1 26 28
M  V30 40 1 35 36
M  V30 END BOND
M  V30 END CTAB
M  END
>  <Compound ID>
262

>  <Name>
TFC-007

>  <Uniprot>
O60760

>  <Target>
HPGDS

>  <Smiles>
O=C(NC1=CC=C(N2CCC(C(=O)N3CCOCC3)CC2)C=C1)C1=CN=C(OC2=CC=CC=C2)N=C1

>  <Kd (nM)>
0.37

>  <Assay (Kd)>
SPR

>  <Ki (nM)>


>  <Assay (Ki)>


>  <IC50 (nM)>


>  <Assay (IC50)>


>  <EC50 (nM)>


>  <Assay (EC50)>


>  <Article DOI>
10.1016/j.bmc.2018.08.014

>  <Molecular Weight>
487.56

>  <Exact Mass>
487.221954408

>  <XLogP3>
2.6

>  <Heavy Atom Count>
36

>  <Ring Count>
5

>  <Hydrogen Bond Acceptor Count>
7

>  <Hydrogen Bond Donor Count>
1

>  <Rotatable Bond Count>
6

>  <Topological Polar Surface Area>
96.89

>  <Molecular Formula>
C27H29N5O4

>  <InChI>
InChI=1S/C27H29N5O4/c33-25(21-18-28-27(29-19-21)36-24-4-2-1-3-5-24)30-22-6-8-23(9-7-22)31-12-10-20(11-13-31)26(34)32-14-16-35-17-15-32/h1-9,18-20H,10-17H2,(H,30,33)

>  <InChI Key>
NLSSUSRERAMBTA-UHFFFAOYSA-N

>  <BindingDB>
50463722

>  <PubChem>
16040067

>  <ChEMBL>
CHEMBL4238186

$$$$
Compound 946
Actelion Java MolfileCreator 2.0

  0  0  0  0  0  0              0 V3000
M  V30 BEGIN CTAB
M  V30 COUNTS 29 33 0 0 0
M  V30 BEGIN ATOM
M  V30 1 O 0.0 0.0 0.0 0
M  V30 2 C 1.4951 0.1067 0.0 0
M  V30 3 N 2.0528 1.5188 0.0 0
M  V30 4 N 2.2189 -1.1984 0.0 0
M  V30 5 C 3.4885 1.9578 0.0 0
M  V30 6 C 3.7021 -1.4239 0.0 0
M  V30 7 C 4.7107 1.1035 0.0 0
M  V30 8 C 3.6072 3.4767 0.0 0
M  V30 9 C 4.8057 -0.3915 0.0 0
M  V30 10 C 4.0107 -2.8834 0.0 0
M  V30 11 N 6.0635 1.7561 0.0 0
M  V30 12 N 4.9599 4.1293 0.0 0
M  V30 13 C 6.2296 -0.8424 0.0 0
M  V30 14 C 5.4346 -3.3343 0.0 0
M  V30 15 C 6.1821 3.275 0.0 0
M  V30 16 C 6.5381 -2.3019 0.0 0
M  V30 17 N 7.5348 3.9276 0.0 0
M  V30 18 C 8.757 3.0732 0.0 0
M  V30 19 C 8.6146 1.5781 0.0 0
M  V30 20 C 10.1098 3.7259 0.0 0
M  V30 21 C 9.8368 0.7238 0.0 0
M  V30 22 C 11.332 2.8715 0.0 0
M  V30 23 C 11.1896 1.3764 0.0 0
M  V30 24 N 12.4118 0.5221 0.0 0
M  V30 25 C 12.2694 -0.973 0.0 0
M  V30 26 C 13.7645 1.1747 0.0 0
M  V30 27 C 13.4916 -1.8273 0.0 0
M  V30 28 C 14.9867 0.3203 0.0 0
M  V30 29 N 14.8443 -1.1747 0.0 0
M  V30 END ATOM
M  V30 BEGIN BOND
M  V30 1 2 1 2
M  V30 2 1 2 3
M  V30 3 1 2 4
M  V30 4 1 3 5
M  V30 5 1 4 6
M  V30 6 2 5 7
M  V30 7 1 5 8
M  V30 8 2 6 9
M  V30 9 1 6 10
M  V30 10 1 7 11
M  V30 11 2 8 12
M  V30 12 1 9 13
M  V30 13 2 10 14
M  V30 14 2 11 15
M  V30 15 2 13 16
M  V30 16 1 15 17
M  V30 17 1 17 18
M  V30 18 2 18 19
M  V30 19 1 18 20
M  V30 20 1 19 21
M  V30 21 2 20 22
M  V30 22 2 21 23
M  V30 23 1 23 24
M  V30 24 1 24 25
M  V30 25 1 24 26
M  V30 26 1 25 27
M  V30 27 1 26 28
M  V30 28 1 27 29
M  V30 29 1 7 9
M  V30 30 1 12 15
M  V30 31 1 14 16
M  V30 32 1 22 23
M  V30 33 1 28 29
M  V30 END BOND
M  V30 END CTAB
M  END
>  <Compound ID>
263

>  <Name>


>  <Uniprot>
P42684

>  <Target>
ABL2

>  <Smiles>
O=C1NC2=CC=CC=C2C2=NC(NC3=CC=C(N4CCNCC4)C=C3)=NC=C2N1

>  <Kd (nM)>


>  <Assay (Kd)>


>  <Ki (nM)>


>  <Assay (Ki)>


>  <IC50 (nM)>


>  <Assay (IC50)>


>  <EC50 (nM)>


>  <Assay (EC50)>


>  <Article DOI>
10.1016/j.cell.2020.10.038

>  <Molecular Weight>
387.447

>  <Exact Mass>
387.180758292

>  <XLogP3>
1.85

>  <Heavy Atom Count>
29

>  <Ring Count>
5

>  <Hydrogen Bond Acceptor Count>
6

>  <Hydrogen Bond Donor Count>
4

>  <Rotatable Bond Count>
3

>  <Topological Polar Surface Area>
94.21

>  <Molecular Formula>
C21H21N7O

>  <InChI>
InChI=1S/C21H21N7O/c29-21-25-17-4-2-1-3-16(17)19-18(26-21)13-23-20(27-19)24-14-5-7-15(8-6-14)28-11-9-22-10-12-28/h1-8,13,22H,9-12H2,(H,23,24,27)(H2,25,26,29)

>  <InChI Key>
QUPDTXBHSASKEK-UHFFFAOYSA-N

>  <BindingDB>


>  <PubChem>
118684114

>  <ChEMBL>


$$$$
Compound 947
Actelion Java MolfileCreator 2.0

  0  0  0  0  0  0              0 V3000
M  V30 BEGIN CTAB
M  V30 COUNTS 29 33 0 0 0
M  V30 BEGIN ATOM
M  V30 1 O 0.0 0.0 0.0 0
M  V30 2 C 1.4951 0.1067 0.0 0
M  V30 3 N 2.0528 1.5188 0.0 0
M  V30 4 N 2.2189 -1.1984 0.0 0
M  V30 5 C 3.4885 1.9578 0.0 0
M  V30 6 C 3.7021 -1.4239 0.0 0
M  V30 7 C 4.7107 1.1035 0.0 0
M  V30 8 C 3.6072 3.4767 0.0 0
M  V30 9 C 4.8057 -0.3915 0.0 0
M  V30 10 C 4.0107 -2.8834 0.0 0
M  V30 11 N 6.0635 1.7561 0.0 0
M  V30 12 N 4.9599 4.1293 0.0 0
M  V30 13 C 6.2296 -0.8424 0.0 0
M  V30 14 C 5.4346 -3.3343 0.0 0
M  V30 15 C 6.1821 3.275 0.0 0
M  V30 16 C 6.5381 -2.3019 0.0 0
M  V30 17 N 7.5348 3.9276 0.0 0
M  V30 18 C 8.757 3.0732 0.0 0
M  V30 19 C 8.6146 1.5781 0.0 0
M  V30 20 C 10.1098 3.7259 0.0 0
M  V30 21 C 9.8368 0.7238 0.0 0
M  V30 22 C 11.332 2.8715 0.0 0
M  V30 23 C 11.1896 1.3764 0.0 0
M  V30 24 N 12.4118 0.5221 0.0 0
M  V30 25 C 12.2694 -0.973 0.0 0
M  V30 26 C 13.7645 1.1747 0.0 0
M  V30 27 C 13.4916 -1.8273 0.0 0
M  V30 28 C 14.9867 0.3203 0.0 0
M  V30 29 N 14.8443 -1.1747 0.0 0
M  V30 END ATOM
M  V30 BEGIN BOND
M  V30 1 2 1 2
M  V30 2 1 2 3
M  V30 3 1 2 4
M  V30 4 1 3 5
M  V30 5 1 4 6
M  V30 6 2 5 7
M  V30 7 1 5 8
M  V30 8 2 6 9
M  V30 9 1 6 10
M  V30 10 1 7 11
M  V30 11 2 8 12
M  V30 12 1 9 13
M  V30 13 2 10 14
M  V30 14 2 11 15
M  V30 15 2 13 16
M  V30 16 1 15 17
M  V30 17 1 17 18
M  V30 18 2 18 19
M  V30 19 1 18 20
M  V30 20 1 19 21
M  V30 21 2 20 22
M  V30 22 2 21 23
M  V30 23 1 23 24
M  V30 24 1 24 25
M  V30 25 1 24 26
M  V30 26 1 25 27
M  V30 27 1 26 28
M  V30 28 1 27 29
M  V30 29 1 7 9
M  V30 30 1 12 15
M  V30 31 1 14 16
M  V30 32 1 22 23
M  V30 33 1 28 29
M  V30 END BOND
M  V30 END CTAB
M  END
>  <Compound ID>
263

>  <Name>


>  <Uniprot>
P29323

>  <Target>
EPHB2

>  <Smiles>
O=C1NC2=CC=CC=C2C2=NC(NC3=CC=C(N4CCNCC4)C=C3)=NC=C2N1

>  <Kd (nM)>


>  <Assay (Kd)>


>  <Ki (nM)>


>  <Assay (Ki)>


>  <IC50 (nM)>


>  <Assay (IC50)>


>  <EC50 (nM)>


>  <Assay (EC50)>


>  <Article DOI>
10.1016/j.cell.2020.10.038

>  <Molecular Weight>
387.447

>  <Exact Mass>
387.180758292

>  <XLogP3>
1.85

>  <Heavy Atom Count>
29

>  <Ring Count>
5

>  <Hydrogen Bond Acceptor Count>
6

>  <Hydrogen Bond Donor Count>
4

>  <Rotatable Bond Count>
3

>  <Topological Polar Surface Area>
94.21

>  <Molecular Formula>
C21H21N7O

>  <InChI>
InChI=1S/C21H21N7O/c29-21-25-17-4-2-1-3-16(17)19-18(26-21)13-23-20(27-19)24-14-5-7-15(8-6-14)28-11-9-22-10-12-28/h1-8,13,22H,9-12H2,(H,23,24,27)(H2,25,26,29)

>  <InChI Key>
QUPDTXBHSASKEK-UHFFFAOYSA-N

>  <BindingDB>


>  <PubChem>
118684114

>  <ChEMBL>


$$$$
Compound 948
Actelion Java MolfileCreator 2.0

  0  0  0  0  0  0              0 V3000
M  V30 BEGIN CTAB
M  V30 COUNTS 29 33 0 0 0
M  V30 BEGIN ATOM
M  V30 1 O 0.0 0.0 0.0 0
M  V30 2 C 1.4951 0.1067 0.0 0
M  V30 3 N 2.0528 1.5188 0.0 0
M  V30 4 N 2.2189 -1.1984 0.0 0
M  V30 5 C 3.4885 1.9578 0.0 0
M  V30 6 C 3.7021 -1.4239 0.0 0
M  V30 7 C 4.7107 1.1035 0.0 0
M  V30 8 C 3.6072 3.4767 0.0 0
M  V30 9 C 4.8057 -0.3915 0.0 0
M  V30 10 C 4.0107 -2.8834 0.0 0
M  V30 11 N 6.0635 1.7561 0.0 0
M  V30 12 N 4.9599 4.1293 0.0 0
M  V30 13 C 6.2296 -0.8424 0.0 0
M  V30 14 C 5.4346 -3.3343 0.0 0
M  V30 15 C 6.1821 3.275 0.0 0
M  V30 16 C 6.5381 -2.3019 0.0 0
M  V30 17 N 7.5348 3.9276 0.0 0
M  V30 18 C 8.757 3.0732 0.0 0
M  V30 19 C 8.6146 1.5781 0.0 0
M  V30 20 C 10.1098 3.7259 0.0 0
M  V30 21 C 9.8368 0.7238 0.0 0
M  V30 22 C 11.332 2.8715 0.0 0
M  V30 23 C 11.1896 1.3764 0.0 0
M  V30 24 N 12.4118 0.5221 0.0 0
M  V30 25 C 12.2694 -0.973 0.0 0
M  V30 26 C 13.7645 1.1747 0.0 0
M  V30 27 C 13.4916 -1.8273 0.0 0
M  V30 28 C 14.9867 0.3203 0.0 0
M  V30 29 N 14.8443 -1.1747 0.0 0
M  V30 END ATOM
M  V30 BEGIN BOND
M  V30 1 2 1 2
M  V30 2 1 2 3
M  V30 3 1 2 4
M  V30 4 1 3 5
M  V30 5 1 4 6
M  V30 6 2 5 7
M  V30 7 1 5 8
M  V30 8 2 6 9
M  V30 9 1 6 10
M  V30 10 1 7 11
M  V30 11 2 8 12
M  V30 12 1 9 13
M  V30 13 2 10 14
M  V30 14 2 11 15
M  V30 15 2 13 16
M  V30 16 1 15 17
M  V30 17 1 17 18
M  V30 18 2 18 19
M  V30 19 1 18 20
M  V30 20 1 19 21
M  V30 21 2 20 22
M  V30 22 2 21 23
M  V30 23 1 23 24
M  V30 24 1 24 25
M  V30 25 1 24 26
M  V30 26 1 25 27
M  V30 27 1 26 28
M  V30 28 1 27 29
M  V30 29 1 7 9
M  V30 30 1 12 15
M  V30 31 1 14 16
M  V30 32 1 22 23
M  V30 33 1 28 29
M  V30 END BOND
M  V30 END CTAB
M  END
>  <Compound ID>
263

>  <Name>


>  <Uniprot>
Q9H0K1

>  <Target>
SIK2

>  <Smiles>
O=C1NC2=CC=CC=C2C2=NC(NC3=CC=C(N4CCNCC4)C=C3)=NC=C2N1

>  <Kd (nM)>


>  <Assay (Kd)>


>  <Ki (nM)>


>  <Assay (Ki)>


>  <IC50 (nM)>


>  <Assay (IC50)>


>  <EC50 (nM)>


>  <Assay (EC50)>


>  <Article DOI>
10.1016/j.cell.2020.10.038

>  <Molecular Weight>
387.447

>  <Exact Mass>
387.180758292

>  <XLogP3>
1.85

>  <Heavy Atom Count>
29

>  <Ring Count>
5

>  <Hydrogen Bond Acceptor Count>
6

>  <Hydrogen Bond Donor Count>
4

>  <Rotatable Bond Count>
3

>  <Topological Polar Surface Area>
94.21

>  <Molecular Formula>
C21H21N7O

>  <InChI>
InChI=1S/C21H21N7O/c29-21-25-17-4-2-1-3-16(17)19-18(26-21)13-23-20(27-19)24-14-5-7-15(8-6-14)28-11-9-22-10-12-28/h1-8,13,22H,9-12H2,(H,23,24,27)(H2,25,26,29)

>  <InChI Key>
QUPDTXBHSASKEK-UHFFFAOYSA-N

>  <BindingDB>


>  <PubChem>
118684114

>  <ChEMBL>


$$$$
Compound 949
Actelion Java MolfileCreator 2.0

  0  0  0  0  0  0              0 V3000
M  V30 BEGIN CTAB
M  V30 COUNTS 29 33 0 0 0
M  V30 BEGIN ATOM
M  V30 1 O 0.0 0.0 0.0 0
M  V30 2 C 1.4951 0.1067 0.0 0
M  V30 3 N 2.0528 1.5188 0.0 0
M  V30 4 N 2.2189 -1.1984 0.0 0
M  V30 5 C 3.4885 1.9578 0.0 0
M  V30 6 C 3.7021 -1.4239 0.0 0
M  V30 7 C 4.7107 1.1035 0.0 0
M  V30 8 C 3.6072 3.4767 0.0 0
M  V30 9 C 4.8057 -0.3915 0.0 0
M  V30 10 C 4.0107 -2.8834 0.0 0
M  V30 11 N 6.0635 1.7561 0.0 0
M  V30 12 N 4.9599 4.1293 0.0 0
M  V30 13 C 6.2296 -0.8424 0.0 0
M  V30 14 C 5.4346 -3.3343 0.0 0
M  V30 15 C 6.1821 3.275 0.0 0
M  V30 16 C 6.5381 -2.3019 0.0 0
M  V30 17 N 7.5348 3.9276 0.0 0
M  V30 18 C 8.757 3.0732 0.0 0
M  V30 19 C 8.6146 1.5781 0.0 0
M  V30 20 C 10.1098 3.7259 0.0 0
M  V30 21 C 9.8368 0.7238 0.0 0
M  V30 22 C 11.332 2.8715 0.0 0
M  V30 23 C 11.1896 1.3764 0.0 0
M  V30 24 N 12.4118 0.5221 0.0 0
M  V30 25 C 12.2694 -0.973 0.0 0
M  V30 26 C 13.7645 1.1747 0.0 0
M  V30 27 C 13.4916 -1.8273 0.0 0
M  V30 28 C 14.9867 0.3203 0.0 0
M  V30 29 N 14.8443 -1.1747 0.0 0
M  V30 END ATOM
M  V30 BEGIN BOND
M  V30 1 2 1 2
M  V30 2 1 2 3
M  V30 3 1 2 4
M  V30 4 1 3 5
M  V30 5 1 4 6
M  V30 6 2 5 7
M  V30 7 1 5 8
M  V30 8 2 6 9
M  V30 9 1 6 10
M  V30 10 1 7 11
M  V30 11 2 8 12
M  V30 12 1 9 13
M  V30 13 2 10 14
M  V30 14 2 11 15
M  V30 15 2 13 16
M  V30 16 1 15 17
M  V30 17 1 17 18
M  V30 18 2 18 19
M  V30 19 1 18 20
M  V30 20 1 19 21
M  V30 21 2 20 22
M  V30 22 2 21 23
M  V30 23 1 23 24
M  V30 24 1 24 25
M  V30 25 1 24 26
M  V30 26 1 25 27
M  V30 27 1 26 28
M  V30 28 1 27 29
M  V30 29 1 7 9
M  V30 30 1 12 15
M  V30 31 1 14 16
M  V30 32 1 22 23
M  V30 33 1 28 29
M  V30 END BOND
M  V30 END CTAB
M  END
>  <Compound ID>
263

>  <Name>


>  <Uniprot>
P29597

>  <Target>
TYK2

>  <Smiles>
O=C1NC2=CC=CC=C2C2=NC(NC3=CC=C(N4CCNCC4)C=C3)=NC=C2N1

>  <Kd (nM)>


>  <Assay (Kd)>


>  <Ki (nM)>


>  <Assay (Ki)>


>  <IC50 (nM)>


>  <Assay (IC50)>


>  <EC50 (nM)>


>  <Assay (EC50)>


>  <Article DOI>
10.1016/j.cell.2020.10.038

>  <Molecular Weight>
387.447

>  <Exact Mass>
387.180758292

>  <XLogP3>
1.85

>  <Heavy Atom Count>
29

>  <Ring Count>
5

>  <Hydrogen Bond Acceptor Count>
6

>  <Hydrogen Bond Donor Count>
4

>  <Rotatable Bond Count>
3

>  <Topological Polar Surface Area>
94.21

>  <Molecular Formula>
C21H21N7O

>  <InChI>
InChI=1S/C21H21N7O/c29-21-25-17-4-2-1-3-16(17)19-18(26-21)13-23-20(27-19)24-14-5-7-15(8-6-14)28-11-9-22-10-12-28/h1-8,13,22H,9-12H2,(H,23,24,27)(H2,25,26,29)

>  <InChI Key>
QUPDTXBHSASKEK-UHFFFAOYSA-N

>  <BindingDB>


>  <PubChem>
118684114

>  <ChEMBL>


$$$$
Compound 950
Actelion Java MolfileCreator 2.0

  0  0  0  0  0  0              0 V3000
M  V30 BEGIN CTAB
M  V30 COUNTS 19 19 0 0 0
M  V30 BEGIN ATOM
M  V30 1 O 0.0 0.0 0.0 0
M  V30 2 C 0.153 1.5069 0.0 0
M  V30 3 N -1.0713 2.4016 0.0 0
M  V30 4 C 1.5186 2.1308 0.0 0
M  V30 5 O -2.4605 1.8012 0.0 0
M  V30 6 C 2.7195 1.2596 0.0 0
M  V30 7 C 4.0851 1.8836 0.0 0
M  V30 8 C 5.2859 1.0124 0.0 0
M  V30 9 C 6.6516 1.6364 0.0 0
M  V30 10 C 7.8524 0.7652 0.0 0
M  V30 11 C 9.2181 1.3891 0.0 0
M  V30 12 O 9.3711 2.8961 0.0 0
M  V30 13 N 10.4189 0.518 0.0 0
M  V30 14 C 11.7846 1.1419 0.0 0
M  V30 15 C 11.9376 2.6488 0.0 0
M  V30 16 C 12.9854 0.2707 0.0 0
M  V30 17 C 13.3032 3.2728 0.0 0
M  V30 18 C 14.351 0.8947 0.0 0
M  V30 19 C 14.5041 2.4016 0.0 0
M  V30 END ATOM
M  V30 BEGIN BOND
M  V30 1 2 1 2
M  V30 2 1 2 3
M  V30 3 1 2 4
M  V30 4 1 3 5
M  V30 5 1 4 6
M  V30 6 1 6 7
M  V30 7 1 7 8
M  V30 8 1 8 9
M  V30 9 1 9 10
M  V30 10 1 10 11
M  V30 11 2 11 12
M  V30 12 1 11 13
M  V30 13 1 13 14
M  V30 14 2 14 15
M  V30 15 1 14 16
M  V30 16 1 15 17
M  V30 17 2 16 18
M  V30 18 2 17 19
M  V30 19 1 18 19
M  V30 END BOND
M  V30 END CTAB
M  END
>  <Compound ID>
264

>  <Name>
Vorinostat

>  <Uniprot>
Q13547

>  <Target>
HDAC1

>  <Smiles>
O=C(CCCCCCC(=O)NC1=CC=CC=C1)NO

>  <Kd (nM)>


>  <Assay (Kd)>


>  <Ki (nM)>


>  <Assay (Ki)>


>  <IC50 (nM)>
97

>  <Assay (IC50)>
Inhibition of HDAC1

>  <EC50 (nM)>


>  <Assay (EC50)>


>  <Article DOI>
10.1002/anie.202006725

>  <Molecular Weight>
264.325

>  <Exact Mass>
264.1473925

>  <XLogP3>
1.86

>  <Heavy Atom Count>
19

>  <Ring Count>
1

>  <Hydrogen Bond Acceptor Count>
3

>  <Hydrogen Bond Donor Count>
3

>  <Rotatable Bond Count>
8

>  <Topological Polar Surface Area>
78.43

>  <Molecular Formula>
C14H20N2O3

>  <InChI>
InChI=1S/C14H20N2O3/c17-13(15-12-8-4-3-5-9-12)10-6-1-2-7-11-14(18)16-19/h3-5,8-9,19H,1-2,6-7,10-11H2,(H,15,17)(H,16,18)

>  <InChI Key>
WAEXFXRVDQXREF-UHFFFAOYSA-N

>  <BindingDB>
19149

>  <PubChem>
5311

>  <ChEMBL>
CHEMBL98

$$$$
Compound 951
Actelion Java MolfileCreator 2.0

  0  0  0  0  0  0              0 V3000
M  V30 BEGIN CTAB
M  V30 COUNTS 19 19 0 0 0
M  V30 BEGIN ATOM
M  V30 1 O 0.0 0.0 0.0 0
M  V30 2 C 0.153 1.5069 0.0 0
M  V30 3 N -1.0713 2.4016 0.0 0
M  V30 4 C 1.5186 2.1308 0.0 0
M  V30 5 O -2.4605 1.8012 0.0 0
M  V30 6 C 2.7195 1.2596 0.0 0
M  V30 7 C 4.0851 1.8836 0.0 0
M  V30 8 C 5.2859 1.0124 0.0 0
M  V30 9 C 6.6516 1.6364 0.0 0
M  V30 10 C 7.8524 0.7652 0.0 0
M  V30 11 C 9.2181 1.3891 0.0 0
M  V30 12 O 9.3711 2.8961 0.0 0
M  V30 13 N 10.4189 0.518 0.0 0
M  V30 14 C 11.7846 1.1419 0.0 0
M  V30 15 C 11.9376 2.6488 0.0 0
M  V30 16 C 12.9854 0.2707 0.0 0
M  V30 17 C 13.3032 3.2728 0.0 0
M  V30 18 C 14.351 0.8947 0.0 0
M  V30 19 C 14.5041 2.4016 0.0 0
M  V30 END ATOM
M  V30 BEGIN BOND
M  V30 1 2 1 2
M  V30 2 1 2 3
M  V30 3 1 2 4
M  V30 4 1 3 5
M  V30 5 1 4 6
M  V30 6 1 6 7
M  V30 7 1 7 8
M  V30 8 1 8 9
M  V30 9 1 9 10
M  V30 10 1 10 11
M  V30 11 2 11 12
M  V30 12 1 11 13
M  V30 13 1 13 14
M  V30 14 2 14 15
M  V30 15 1 14 16
M  V30 16 1 15 17
M  V30 17 2 16 18
M  V30 18 2 17 19
M  V30 19 1 18 19
M  V30 END BOND
M  V30 END CTAB
M  END
>  <Compound ID>
264

>  <Name>
Vorinostat

>  <Uniprot>
Q92769

>  <Target>
HDAC2

>  <Smiles>
O=C(CCCCCCC(=O)NC1=CC=CC=C1)NO

>  <Kd (nM)>


>  <Assay (Kd)>


>  <Ki (nM)>


>  <Assay (Ki)>


>  <IC50 (nM)>
140

>  <Assay (IC50)>
Inhibition of HDAC2

>  <EC50 (nM)>


>  <Assay (EC50)>


>  <Article DOI>
10.1002/anie.202006725

>  <Molecular Weight>
264.325

>  <Exact Mass>
264.1473925

>  <XLogP3>
1.86

>  <Heavy Atom Count>
19

>  <Ring Count>
1

>  <Hydrogen Bond Acceptor Count>
3

>  <Hydrogen Bond Donor Count>
3

>  <Rotatable Bond Count>
8

>  <Topological Polar Surface Area>
78.43

>  <Molecular Formula>
C14H20N2O3

>  <InChI>
InChI=1S/C14H20N2O3/c17-13(15-12-8-4-3-5-9-12)10-6-1-2-7-11-14(18)16-19/h3-5,8-9,19H,1-2,6-7,10-11H2,(H,15,17)(H,16,18)

>  <InChI Key>
WAEXFXRVDQXREF-UHFFFAOYSA-N

>  <BindingDB>
19149

>  <PubChem>
5311

>  <ChEMBL>
CHEMBL98

$$$$
Compound 952
Actelion Java MolfileCreator 2.0

  0  0  0  0  0  0              0 V3000
M  V30 BEGIN CTAB
M  V30 COUNTS 19 19 0 0 0
M  V30 BEGIN ATOM
M  V30 1 O 0.0 0.0 0.0 0
M  V30 2 C 0.153 1.5069 0.0 0
M  V30 3 N -1.0713 2.4016 0.0 0
M  V30 4 C 1.5186 2.1308 0.0 0
M  V30 5 O -2.4605 1.8012 0.0 0
M  V30 6 C 2.7195 1.2596 0.0 0
M  V30 7 C 4.0851 1.8836 0.0 0
M  V30 8 C 5.2859 1.0124 0.0 0
M  V30 9 C 6.6516 1.6364 0.0 0
M  V30 10 C 7.8524 0.7652 0.0 0
M  V30 11 C 9.2181 1.3891 0.0 0
M  V30 12 O 9.3711 2.8961 0.0 0
M  V30 13 N 10.4189 0.518 0.0 0
M  V30 14 C 11.7846 1.1419 0.0 0
M  V30 15 C 11.9376 2.6488 0.0 0
M  V30 16 C 12.9854 0.2707 0.0 0
M  V30 17 C 13.3032 3.2728 0.0 0
M  V30 18 C 14.351 0.8947 0.0 0
M  V30 19 C 14.5041 2.4016 0.0 0
M  V30 END ATOM
M  V30 BEGIN BOND
M  V30 1 2 1 2
M  V30 2 1 2 3
M  V30 3 1 2 4
M  V30 4 1 3 5
M  V30 5 1 4 6
M  V30 6 1 6 7
M  V30 7 1 7 8
M  V30 8 1 8 9
M  V30 9 1 9 10
M  V30 10 1 10 11
M  V30 11 2 11 12
M  V30 12 1 11 13
M  V30 13 1 13 14
M  V30 14 2 14 15
M  V30 15 1 14 16
M  V30 16 1 15 17
M  V30 17 2 16 18
M  V30 18 2 17 19
M  V30 19 1 18 19
M  V30 END BOND
M  V30 END CTAB
M  END
>  <Compound ID>
264

>  <Name>
Vorinostat

>  <Uniprot>
O15379

>  <Target>
HDAC3

>  <Smiles>
O=C(CCCCCCC(=O)NC1=CC=CC=C1)NO

>  <Kd (nM)>


>  <Assay (Kd)>


>  <Ki (nM)>


>  <Assay (Ki)>


>  <IC50 (nM)>
96

>  <Assay (IC50)>
Inhibition of HDAC3

>  <EC50 (nM)>


>  <Assay (EC50)>


>  <Article DOI>
10.1002/anie.202006725

>  <Molecular Weight>
264.325

>  <Exact Mass>
264.1473925

>  <XLogP3>
1.86

>  <Heavy Atom Count>
19

>  <Ring Count>
1

>  <Hydrogen Bond Acceptor Count>
3

>  <Hydrogen Bond Donor Count>
3

>  <Rotatable Bond Count>
8

>  <Topological Polar Surface Area>
78.43

>  <Molecular Formula>
C14H20N2O3

>  <InChI>
InChI=1S/C14H20N2O3/c17-13(15-12-8-4-3-5-9-12)10-6-1-2-7-11-14(18)16-19/h3-5,8-9,19H,1-2,6-7,10-11H2,(H,15,17)(H,16,18)

>  <InChI Key>
WAEXFXRVDQXREF-UHFFFAOYSA-N

>  <BindingDB>
19149

>  <PubChem>
5311

>  <ChEMBL>
CHEMBL98

$$$$
Compound 953
Actelion Java MolfileCreator 2.0

  0  0  0  0  0  0              0 V3000
M  V30 BEGIN CTAB
M  V30 COUNTS 19 19 0 0 0
M  V30 BEGIN ATOM
M  V30 1 O 0.0 0.0 0.0 0
M  V30 2 C 0.153 1.5069 0.0 0
M  V30 3 N -1.0713 2.4016 0.0 0
M  V30 4 C 1.5186 2.1308 0.0 0
M  V30 5 O -2.4605 1.8012 0.0 0
M  V30 6 C 2.7195 1.2596 0.0 0
M  V30 7 C 4.0851 1.8836 0.0 0
M  V30 8 C 5.2859 1.0124 0.0 0
M  V30 9 C 6.6516 1.6364 0.0 0
M  V30 10 C 7.8524 0.7652 0.0 0
M  V30 11 C 9.2181 1.3891 0.0 0
M  V30 12 O 9.3711 2.8961 0.0 0
M  V30 13 N 10.4189 0.518 0.0 0
M  V30 14 C 11.7846 1.1419 0.0 0
M  V30 15 C 11.9376 2.6488 0.0 0
M  V30 16 C 12.9854 0.2707 0.0 0
M  V30 17 C 13.3032 3.2728 0.0 0
M  V30 18 C 14.351 0.8947 0.0 0
M  V30 19 C 14.5041 2.4016 0.0 0
M  V30 END ATOM
M  V30 BEGIN BOND
M  V30 1 2 1 2
M  V30 2 1 2 3
M  V30 3 1 2 4
M  V30 4 1 3 5
M  V30 5 1 4 6
M  V30 6 1 6 7
M  V30 7 1 7 8
M  V30 8 1 8 9
M  V30 9 1 9 10
M  V30 10 1 10 11
M  V30 11 2 11 12
M  V30 12 1 11 13
M  V30 13 1 13 14
M  V30 14 2 14 15
M  V30 15 1 14 16
M  V30 16 1 15 17
M  V30 17 2 16 18
M  V30 18 2 17 19
M  V30 19 1 18 19
M  V30 END BOND
M  V30 END CTAB
M  END
>  <Compound ID>
264

>  <Name>
Vorinostat

>  <Uniprot>
Q9UBN7

>  <Target>
HDAC6

>  <Smiles>
O=C(CCCCCCC(=O)NC1=CC=CC=C1)NO

>  <Kd (nM)>


>  <Assay (Kd)>


>  <Ki (nM)>


>  <Assay (Ki)>


>  <IC50 (nM)>
45

>  <Assay (IC50)>
Inhibition of HDAC6

>  <EC50 (nM)>


>  <Assay (EC50)>


>  <Article DOI>
10.1002/anie.202006725

>  <Molecular Weight>
264.325

>  <Exact Mass>
264.1473925

>  <XLogP3>
1.86

>  <Heavy Atom Count>
19

>  <Ring Count>
1

>  <Hydrogen Bond Acceptor Count>
3

>  <Hydrogen Bond Donor Count>
3

>  <Rotatable Bond Count>
8

>  <Topological Polar Surface Area>
78.43

>  <Molecular Formula>
C14H20N2O3

>  <InChI>
InChI=1S/C14H20N2O3/c17-13(15-12-8-4-3-5-9-12)10-6-1-2-7-11-14(18)16-19/h3-5,8-9,19H,1-2,6-7,10-11H2,(H,15,17)(H,16,18)

>  <InChI Key>
WAEXFXRVDQXREF-UHFFFAOYSA-N

>  <BindingDB>
19149

>  <PubChem>
5311

>  <ChEMBL>
CHEMBL98

$$$$
Compound 954
Actelion Java MolfileCreator 2.0

  0  0  0  0  0  0              0 V3000
M  V30 BEGIN CTAB
M  V30 COUNTS 19 19 0 0 0
M  V30 BEGIN ATOM
M  V30 1 O 0.0 0.0 0.0 0
M  V30 2 C 0.153 1.5069 0.0 0
M  V30 3 N -1.0713 2.4016 0.0 0
M  V30 4 C 1.5186 2.1308 0.0 0
M  V30 5 O -2.4605 1.8012 0.0 0
M  V30 6 C 2.7195 1.2596 0.0 0
M  V30 7 C 4.0851 1.8836 0.0 0
M  V30 8 C 5.2859 1.0124 0.0 0
M  V30 9 C 6.6516 1.6364 0.0 0
M  V30 10 C 7.8524 0.7652 0.0 0
M  V30 11 C 9.2181 1.3891 0.0 0
M  V30 12 O 9.3711 2.8961 0.0 0
M  V30 13 N 10.4189 0.518 0.0 0
M  V30 14 C 11.7846 1.1419 0.0 0
M  V30 15 C 11.9376 2.6488 0.0 0
M  V30 16 C 12.9854 0.2707 0.0 0
M  V30 17 C 13.3032 3.2728 0.0 0
M  V30 18 C 14.351 0.8947 0.0 0
M  V30 19 C 14.5041 2.4016 0.0 0
M  V30 END ATOM
M  V30 BEGIN BOND
M  V30 1 2 1 2
M  V30 2 1 2 3
M  V30 3 1 2 4
M  V30 4 1 3 5
M  V30 5 1 4 6
M  V30 6 1 6 7
M  V30 7 1 7 8
M  V30 8 1 8 9
M  V30 9 1 9 10
M  V30 10 1 10 11
M  V30 11 2 11 12
M  V30 12 1 11 13
M  V30 13 1 13 14
M  V30 14 2 14 15
M  V30 15 1 14 16
M  V30 16 1 15 17
M  V30 17 2 16 18
M  V30 18 2 17 19
M  V30 19 1 18 19
M  V30 END BOND
M  V30 END CTAB
M  END
>  <Compound ID>
264

>  <Name>
Vorinostat

>  <Uniprot>
Q9BY41

>  <Target>
HDAC8

>  <Smiles>
O=C(CCCCCCC(=O)NC1=CC=CC=C1)NO

>  <Kd (nM)>


>  <Assay (Kd)>


>  <Ki (nM)>
173

>  <Assay (Ki)>
FP

>  <IC50 (nM)>


>  <Assay (IC50)>


>  <EC50 (nM)>


>  <Assay (EC50)>


>  <Article DOI>
10.1021/jm2003552

>  <Molecular Weight>
264.325

>  <Exact Mass>
264.1473925

>  <XLogP3>
1.86

>  <Heavy Atom Count>
19

>  <Ring Count>
1

>  <Hydrogen Bond Acceptor Count>
3

>  <Hydrogen Bond Donor Count>
3

>  <Rotatable Bond Count>
8

>  <Topological Polar Surface Area>
78.43

>  <Molecular Formula>
C14H20N2O3

>  <InChI>
InChI=1S/C14H20N2O3/c17-13(15-12-8-4-3-5-9-12)10-6-1-2-7-11-14(18)16-19/h3-5,8-9,19H,1-2,6-7,10-11H2,(H,15,17)(H,16,18)

>  <InChI Key>
WAEXFXRVDQXREF-UHFFFAOYSA-N

>  <BindingDB>
19149

>  <PubChem>
5311

>  <ChEMBL>
CHEMBL98

$$$$
Compound 955
Actelion Java MolfileCreator 2.0

  0  0  0  0  0  0              0 V3000
M  V30 BEGIN CTAB
M  V30 COUNTS 30 34 0 0 0
M  V30 BEGIN ATOM
M  V30 1 Cl 0.0 0.0 0.0 0
M  V30 2 C -1.2675 -0.798 0.0 0
M  V30 3 C -2.6054 -0.1056 0.0 0
M  V30 4 C -1.2088 -2.2768 0.0 0
M  V30 5 N -2.6876 1.3966 0.0 0
M  V30 6 C -3.8729 -0.9036 0.0 0
M  V30 7 N -2.4763 -3.0749 0.0 0
M  V30 8 C -1.4435 2.2181 0.0 0
M  V30 9 C -4.0255 2.089 0.0 0
M  V30 10 C -5.2109 -0.2112 0.0 0
M  V30 11 C -3.8143 -2.3824 0.0 0
M  V30 12 C -1.5257 3.7204 0.0 0
M  V30 13 C -4.1077 3.5913 0.0 0
M  V30 14 C -6.4784 -1.0093 0.0 0
M  V30 15 C -5.293 1.2909 0.0 0
M  V30 16 C -2.8636 4.4128 0.0 0
M  V30 17 C -7.8164 -0.3168 0.0 0
M  V30 18 C -6.631 1.9834 0.0 0
M  V30 19 C -1.7135 5.3517 0.0 0
M  V30 20 C -4.1194 5.2461 0.0 0
M  V30 21 C -7.8985 1.1853 0.0 0
M  V30 22 O -0.2816 4.9644 0.0 0
M  V30 23 N -2.2533 6.7601 0.0 0
M  V30 24 C -3.7321 6.7014 0.0 0
M  V30 25 C -9.2365 1.8778 0.0 0
M  V30 26 C -9.4712 3.3683 0.0 0
M  V30 27 C -10.5861 1.2205 0.0 0
M  V30 28 N -10.95 3.6265 0.0 0
M  V30 29 N -11.6424 2.2885 0.0 0
M  V30 30 C -13.1329 2.0773 0.0 0
M  V30 END ATOM
M  V30 BEGIN BOND
M  V30 1 1 1 2
M  V30 2 2 2 3
M  V30 3 1 2 4
M  V30 4 1 3 5
M  V30 5 1 3 6
M  V30 6 2 4 7
M  V30 7 1 5 8
M  V30 8 1 5 9
M  V30 9 1 6 10
M  V30 10 2 6 11
M  V30 11 1 8 12
M  V30 12 1 9 13
M  V30 13 2 10 14
M  V30 14 1 10 15
M  V30 15 1 12 16
M  V30 16 1 14 17
M  V30 17 2 15 18
M  V30 18 1 16 19
M  V30 19 1 16 20
M  V30 20 2 17 21
M  V30 21 2 19 22
M  V30 22 1 19 23
M  V30 23 1 20 24
M  V30 24 1 21 25
M  V30 25 1 25 26
M  V30 26 2 25 27
M  V30 27 2 26 28
M  V30 28 1 27 29
M  V30 29 1 29 30
M  V30 30 1 7 11
M  V30 31 1 13 16
M  V30 32 1 18 21
M  V30 33 1 23 24
M  V30 34 1 28 29
M  V30 END BOND
M  V30 END CTAB
M  END
>  <Compound ID>
265

>  <Name>
DB-114130

>  <Uniprot>
Q9BWU1

>  <Target>
CDK19

>  <Smiles>
CN1C=C(C2=CC=C(C3=CN=CC(Cl)=C3N3CCC4(CCNC4=O)CC3)C=C2)C=N1

>  <Kd (nM)>
2.54

>  <Assay (Kd)>
Kd was assessed using a reporter displacement assay

>  <Ki (nM)>


>  <Assay (Ki)>


>  <IC50 (nM)>
6

>  <Assay (IC50)>
IC50 was assessed using a reporter displacement assay

>  <EC50 (nM)>


>  <Assay (EC50)>


>  <Article DOI>
10.1038/nchembio.1952

>  <Molecular Weight>
421.932

>  <Exact Mass>
421.166938068

>  <XLogP3>
2.89

>  <Heavy Atom Count>
30

>  <Ring Count>
5

>  <Hydrogen Bond Acceptor Count>
5

>  <Hydrogen Bond Donor Count>
1

>  <Rotatable Bond Count>
3

>  <Topological Polar Surface Area>
63.05

>  <Molecular Formula>
C23H24ClN5O

>  <InChI>
InChI=1S/C23H24ClN5O/c1-28-15-18(12-27-28)16-2-4-17(5-3-16)19-13-25-14-20(24)21(19)29-10-7-23(8-11-29)6-9-26-22(23)30/h2-5,12-15H,6-11H2,1H3,(H,26,30)

>  <InChI Key>
LBFYQISQYCGDDW-UHFFFAOYSA-N

>  <BindingDB>
50073190

>  <PubChem>
77050682

>  <ChEMBL>
CHEMBL3408213

$$$$
Compound 956
Actelion Java MolfileCreator 2.0

  0  0  0  0  0  0              0 V3000
M  V30 BEGIN CTAB
M  V30 COUNTS 30 34 0 0 0
M  V30 BEGIN ATOM
M  V30 1 Cl 0.0 0.0 0.0 0
M  V30 2 C -1.2675 -0.798 0.0 0
M  V30 3 C -2.6054 -0.1056 0.0 0
M  V30 4 C -1.2088 -2.2768 0.0 0
M  V30 5 N -2.6876 1.3966 0.0 0
M  V30 6 C -3.8729 -0.9036 0.0 0
M  V30 7 N -2.4763 -3.0749 0.0 0
M  V30 8 C -1.4435 2.2181 0.0 0
M  V30 9 C -4.0255 2.089 0.0 0
M  V30 10 C -5.2109 -0.2112 0.0 0
M  V30 11 C -3.8143 -2.3824 0.0 0
M  V30 12 C -1.5257 3.7204 0.0 0
M  V30 13 C -4.1077 3.5913 0.0 0
M  V30 14 C -6.4784 -1.0093 0.0 0
M  V30 15 C -5.293 1.2909 0.0 0
M  V30 16 C -2.8636 4.4128 0.0 0
M  V30 17 C -7.8164 -0.3168 0.0 0
M  V30 18 C -6.631 1.9834 0.0 0
M  V30 19 C -1.7135 5.3517 0.0 0
M  V30 20 C -4.1194 5.2461 0.0 0
M  V30 21 C -7.8985 1.1853 0.0 0
M  V30 22 O -0.2816 4.9644 0.0 0
M  V30 23 N -2.2533 6.7601 0.0 0
M  V30 24 C -3.7321 6.7014 0.0 0
M  V30 25 C -9.2365 1.8778 0.0 0
M  V30 26 C -9.4712 3.3683 0.0 0
M  V30 27 C -10.5861 1.2205 0.0 0
M  V30 28 N -10.95 3.6265 0.0 0
M  V30 29 N -11.6424 2.2885 0.0 0
M  V30 30 C -13.1329 2.0773 0.0 0
M  V30 END ATOM
M  V30 BEGIN BOND
M  V30 1 1 1 2
M  V30 2 2 2 3
M  V30 3 1 2 4
M  V30 4 1 3 5
M  V30 5 1 3 6
M  V30 6 2 4 7
M  V30 7 1 5 8
M  V30 8 1 5 9
M  V30 9 1 6 10
M  V30 10 2 6 11
M  V30 11 1 8 12
M  V30 12 1 9 13
M  V30 13 2 10 14
M  V30 14 1 10 15
M  V30 15 1 12 16
M  V30 16 1 14 17
M  V30 17 2 15 18
M  V30 18 1 16 19
M  V30 19 1 16 20
M  V30 20 2 17 21
M  V30 21 2 19 22
M  V30 22 1 19 23
M  V30 23 1 20 24
M  V30 24 1 21 25
M  V30 25 1 25 26
M  V30 26 2 25 27
M  V30 27 2 26 28
M  V30 28 1 27 29
M  V30 29 1 29 30
M  V30 30 1 7 11
M  V30 31 1 13 16
M  V30 32 1 18 21
M  V30 33 1 23 24
M  V30 34 1 28 29
M  V30 END BOND
M  V30 END CTAB
M  END
>  <Compound ID>
265

>  <Name>
DB-114130

>  <Uniprot>
P49336

>  <Target>
CDK8

>  <Smiles>
CN1C=C(C2=CC=C(C3=CN=CC(Cl)=C3N3CCC4(CCNC4=O)CC3)C=C2)C=N1

>  <Kd (nM)>
3.79

>  <Assay (Kd)>
Kd was assessed using a reporter displacement assay

>  <Ki (nM)>


>  <Assay (Ki)>


>  <IC50 (nM)>
5

>  <Assay (IC50)>
IC50 was assessed using a reporter displacement assay

>  <EC50 (nM)>


>  <Assay (EC50)>


>  <Article DOI>
10.1038/nchembio.1952

>  <Molecular Weight>
421.932

>  <Exact Mass>
421.166938068

>  <XLogP3>
2.89

>  <Heavy Atom Count>
30

>  <Ring Count>
5

>  <Hydrogen Bond Acceptor Count>
5

>  <Hydrogen Bond Donor Count>
1

>  <Rotatable Bond Count>
3

>  <Topological Polar Surface Area>
63.05

>  <Molecular Formula>
C23H24ClN5O

>  <InChI>
InChI=1S/C23H24ClN5O/c1-28-15-18(12-27-28)16-2-4-17(5-3-16)19-13-25-14-20(24)21(19)29-10-7-23(8-11-29)6-9-26-22(23)30/h2-5,12-15H,6-11H2,1H3,(H,26,30)

>  <InChI Key>
LBFYQISQYCGDDW-UHFFFAOYSA-N

>  <BindingDB>
50073190

>  <PubChem>
77050682

>  <ChEMBL>
CHEMBL3408213

$$$$
Compound 957
Actelion Java MolfileCreator 2.0

  0  0  0  0  0  0              0 V3000
M  V30 BEGIN CTAB
M  V30 COUNTS 31 36 0 0 0
M  V30 BEGIN ATOM
M  V30 1 O 0.0 0.0 0.0 0
M  V30 2 C 1.1901 -0.9256 0.0 0
M  V30 3 N 2.6448 -0.4928 0.0 0
M  V30 4 N 1.118 -2.4404 0.0 0
M  V30 5 C 3.4863 -1.7431 0.0 0
M  V30 6 C 3.306 0.8896 0.0 0
M  V30 7 N 2.5366 -2.9573 0.0 0
M  V30 8 C 5.001 -1.6229 0.0 0
M  V30 9 C 4.8207 1.0098 0.0 0
M  V30 10 C 5.6622 -0.2404 0.0 0
M  V30 11 C 5.8426 -2.8732 0.0 0
M  V30 12 N 7.177 -0.1202 0.0 0
M  V30 13 C 7.3573 -2.753 0.0 0
M  V30 14 C 8.0185 -1.3704 0.0 0
M  V30 15 C 8.1988 -4.0032 0.0 0
M  V30 16 C 9.5333 -1.2502 0.0 0
M  V30 17 C 7.5136 -5.3617 0.0 0
M  V30 18 C 9.7136 -3.883 0.0 0
M  V30 19 C 10.1945 0.1322 0.0 0
M  V30 20 C 10.3748 -2.5005 0.0 0
M  V30 21 C 8.3551 -6.612 0.0 0
M  V30 22 C 10.5551 -5.1333 0.0 0
M  V30 23 C 11.7092 0.2524 0.0 0
M  V30 24 C 11.8895 -2.3803 0.0 0
M  V30 25 C 9.8699 -6.4917 0.0 0
M  V30 26 C 12.5507 -0.9978 0.0 0
M  V30 27 C 14.0655 -0.8775 0.0 0
M  V30 28 N 14.1977 -0.0721 0.0 0
M  V30 29 C 13.9453 0.6612 0.0 0
M  V30 30 C 15.5803 -0.7573 0.0 0
M  V30 31 C 15.46 0.7814 0.0 0
M  V30 END ATOM
M  V30 BEGIN BOND
M  V30 1 2 1 2
M  V30 2 1 2 3
M  V30 3 1 2 4
M  V30 4 1 3 5
M  V30 5 1 3 6
M  V30 6 1 4 7
M  V30 7 1 5 8
M  V30 8 2 6 9
M  V30 9 2 8 10
M  V30 10 1 8 11
M  V30 11 1 10 12
M  V30 12 2 11 13
M  V30 13 2 12 14
M  V30 14 1 13 15
M  V30 15 1 14 16
M  V30 16 2 15 17
M  V30 17 1 15 18
M  V30 18 2 16 19
M  V30 19 1 16 20
M  V30 20 1 17 21
M  V30 21 2 18 22
M  V30 22 1 19 23
M  V30 23 2 20 24
M  V30 24 2 21 25
M  V30 25 2 23 26
M  V30 26 1 26 27
M  V30 27 1 27 28
M  V30 28 1 27 29
M  V30 29 1 27 30
M  V30 30 1 29 31
M  V30 31 2 5 7
M  V30 32 1 9 10
M  V30 33 1 13 14
M  V30 34 1 22 25
M  V30 35 1 24 26
M  V30 36 1 30 31
M  V30 END BOND
M  V30 END CTAB
M  END
>  <Compound ID>
266

>  <Name>
MK-2206

>  <Uniprot>
Q15118

>  <Target>
PDK1

>  <Smiles>
NC1(C2=CC=C(C3=NC4=C(C=C3C3=CC=CC=C3)C3=N[NH]C(=O)N3C=C4)C=C2)CCC1

>  <Kd (nM)>


>  <Assay (Kd)>


>  <Ki (nM)>


>  <Assay (Ki)>


>  <IC50 (nM)>


>  <Assay (IC50)>


>  <EC50 (nM)>


>  <Assay (EC50)>


>  <Article DOI>
10.1016/j.cell.2020.10.038

>  <Molecular Weight>
407.477

>  <Exact Mass>
407.174610292

>  <XLogP3>
2.98

>  <Heavy Atom Count>
31

>  <Ring Count>
6

>  <Hydrogen Bond Acceptor Count>
5

>  <Hydrogen Bond Donor Count>
2

>  <Rotatable Bond Count>
3

>  <Topological Polar Surface Area>
89.07

>  <Molecular Formula>
C25H21N5O

>  <InChI>
InChI=1S/C25H21N5O/c26-25(12-4-13-25)18-9-7-17(8-10-18)22-19(16-5-2-1-3-6-16)15-20-21(27-22)11-14-30-23(20)28-29-24(30)31/h1-3,5-11,14-15H,4,12-13,26H2,(H,29,31)

>  <InChI Key>
ULDXWLCXEDXJGE-UHFFFAOYSA-N

>  <BindingDB>
50313650

>  <PubChem>
24964624

>  <ChEMBL>
CHEMBL1079175

$$$$
Compound 958
Actelion Java MolfileCreator 2.0

  0  0  0  0  0  0              0 V3000
M  V30 BEGIN CTAB
M  V30 COUNTS 31 36 0 0 0
M  V30 BEGIN ATOM
M  V30 1 O 0.0 0.0 0.0 0
M  V30 2 C 1.1901 -0.9256 0.0 0
M  V30 3 N 2.6448 -0.4928 0.0 0
M  V30 4 N 1.118 -2.4404 0.0 0
M  V30 5 C 3.4863 -1.7431 0.0 0
M  V30 6 C 3.306 0.8896 0.0 0
M  V30 7 N 2.5366 -2.9573 0.0 0
M  V30 8 C 5.001 -1.6229 0.0 0
M  V30 9 C 4.8207 1.0098 0.0 0
M  V30 10 C 5.6622 -0.2404 0.0 0
M  V30 11 C 5.8426 -2.8732 0.0 0
M  V30 12 N 7.177 -0.1202 0.0 0
M  V30 13 C 7.3573 -2.753 0.0 0
M  V30 14 C 8.0185 -1.3704 0.0 0
M  V30 15 C 8.1988 -4.0032 0.0 0
M  V30 16 C 9.5333 -1.2502 0.0 0
M  V30 17 C 7.5136 -5.3617 0.0 0
M  V30 18 C 9.7136 -3.883 0.0 0
M  V30 19 C 10.1945 0.1322 0.0 0
M  V30 20 C 10.3748 -2.5005 0.0 0
M  V30 21 C 8.3551 -6.612 0.0 0
M  V30 22 C 10.5551 -5.1333 0.0 0
M  V30 23 C 11.7092 0.2524 0.0 0
M  V30 24 C 11.8895 -2.3803 0.0 0
M  V30 25 C 9.8699 -6.4917 0.0 0
M  V30 26 C 12.5507 -0.9978 0.0 0
M  V30 27 C 14.0655 -0.8775 0.0 0
M  V30 28 N 14.1977 -0.0721 0.0 0
M  V30 29 C 13.9453 0.6612 0.0 0
M  V30 30 C 15.5803 -0.7573 0.0 0
M  V30 31 C 15.46 0.7814 0.0 0
M  V30 END ATOM
M  V30 BEGIN BOND
M  V30 1 2 1 2
M  V30 2 1 2 3
M  V30 3 1 2 4
M  V30 4 1 3 5
M  V30 5 1 3 6
M  V30 6 1 4 7
M  V30 7 1 5 8
M  V30 8 2 6 9
M  V30 9 2 8 10
M  V30 10 1 8 11
M  V30 11 1 10 12
M  V30 12 2 11 13
M  V30 13 2 12 14
M  V30 14 1 13 15
M  V30 15 1 14 16
M  V30 16 2 15 17
M  V30 17 1 15 18
M  V30 18 2 16 19
M  V30 19 1 16 20
M  V30 20 1 17 21
M  V30 21 2 18 22
M  V30 22 1 19 23
M  V30 23 2 20 24
M  V30 24 2 21 25
M  V30 25 2 23 26
M  V30 26 1 26 27
M  V30 27 1 27 28
M  V30 28 1 27 29
M  V30 29 1 27 30
M  V30 30 1 29 31
M  V30 31 2 5 7
M  V30 32 1 9 10
M  V30 33 1 13 14
M  V30 34 1 22 25
M  V30 35 1 24 26
M  V30 36 1 30 31
M  V30 END BOND
M  V30 END CTAB
M  END
>  <Compound ID>
266

>  <Name>
MK-2206

>  <Uniprot>
Q15119

>  <Target>
PDK2

>  <Smiles>
NC1(C2=CC=C(C3=NC4=C(C=C3C3=CC=CC=C3)C3=N[NH]C(=O)N3C=C4)C=C2)CCC1

>  <Kd (nM)>


>  <Assay (Kd)>


>  <Ki (nM)>


>  <Assay (Ki)>


>  <IC50 (nM)>


>  <Assay (IC50)>


>  <EC50 (nM)>


>  <Assay (EC50)>


>  <Article DOI>
10.1016/j.cell.2020.10.038

>  <Molecular Weight>
407.477

>  <Exact Mass>
407.174610292

>  <XLogP3>
2.98

>  <Heavy Atom Count>
31

>  <Ring Count>
6

>  <Hydrogen Bond Acceptor Count>
5

>  <Hydrogen Bond Donor Count>
2

>  <Rotatable Bond Count>
3

>  <Topological Polar Surface Area>
89.07

>  <Molecular Formula>
C25H21N5O

>  <InChI>
InChI=1S/C25H21N5O/c26-25(12-4-13-25)18-9-7-17(8-10-18)22-19(16-5-2-1-3-6-16)15-20-21(27-22)11-14-30-23(20)28-29-24(30)31/h1-3,5-11,14-15H,4,12-13,26H2,(H,29,31)

>  <InChI Key>
ULDXWLCXEDXJGE-UHFFFAOYSA-N

>  <BindingDB>
50313650

>  <PubChem>
24964624

>  <ChEMBL>
CHEMBL1079175

$$$$
Compound 959
Actelion Java MolfileCreator 2.0

  0  0  0  0  0  0              0 V3000
M  V30 BEGIN CTAB
M  V30 COUNTS 31 36 0 0 0
M  V30 BEGIN ATOM
M  V30 1 O 0.0 0.0 0.0 0
M  V30 2 C 1.1901 -0.9256 0.0 0
M  V30 3 N 2.6448 -0.4928 0.0 0
M  V30 4 N 1.118 -2.4404 0.0 0
M  V30 5 C 3.4863 -1.7431 0.0 0
M  V30 6 C 3.306 0.8896 0.0 0
M  V30 7 N 2.5366 -2.9573 0.0 0
M  V30 8 C 5.001 -1.6229 0.0 0
M  V30 9 C 4.8207 1.0098 0.0 0
M  V30 10 C 5.6622 -0.2404 0.0 0
M  V30 11 C 5.8426 -2.8732 0.0 0
M  V30 12 N 7.177 -0.1202 0.0 0
M  V30 13 C 7.3573 -2.753 0.0 0
M  V30 14 C 8.0185 -1.3704 0.0 0
M  V30 15 C 8.1988 -4.0032 0.0 0
M  V30 16 C 9.5333 -1.2502 0.0 0
M  V30 17 C 7.5136 -5.3617 0.0 0
M  V30 18 C 9.7136 -3.883 0.0 0
M  V30 19 C 10.1945 0.1322 0.0 0
M  V30 20 C 10.3748 -2.5005 0.0 0
M  V30 21 C 8.3551 -6.612 0.0 0
M  V30 22 C 10.5551 -5.1333 0.0 0
M  V30 23 C 11.7092 0.2524 0.0 0
M  V30 24 C 11.8895 -2.3803 0.0 0
M  V30 25 C 9.8699 -6.4917 0.0 0
M  V30 26 C 12.5507 -0.9978 0.0 0
M  V30 27 C 14.0655 -0.8775 0.0 0
M  V30 28 N 14.1977 -0.0721 0.0 0
M  V30 29 C 13.9453 0.6612 0.0 0
M  V30 30 C 15.5803 -0.7573 0.0 0
M  V30 31 C 15.46 0.7814 0.0 0
M  V30 END ATOM
M  V30 BEGIN BOND
M  V30 1 2 1 2
M  V30 2 1 2 3
M  V30 3 1 2 4
M  V30 4 1 3 5
M  V30 5 1 3 6
M  V30 6 1 4 7
M  V30 7 1 5 8
M  V30 8 2 6 9
M  V30 9 2 8 10
M  V30 10 1 8 11
M  V30 11 1 10 12
M  V30 12 2 11 13
M  V30 13 2 12 14
M  V30 14 1 13 15
M  V30 15 1 14 16
M  V30 16 2 15 17
M  V30 17 1 15 18
M  V30 18 2 16 19
M  V30 19 1 16 20
M  V30 20 1 17 21
M  V30 21 2 18 22
M  V30 22 1 19 23
M  V30 23 2 20 24
M  V30 24 2 21 25
M  V30 25 2 23 26
M  V30 26 1 26 27
M  V30 27 1 27 28
M  V30 28 1 27 29
M  V30 29 1 27 30
M  V30 30 1 29 31
M  V30 31 2 5 7
M  V30 32 1 9 10
M  V30 33 1 13 14
M  V30 34 1 22 25
M  V30 35 1 24 26
M  V30 36 1 30 31
M  V30 END BOND
M  V30 END CTAB
M  END
>  <Compound ID>
266

>  <Name>
MK-2206

>  <Uniprot>
Q15120

>  <Target>
PDK3

>  <Smiles>
NC1(C2=CC=C(C3=NC4=C(C=C3C3=CC=CC=C3)C3=N[NH]C(=O)N3C=C4)C=C2)CCC1

>  <Kd (nM)>


>  <Assay (Kd)>


>  <Ki (nM)>


>  <Assay (Ki)>


>  <IC50 (nM)>


>  <Assay (IC50)>


>  <EC50 (nM)>


>  <Assay (EC50)>


>  <Article DOI>
10.1016/j.cell.2020.10.038

>  <Molecular Weight>
407.477

>  <Exact Mass>
407.174610292

>  <XLogP3>
2.98

>  <Heavy Atom Count>
31

>  <Ring Count>
6

>  <Hydrogen Bond Acceptor Count>
5

>  <Hydrogen Bond Donor Count>
2

>  <Rotatable Bond Count>
3

>  <Topological Polar Surface Area>
89.07

>  <Molecular Formula>
C25H21N5O

>  <InChI>
InChI=1S/C25H21N5O/c26-25(12-4-13-25)18-9-7-17(8-10-18)22-19(16-5-2-1-3-6-16)15-20-21(27-22)11-14-30-23(20)28-29-24(30)31/h1-3,5-11,14-15H,4,12-13,26H2,(H,29,31)

>  <InChI Key>
ULDXWLCXEDXJGE-UHFFFAOYSA-N

>  <BindingDB>
50313650

>  <PubChem>
24964624

>  <ChEMBL>
CHEMBL1079175

$$$$
Compound 960
Actelion Java MolfileCreator 2.0

  0  0  0  0  0  0              0 V3000
M  V30 BEGIN CTAB
M  V30 COUNTS 32 36 0 0 0
M  V30 BEGIN ATOM
M  V30 1 S 0.0 0.0 0.0 0
M  V30 2 O 0.7343 1.3265 0.0 0
M  V30 3 O -0.758 -1.3029 0.0 0
M  V30 4 N -1.3265 0.758 0.0 0
M  V30 5 C 1.3029 -0.7343 0.0 0
M  V30 6 C -2.6294 0.0118 0.0 0
M  V30 7 C 1.3029 -2.2267 0.0 0
M  V30 8 C 2.5821 0.0355 0.0 0
M  V30 9 C -3.3875 -1.291 0.0 0
M  V30 10 C -4.1455 0.0118 0.0 0
M  V30 11 C 2.6058 -2.9611 0.0 0
M  V30 12 C 3.885 -0.6988 0.0 0
M  V30 13 F 2.6058 -4.4535 0.0 0
M  V30 14 C 3.885 -2.1912 0.0 0
M  V30 15 C 5.1879 -2.9256 0.0 0
M  V30 16 C 5.1879 -4.418 0.0 0
M  V30 17 C 6.4671 -2.1557 0.0 0
M  V30 18 N 6.4908 -5.1523 0.0 0
M  V30 19 C 7.77 -2.89 0.0 0
M  V30 20 C 7.77 -4.3824 0.0 0
M  V30 21 C 9.0492 -2.1201 0.0 0
M  V30 22 N 9.0729 -5.1168 0.0 0
M  V30 23 C 9.0255 -0.604 0.0 0
M  V30 24 C 10.3521 -2.8545 0.0 0
M  V30 25 C 10.3047 0.1658 0.0 0
M  V30 26 C 11.6313 -2.0846 0.0 0
M  V30 27 C 11.6076 -0.5685 0.0 0
M  V30 28 C 10.281 1.6819 0.0 0
M  V30 29 C 12.8868 0.2013 0.0 0
M  V30 30 C 11.5602 2.4518 0.0 0
M  V30 31 O 14.1897 -0.533 0.0 0
M  V30 32 N 12.8631 1.7174 0.0 0
M  V30 END ATOM
M  V30 BEGIN BOND
M  V30 1 2 1 2
M  V30 2 2 1 3
M  V30 3 1 1 4
M  V30 4 1 1 5
M  V30 5 1 4 6
M  V30 6 2 5 7
M  V30 7 1 5 8
M  V30 8 1 6 9
M  V30 9 1 6 10
M  V30 10 1 7 11
M  V30 11 2 8 12
M  V30 12 1 11 13
M  V30 13 2 11 14
M  V30 14 1 14 15
M  V30 15 2 15 16
M  V30 16 1 15 17
M  V30 17 1 16 18
M  V30 18 2 17 19
M  V30 19 2 18 20
M  V30 20 1 19 21
M  V30 21 1 20 22
M  V30 22 2 21 23
M  V30 23 1 21 24
M  V30 24 1 23 25
M  V30 25 2 24 26
M  V30 26 2 25 27
M  V30 27 1 25 28
M  V30 28 1 27 29
M  V30 29 1 28 30
M  V30 30 2 29 31
M  V30 31 1 29 32
M  V30 32 1 9 10
M  V30 33 1 12 14
M  V30 34 1 19 20
M  V30 35 1 26 27
M  V30 36 1 30 32
M  V30 END BOND
M  V30 END CTAB
M  END
>  <Compound ID>
267

>  <Name>


>  <Uniprot>
O94921

>  <Target>
CDK14

>  <Smiles>
NC1=NC=C(C2=CC=C(S(=O)(=O)NC3CC3)C=C2F)C=C1C1=CC=C2C(=O)NCCC2=C1

>  <Kd (nM)>


>  <Assay (Kd)>


>  <Ki (nM)>


>  <Assay (Ki)>


>  <IC50 (nM)>


>  <Assay (IC50)>


>  <EC50 (nM)>


>  <Assay (EC50)>


>  <Article DOI>
10.1016/j.cell.2020.10.038

>  <Molecular Weight>
452.511

>  <Exact Mass>
452.131839752

>  <XLogP3>
2.69

>  <Heavy Atom Count>
32

>  <Ring Count>
5

>  <Hydrogen Bond Acceptor Count>
5

>  <Hydrogen Bond Donor Count>
3

>  <Rotatable Bond Count>
5

>  <Topological Polar Surface Area>
114.18

>  <Molecular Formula>
C23H21FN4O3S

>  <InChI>
InChI=1S/C23H21FN4O3S/c24-21-11-17(32(30,31)28-16-2-3-16)4-6-18(21)15-10-20(22(25)27-12-15)13-1-5-19-14(9-13)7-8-26-23(19)29/h1,4-6,9-12,16,28H,2-3,7-8H2,(H2,25,27)(H,26,29)

>  <InChI Key>
UZJTTYGNPCEORU-UHFFFAOYSA-N

>  <BindingDB>


>  <PubChem>
122597258

>  <ChEMBL>


$$$$
Compound 961
Actelion Java MolfileCreator 2.0

  0  0  0  0  0  0              0 V3000
M  V30 BEGIN CTAB
M  V30 COUNTS 32 36 0 0 0
M  V30 BEGIN ATOM
M  V30 1 S 0.0 0.0 0.0 0
M  V30 2 O 0.7343 1.3265 0.0 0
M  V30 3 O -0.758 -1.3029 0.0 0
M  V30 4 N -1.3265 0.758 0.0 0
M  V30 5 C 1.3029 -0.7343 0.0 0
M  V30 6 C -2.6294 0.0118 0.0 0
M  V30 7 C 1.3029 -2.2267 0.0 0
M  V30 8 C 2.5821 0.0355 0.0 0
M  V30 9 C -3.3875 -1.291 0.0 0
M  V30 10 C -4.1455 0.0118 0.0 0
M  V30 11 C 2.6058 -2.9611 0.0 0
M  V30 12 C 3.885 -0.6988 0.0 0
M  V30 13 F 2.6058 -4.4535 0.0 0
M  V30 14 C 3.885 -2.1912 0.0 0
M  V30 15 C 5.1879 -2.9256 0.0 0
M  V30 16 C 5.1879 -4.418 0.0 0
M  V30 17 C 6.4671 -2.1557 0.0 0
M  V30 18 N 6.4908 -5.1523 0.0 0
M  V30 19 C 7.77 -2.89 0.0 0
M  V30 20 C 7.77 -4.3824 0.0 0
M  V30 21 C 9.0492 -2.1201 0.0 0
M  V30 22 N 9.0729 -5.1168 0.0 0
M  V30 23 C 9.0255 -0.604 0.0 0
M  V30 24 C 10.3521 -2.8545 0.0 0
M  V30 25 C 10.3047 0.1658 0.0 0
M  V30 26 C 11.6313 -2.0846 0.0 0
M  V30 27 C 11.6076 -0.5685 0.0 0
M  V30 28 C 10.281 1.6819 0.0 0
M  V30 29 C 12.8868 0.2013 0.0 0
M  V30 30 C 11.5602 2.4518 0.0 0
M  V30 31 O 14.1897 -0.533 0.0 0
M  V30 32 N 12.8631 1.7174 0.0 0
M  V30 END ATOM
M  V30 BEGIN BOND
M  V30 1 2 1 2
M  V30 2 2 1 3
M  V30 3 1 1 4
M  V30 4 1 1 5
M  V30 5 1 4 6
M  V30 6 2 5 7
M  V30 7 1 5 8
M  V30 8 1 6 9
M  V30 9 1 6 10
M  V30 10 1 7 11
M  V30 11 2 8 12
M  V30 12 1 11 13
M  V30 13 2 11 14
M  V30 14 1 14 15
M  V30 15 2 15 16
M  V30 16 1 15 17
M  V30 17 1 16 18
M  V30 18 2 17 19
M  V30 19 2 18 20
M  V30 20 1 19 21
M  V30 21 1 20 22
M  V30 22 2 21 23
M  V30 23 1 21 24
M  V30 24 1 23 25
M  V30 25 2 24 26
M  V30 26 2 25 27
M  V30 27 1 25 28
M  V30 28 1 27 29
M  V30 29 1 28 30
M  V30 30 2 29 31
M  V30 31 1 29 32
M  V30 32 1 9 10
M  V30 33 1 12 14
M  V30 34 1 19 20
M  V30 35 1 26 27
M  V30 36 1 30 32
M  V30 END BOND
M  V30 END CTAB
M  END
>  <Compound ID>
267

>  <Name>


>  <Uniprot>
P48729

>  <Target>
CSNK1A1

>  <Smiles>
NC1=NC=C(C2=CC=C(S(=O)(=O)NC3CC3)C=C2F)C=C1C1=CC=C2C(=O)NCCC2=C1

>  <Kd (nM)>


>  <Assay (Kd)>


>  <Ki (nM)>


>  <Assay (Ki)>


>  <IC50 (nM)>


>  <Assay (IC50)>


>  <EC50 (nM)>


>  <Assay (EC50)>


>  <Article DOI>
10.1016/j.cell.2020.10.038

>  <Molecular Weight>
452.511

>  <Exact Mass>
452.131839752

>  <XLogP3>
2.69

>  <Heavy Atom Count>
32

>  <Ring Count>
5

>  <Hydrogen Bond Acceptor Count>
5

>  <Hydrogen Bond Donor Count>
3

>  <Rotatable Bond Count>
5

>  <Topological Polar Surface Area>
114.18

>  <Molecular Formula>
C23H21FN4O3S

>  <InChI>
InChI=1S/C23H21FN4O3S/c24-21-11-17(32(30,31)28-16-2-3-16)4-6-18(21)15-10-20(22(25)27-12-15)13-1-5-19-14(9-13)7-8-26-23(19)29/h1,4-6,9-12,16,28H,2-3,7-8H2,(H2,25,27)(H,26,29)

>  <InChI Key>
UZJTTYGNPCEORU-UHFFFAOYSA-N

>  <BindingDB>


>  <PubChem>
122597258

>  <ChEMBL>


$$$$
Compound 962
Actelion Java MolfileCreator 2.0

  0  0  0  0  0  0              0 V3000
M  V30 BEGIN CTAB
M  V30 COUNTS 32 36 0 0 0
M  V30 BEGIN ATOM
M  V30 1 S 0.0 0.0 0.0 0
M  V30 2 O 0.7343 1.3265 0.0 0
M  V30 3 O -0.758 -1.3029 0.0 0
M  V30 4 N -1.3265 0.758 0.0 0
M  V30 5 C 1.3029 -0.7343 0.0 0
M  V30 6 C -2.6294 0.0118 0.0 0
M  V30 7 C 1.3029 -2.2267 0.0 0
M  V30 8 C 2.5821 0.0355 0.0 0
M  V30 9 C -3.3875 -1.291 0.0 0
M  V30 10 C -4.1455 0.0118 0.0 0
M  V30 11 C 2.6058 -2.9611 0.0 0
M  V30 12 C 3.885 -0.6988 0.0 0
M  V30 13 F 2.6058 -4.4535 0.0 0
M  V30 14 C 3.885 -2.1912 0.0 0
M  V30 15 C 5.1879 -2.9256 0.0 0
M  V30 16 C 5.1879 -4.418 0.0 0
M  V30 17 C 6.4671 -2.1557 0.0 0
M  V30 18 N 6.4908 -5.1523 0.0 0
M  V30 19 C 7.77 -2.89 0.0 0
M  V30 20 C 7.77 -4.3824 0.0 0
M  V30 21 C 9.0492 -2.1201 0.0 0
M  V30 22 N 9.0729 -5.1168 0.0 0
M  V30 23 C 9.0255 -0.604 0.0 0
M  V30 24 C 10.3521 -2.8545 0.0 0
M  V30 25 C 10.3047 0.1658 0.0 0
M  V30 26 C 11.6313 -2.0846 0.0 0
M  V30 27 C 11.6076 -0.5685 0.0 0
M  V30 28 C 10.281 1.6819 0.0 0
M  V30 29 C 12.8868 0.2013 0.0 0
M  V30 30 C 11.5602 2.4518 0.0 0
M  V30 31 O 14.1897 -0.533 0.0 0
M  V30 32 N 12.8631 1.7174 0.0 0
M  V30 END ATOM
M  V30 BEGIN BOND
M  V30 1 2 1 2
M  V30 2 2 1 3
M  V30 3 1 1 4
M  V30 4 1 1 5
M  V30 5 1 4 6
M  V30 6 2 5 7
M  V30 7 1 5 8
M  V30 8 1 6 9
M  V30 9 1 6 10
M  V30 10 1 7 11
M  V30 11 2 8 12
M  V30 12 1 11 13
M  V30 13 2 11 14
M  V30 14 1 14 15
M  V30 15 2 15 16
M  V30 16 1 15 17
M  V30 17 1 16 18
M  V30 18 2 17 19
M  V30 19 2 18 20
M  V30 20 1 19 21
M  V30 21 1 20 22
M  V30 22 2 21 23
M  V30 23 1 21 24
M  V30 24 1 23 25
M  V30 25 2 24 26
M  V30 26 2 25 27
M  V30 27 1 25 28
M  V30 28 1 27 29
M  V30 29 1 28 30
M  V30 30 2 29 31
M  V30 31 1 29 32
M  V30 32 1 9 10
M  V30 33 1 12 14
M  V30 34 1 19 20
M  V30 35 1 26 27
M  V30 36 1 30 32
M  V30 END BOND
M  V30 END CTAB
M  END
>  <Compound ID>
267

>  <Name>


>  <Uniprot>
P48730

>  <Target>
CSNK1D

>  <Smiles>
NC1=NC=C(C2=CC=C(S(=O)(=O)NC3CC3)C=C2F)C=C1C1=CC=C2C(=O)NCCC2=C1

>  <Kd (nM)>


>  <Assay (Kd)>


>  <Ki (nM)>


>  <Assay (Ki)>


>  <IC50 (nM)>


>  <Assay (IC50)>


>  <EC50 (nM)>


>  <Assay (EC50)>


>  <Article DOI>
10.1016/j.cell.2020.10.038

>  <Molecular Weight>
452.511

>  <Exact Mass>
452.131839752

>  <XLogP3>
2.69

>  <Heavy Atom Count>
32

>  <Ring Count>
5

>  <Hydrogen Bond Acceptor Count>
5

>  <Hydrogen Bond Donor Count>
3

>  <Rotatable Bond Count>
5

>  <Topological Polar Surface Area>
114.18

>  <Molecular Formula>
C23H21FN4O3S

>  <InChI>
InChI=1S/C23H21FN4O3S/c24-21-11-17(32(30,31)28-16-2-3-16)4-6-18(21)15-10-20(22(25)27-12-15)13-1-5-19-14(9-13)7-8-26-23(19)29/h1,4-6,9-12,16,28H,2-3,7-8H2,(H2,25,27)(H,26,29)

>  <InChI Key>
UZJTTYGNPCEORU-UHFFFAOYSA-N

>  <BindingDB>


>  <PubChem>
122597258

>  <ChEMBL>


$$$$
Compound 963
Actelion Java MolfileCreator 2.0

  0  0  0  0  0  0              0 V3000
M  V30 BEGIN CTAB
M  V30 COUNTS 32 36 0 0 0
M  V30 BEGIN ATOM
M  V30 1 S 0.0 0.0 0.0 0
M  V30 2 O 0.7343 1.3265 0.0 0
M  V30 3 O -0.758 -1.3029 0.0 0
M  V30 4 N -1.3265 0.758 0.0 0
M  V30 5 C 1.3029 -0.7343 0.0 0
M  V30 6 C -2.6294 0.0118 0.0 0
M  V30 7 C 1.3029 -2.2267 0.0 0
M  V30 8 C 2.5821 0.0355 0.0 0
M  V30 9 C -3.3875 -1.291 0.0 0
M  V30 10 C -4.1455 0.0118 0.0 0
M  V30 11 C 2.6058 -2.9611 0.0 0
M  V30 12 C 3.885 -0.6988 0.0 0
M  V30 13 F 2.6058 -4.4535 0.0 0
M  V30 14 C 3.885 -2.1912 0.0 0
M  V30 15 C 5.1879 -2.9256 0.0 0
M  V30 16 C 5.1879 -4.418 0.0 0
M  V30 17 C 6.4671 -2.1557 0.0 0
M  V30 18 N 6.4908 -5.1523 0.0 0
M  V30 19 C 7.77 -2.89 0.0 0
M  V30 20 C 7.77 -4.3824 0.0 0
M  V30 21 C 9.0492 -2.1201 0.0 0
M  V30 22 N 9.0729 -5.1168 0.0 0
M  V30 23 C 9.0255 -0.604 0.0 0
M  V30 24 C 10.3521 -2.8545 0.0 0
M  V30 25 C 10.3047 0.1658 0.0 0
M  V30 26 C 11.6313 -2.0846 0.0 0
M  V30 27 C 11.6076 -0.5685 0.0 0
M  V30 28 C 10.281 1.6819 0.0 0
M  V30 29 C 12.8868 0.2013 0.0 0
M  V30 30 C 11.5602 2.4518 0.0 0
M  V30 31 O 14.1897 -0.533 0.0 0
M  V30 32 N 12.8631 1.7174 0.0 0
M  V30 END ATOM
M  V30 BEGIN BOND
M  V30 1 2 1 2
M  V30 2 2 1 3
M  V30 3 1 1 4
M  V30 4 1 1 5
M  V30 5 1 4 6
M  V30 6 2 5 7
M  V30 7 1 5 8
M  V30 8 1 6 9
M  V30 9 1 6 10
M  V30 10 1 7 11
M  V30 11 2 8 12
M  V30 12 1 11 13
M  V30 13 2 11 14
M  V30 14 1 14 15
M  V30 15 2 15 16
M  V30 16 1 15 17
M  V30 17 1 16 18
M  V30 18 2 17 19
M  V30 19 2 18 20
M  V30 20 1 19 21
M  V30 21 1 20 22
M  V30 22 2 21 23
M  V30 23 1 21 24
M  V30 24 1 23 25
M  V30 25 2 24 26
M  V30 26 2 25 27
M  V30 27 1 25 28
M  V30 28 1 27 29
M  V30 29 1 28 30
M  V30 30 2 29 31
M  V30 31 1 29 32
M  V30 32 1 9 10
M  V30 33 1 12 14
M  V30 34 1 19 20
M  V30 35 1 26 27
M  V30 36 1 30 32
M  V30 END BOND
M  V30 END CTAB
M  END
>  <Compound ID>
267

>  <Name>


>  <Uniprot>
P49674

>  <Target>
CSNK1E

>  <Smiles>
NC1=NC=C(C2=CC=C(S(=O)(=O)NC3CC3)C=C2F)C=C1C1=CC=C2C(=O)NCCC2=C1

>  <Kd (nM)>


>  <Assay (Kd)>


>  <Ki (nM)>


>  <Assay (Ki)>


>  <IC50 (nM)>


>  <Assay (IC50)>


>  <EC50 (nM)>


>  <Assay (EC50)>


>  <Article DOI>
10.1016/j.cell.2020.10.038

>  <Molecular Weight>
452.511

>  <Exact Mass>
452.131839752

>  <XLogP3>
2.69

>  <Heavy Atom Count>
32

>  <Ring Count>
5

>  <Hydrogen Bond Acceptor Count>
5

>  <Hydrogen Bond Donor Count>
3

>  <Rotatable Bond Count>
5

>  <Topological Polar Surface Area>
114.18

>  <Molecular Formula>
C23H21FN4O3S

>  <InChI>
InChI=1S/C23H21FN4O3S/c24-21-11-17(32(30,31)28-16-2-3-16)4-6-18(21)15-10-20(22(25)27-12-15)13-1-5-19-14(9-13)7-8-26-23(19)29/h1,4-6,9-12,16,28H,2-3,7-8H2,(H2,25,27)(H,26,29)

>  <InChI Key>
UZJTTYGNPCEORU-UHFFFAOYSA-N

>  <BindingDB>


>  <PubChem>
122597258

>  <ChEMBL>


$$$$
Compound 964
Actelion Java MolfileCreator 2.0

  0  0  0  0  0  0              0 V3000
M  V30 BEGIN CTAB
M  V30 COUNTS 32 36 0 0 0
M  V30 BEGIN ATOM
M  V30 1 S 0.0 0.0 0.0 0
M  V30 2 O 0.7343 1.3265 0.0 0
M  V30 3 O -0.758 -1.3029 0.0 0
M  V30 4 N -1.3265 0.758 0.0 0
M  V30 5 C 1.3029 -0.7343 0.0 0
M  V30 6 C -2.6294 0.0118 0.0 0
M  V30 7 C 1.3029 -2.2267 0.0 0
M  V30 8 C 2.5821 0.0355 0.0 0
M  V30 9 C -3.3875 -1.291 0.0 0
M  V30 10 C -4.1455 0.0118 0.0 0
M  V30 11 C 2.6058 -2.9611 0.0 0
M  V30 12 C 3.885 -0.6988 0.0 0
M  V30 13 F 2.6058 -4.4535 0.0 0
M  V30 14 C 3.885 -2.1912 0.0 0
M  V30 15 C 5.1879 -2.9256 0.0 0
M  V30 16 C 5.1879 -4.418 0.0 0
M  V30 17 C 6.4671 -2.1557 0.0 0
M  V30 18 N 6.4908 -5.1523 0.0 0
M  V30 19 C 7.77 -2.89 0.0 0
M  V30 20 C 7.77 -4.3824 0.0 0
M  V30 21 C 9.0492 -2.1201 0.0 0
M  V30 22 N 9.0729 -5.1168 0.0 0
M  V30 23 C 9.0255 -0.604 0.0 0
M  V30 24 C 10.3521 -2.8545 0.0 0
M  V30 25 C 10.3047 0.1658 0.0 0
M  V30 26 C 11.6313 -2.0846 0.0 0
M  V30 27 C 11.6076 -0.5685 0.0 0
M  V30 28 C 10.281 1.6819 0.0 0
M  V30 29 C 12.8868 0.2013 0.0 0
M  V30 30 C 11.5602 2.4518 0.0 0
M  V30 31 O 14.1897 -0.533 0.0 0
M  V30 32 N 12.8631 1.7174 0.0 0
M  V30 END ATOM
M  V30 BEGIN BOND
M  V30 1 2 1 2
M  V30 2 2 1 3
M  V30 3 1 1 4
M  V30 4 1 1 5
M  V30 5 1 4 6
M  V30 6 2 5 7
M  V30 7 1 5 8
M  V30 8 1 6 9
M  V30 9 1 6 10
M  V30 10 1 7 11
M  V30 11 2 8 12
M  V30 12 1 11 13
M  V30 13 2 11 14
M  V30 14 1 14 15
M  V30 15 2 15 16
M  V30 16 1 15 17
M  V30 17 1 16 18
M  V30 18 2 17 19
M  V30 19 2 18 20
M  V30 20 1 19 21
M  V30 21 1 20 22
M  V30 22 2 21 23
M  V30 23 1 21 24
M  V30 24 1 23 25
M  V30 25 2 24 26
M  V30 26 2 25 27
M  V30 27 1 25 28
M  V30 28 1 27 29
M  V30 29 1 28 30
M  V30 30 2 29 31
M  V30 31 1 29 32
M  V30 32 1 9 10
M  V30 33 1 12 14
M  V30 34 1 19 20
M  V30 35 1 26 27
M  V30 36 1 30 32
M  V30 END BOND
M  V30 END CTAB
M  END
>  <Compound ID>
267

>  <Name>


>  <Uniprot>
P49840

>  <Target>
GSK3A

>  <Smiles>
NC1=NC=C(C2=CC=C(S(=O)(=O)NC3CC3)C=C2F)C=C1C1=CC=C2C(=O)NCCC2=C1

>  <Kd (nM)>


>  <Assay (Kd)>


>  <Ki (nM)>


>  <Assay (Ki)>


>  <IC50 (nM)>


>  <Assay (IC50)>


>  <EC50 (nM)>


>  <Assay (EC50)>


>  <Article DOI>
10.1016/j.cell.2020.10.038

>  <Molecular Weight>
452.511

>  <Exact Mass>
452.131839752

>  <XLogP3>
2.69

>  <Heavy Atom Count>
32

>  <Ring Count>
5

>  <Hydrogen Bond Acceptor Count>
5

>  <Hydrogen Bond Donor Count>
3

>  <Rotatable Bond Count>
5

>  <Topological Polar Surface Area>
114.18

>  <Molecular Formula>
C23H21FN4O3S

>  <InChI>
InChI=1S/C23H21FN4O3S/c24-21-11-17(32(30,31)28-16-2-3-16)4-6-18(21)15-10-20(22(25)27-12-15)13-1-5-19-14(9-13)7-8-26-23(19)29/h1,4-6,9-12,16,28H,2-3,7-8H2,(H2,25,27)(H,26,29)

>  <InChI Key>
UZJTTYGNPCEORU-UHFFFAOYSA-N

>  <BindingDB>


>  <PubChem>
122597258

>  <ChEMBL>


$$$$
Compound 965
Actelion Java MolfileCreator 2.0

  0  0  0  0  0  0              0 V3000
M  V30 BEGIN CTAB
M  V30 COUNTS 32 36 0 0 0
M  V30 BEGIN ATOM
M  V30 1 S 0.0 0.0 0.0 0
M  V30 2 O 0.7343 1.3265 0.0 0
M  V30 3 O -0.758 -1.3029 0.0 0
M  V30 4 N -1.3265 0.758 0.0 0
M  V30 5 C 1.3029 -0.7343 0.0 0
M  V30 6 C -2.6294 0.0118 0.0 0
M  V30 7 C 1.3029 -2.2267 0.0 0
M  V30 8 C 2.5821 0.0355 0.0 0
M  V30 9 C -3.3875 -1.291 0.0 0
M  V30 10 C -4.1455 0.0118 0.0 0
M  V30 11 C 2.6058 -2.9611 0.0 0
M  V30 12 C 3.885 -0.6988 0.0 0
M  V30 13 F 2.6058 -4.4535 0.0 0
M  V30 14 C 3.885 -2.1912 0.0 0
M  V30 15 C 5.1879 -2.9256 0.0 0
M  V30 16 C 5.1879 -4.418 0.0 0
M  V30 17 C 6.4671 -2.1557 0.0 0
M  V30 18 N 6.4908 -5.1523 0.0 0
M  V30 19 C 7.77 -2.89 0.0 0
M  V30 20 C 7.77 -4.3824 0.0 0
M  V30 21 C 9.0492 -2.1201 0.0 0
M  V30 22 N 9.0729 -5.1168 0.0 0
M  V30 23 C 9.0255 -0.604 0.0 0
M  V30 24 C 10.3521 -2.8545 0.0 0
M  V30 25 C 10.3047 0.1658 0.0 0
M  V30 26 C 11.6313 -2.0846 0.0 0
M  V30 27 C 11.6076 -0.5685 0.0 0
M  V30 28 C 10.281 1.6819 0.0 0
M  V30 29 C 12.8868 0.2013 0.0 0
M  V30 30 C 11.5602 2.4518 0.0 0
M  V30 31 O 14.1897 -0.533 0.0 0
M  V30 32 N 12.8631 1.7174 0.0 0
M  V30 END ATOM
M  V30 BEGIN BOND
M  V30 1 2 1 2
M  V30 2 2 1 3
M  V30 3 1 1 4
M  V30 4 1 1 5
M  V30 5 1 4 6
M  V30 6 2 5 7
M  V30 7 1 5 8
M  V30 8 1 6 9
M  V30 9 1 6 10
M  V30 10 1 7 11
M  V30 11 2 8 12
M  V30 12 1 11 13
M  V30 13 2 11 14
M  V30 14 1 14 15
M  V30 15 2 15 16
M  V30 16 1 15 17
M  V30 17 1 16 18
M  V30 18 2 17 19
M  V30 19 2 18 20
M  V30 20 1 19 21
M  V30 21 1 20 22
M  V30 22 2 21 23
M  V30 23 1 21 24
M  V30 24 1 23 25
M  V30 25 2 24 26
M  V30 26 2 25 27
M  V30 27 1 25 28
M  V30 28 1 27 29
M  V30 29 1 28 30
M  V30 30 2 29 31
M  V30 31 1 29 32
M  V30 32 1 9 10
M  V30 33 1 12 14
M  V30 34 1 19 20
M  V30 35 1 26 27
M  V30 36 1 30 32
M  V30 END BOND
M  V30 END CTAB
M  END
>  <Compound ID>
267

>  <Name>


>  <Uniprot>
P49841

>  <Target>
GSK-3beta

>  <Smiles>
NC1=NC=C(C2=CC=C(S(=O)(=O)NC3CC3)C=C2F)C=C1C1=CC=C2C(=O)NCCC2=C1

>  <Kd (nM)>


>  <Assay (Kd)>


>  <Ki (nM)>


>  <Assay (Ki)>


>  <IC50 (nM)>


>  <Assay (IC50)>


>  <EC50 (nM)>


>  <Assay (EC50)>


>  <Article DOI>
10.1016/j.cell.2020.10.038

>  <Molecular Weight>
452.511

>  <Exact Mass>
452.131839752

>  <XLogP3>
2.69

>  <Heavy Atom Count>
32

>  <Ring Count>
5

>  <Hydrogen Bond Acceptor Count>
5

>  <Hydrogen Bond Donor Count>
3

>  <Rotatable Bond Count>
5

>  <Topological Polar Surface Area>
114.18

>  <Molecular Formula>
C23H21FN4O3S

>  <InChI>
InChI=1S/C23H21FN4O3S/c24-21-11-17(32(30,31)28-16-2-3-16)4-6-18(21)15-10-20(22(25)27-12-15)13-1-5-19-14(9-13)7-8-26-23(19)29/h1,4-6,9-12,16,28H,2-3,7-8H2,(H2,25,27)(H,26,29)

>  <InChI Key>
UZJTTYGNPCEORU-UHFFFAOYSA-N

>  <BindingDB>


>  <PubChem>
122597258

>  <ChEMBL>


$$$$
Compound 966
Actelion Java MolfileCreator 2.0

  0  0  0  0  0  0              0 V3000
M  V30 BEGIN CTAB
M  V30 COUNTS 32 36 0 0 0
M  V30 BEGIN ATOM
M  V30 1 S 0.0 0.0 0.0 0
M  V30 2 O 0.7343 1.3265 0.0 0
M  V30 3 O -0.758 -1.3029 0.0 0
M  V30 4 N -1.3265 0.758 0.0 0
M  V30 5 C 1.3029 -0.7343 0.0 0
M  V30 6 C -2.6294 0.0118 0.0 0
M  V30 7 C 1.3029 -2.2267 0.0 0
M  V30 8 C 2.5821 0.0355 0.0 0
M  V30 9 C -3.3875 -1.291 0.0 0
M  V30 10 C -4.1455 0.0118 0.0 0
M  V30 11 C 2.6058 -2.9611 0.0 0
M  V30 12 C 3.885 -0.6988 0.0 0
M  V30 13 F 2.6058 -4.4535 0.0 0
M  V30 14 C 3.885 -2.1912 0.0 0
M  V30 15 C 5.1879 -2.9256 0.0 0
M  V30 16 C 5.1879 -4.418 0.0 0
M  V30 17 C 6.4671 -2.1557 0.0 0
M  V30 18 N 6.4908 -5.1523 0.0 0
M  V30 19 C 7.77 -2.89 0.0 0
M  V30 20 C 7.77 -4.3824 0.0 0
M  V30 21 C 9.0492 -2.1201 0.0 0
M  V30 22 N 9.0729 -5.1168 0.0 0
M  V30 23 C 9.0255 -0.604 0.0 0
M  V30 24 C 10.3521 -2.8545 0.0 0
M  V30 25 C 10.3047 0.1658 0.0 0
M  V30 26 C 11.6313 -2.0846 0.0 0
M  V30 27 C 11.6076 -0.5685 0.0 0
M  V30 28 C 10.281 1.6819 0.0 0
M  V30 29 C 12.8868 0.2013 0.0 0
M  V30 30 C 11.5602 2.4518 0.0 0
M  V30 31 O 14.1897 -0.533 0.0 0
M  V30 32 N 12.8631 1.7174 0.0 0
M  V30 END ATOM
M  V30 BEGIN BOND
M  V30 1 2 1 2
M  V30 2 2 1 3
M  V30 3 1 1 4
M  V30 4 1 1 5
M  V30 5 1 4 6
M  V30 6 2 5 7
M  V30 7 1 5 8
M  V30 8 1 6 9
M  V30 9 1 6 10
M  V30 10 1 7 11
M  V30 11 2 8 12
M  V30 12 1 11 13
M  V30 13 2 11 14
M  V30 14 1 14 15
M  V30 15 2 15 16
M  V30 16 1 15 17
M  V30 17 1 16 18
M  V30 18 2 17 19
M  V30 19 2 18 20
M  V30 20 1 19 21
M  V30 21 1 20 22
M  V30 22 2 21 23
M  V30 23 1 21 24
M  V30 24 1 23 25
M  V30 25 2 24 26
M  V30 26 2 25 27
M  V30 27 1 25 28
M  V30 28 1 27 29
M  V30 29 1 28 30
M  V30 30 2 29 31
M  V30 31 1 29 32
M  V30 32 1 9 10
M  V30 33 1 12 14
M  V30 34 1 19 20
M  V30 35 1 26 27
M  V30 36 1 30 32
M  V30 END BOND
M  V30 END CTAB
M  END
>  <Compound ID>
267

>  <Name>


>  <Uniprot>
P53671

>  <Target>
LIMK2

>  <Smiles>
NC1=NC=C(C2=CC=C(S(=O)(=O)NC3CC3)C=C2F)C=C1C1=CC=C2C(=O)NCCC2=C1

>  <Kd (nM)>


>  <Assay (Kd)>


>  <Ki (nM)>


>  <Assay (Ki)>


>  <IC50 (nM)>


>  <Assay (IC50)>


>  <EC50 (nM)>


>  <Assay (EC50)>


>  <Article DOI>
10.1016/j.cell.2020.10.038

>  <Molecular Weight>
452.511

>  <Exact Mass>
452.131839752

>  <XLogP3>
2.69

>  <Heavy Atom Count>
32

>  <Ring Count>
5

>  <Hydrogen Bond Acceptor Count>
5

>  <Hydrogen Bond Donor Count>
3

>  <Rotatable Bond Count>
5

>  <Topological Polar Surface Area>
114.18

>  <Molecular Formula>
C23H21FN4O3S

>  <InChI>
InChI=1S/C23H21FN4O3S/c24-21-11-17(32(30,31)28-16-2-3-16)4-6-18(21)15-10-20(22(25)27-12-15)13-1-5-19-14(9-13)7-8-26-23(19)29/h1,4-6,9-12,16,28H,2-3,7-8H2,(H2,25,27)(H,26,29)

>  <InChI Key>
UZJTTYGNPCEORU-UHFFFAOYSA-N

>  <BindingDB>


>  <PubChem>
122597258

>  <ChEMBL>


$$$$
Compound 967
Actelion Java MolfileCreator 2.0

  0  0  0  0  0  0              0 V3000
M  V30 BEGIN CTAB
M  V30 COUNTS 32 36 0 0 0
M  V30 BEGIN ATOM
M  V30 1 S 0.0 0.0 0.0 0
M  V30 2 O 0.7343 1.3265 0.0 0
M  V30 3 O -0.758 -1.3029 0.0 0
M  V30 4 N -1.3265 0.758 0.0 0
M  V30 5 C 1.3029 -0.7343 0.0 0
M  V30 6 C -2.6294 0.0118 0.0 0
M  V30 7 C 1.3029 -2.2267 0.0 0
M  V30 8 C 2.5821 0.0355 0.0 0
M  V30 9 C -3.3875 -1.291 0.0 0
M  V30 10 C -4.1455 0.0118 0.0 0
M  V30 11 C 2.6058 -2.9611 0.0 0
M  V30 12 C 3.885 -0.6988 0.0 0
M  V30 13 F 2.6058 -4.4535 0.0 0
M  V30 14 C 3.885 -2.1912 0.0 0
M  V30 15 C 5.1879 -2.9256 0.0 0
M  V30 16 C 5.1879 -4.418 0.0 0
M  V30 17 C 6.4671 -2.1557 0.0 0
M  V30 18 N 6.4908 -5.1523 0.0 0
M  V30 19 C 7.77 -2.89 0.0 0
M  V30 20 C 7.77 -4.3824 0.0 0
M  V30 21 C 9.0492 -2.1201 0.0 0
M  V30 22 N 9.0729 -5.1168 0.0 0
M  V30 23 C 9.0255 -0.604 0.0 0
M  V30 24 C 10.3521 -2.8545 0.0 0
M  V30 25 C 10.3047 0.1658 0.0 0
M  V30 26 C 11.6313 -2.0846 0.0 0
M  V30 27 C 11.6076 -0.5685 0.0 0
M  V30 28 C 10.281 1.6819 0.0 0
M  V30 29 C 12.8868 0.2013 0.0 0
M  V30 30 C 11.5602 2.4518 0.0 0
M  V30 31 O 14.1897 -0.533 0.0 0
M  V30 32 N 12.8631 1.7174 0.0 0
M  V30 END ATOM
M  V30 BEGIN BOND
M  V30 1 2 1 2
M  V30 2 2 1 3
M  V30 3 1 1 4
M  V30 4 1 1 5
M  V30 5 1 4 6
M  V30 6 2 5 7
M  V30 7 1 5 8
M  V30 8 1 6 9
M  V30 9 1 6 10
M  V30 10 1 7 11
M  V30 11 2 8 12
M  V30 12 1 11 13
M  V30 13 2 11 14
M  V30 14 1 14 15
M  V30 15 2 15 16
M  V30 16 1 15 17
M  V30 17 1 16 18
M  V30 18 2 17 19
M  V30 19 2 18 20
M  V30 20 1 19 21
M  V30 21 1 20 22
M  V30 22 2 21 23
M  V30 23 1 21 24
M  V30 24 1 23 25
M  V30 25 2 24 26
M  V30 26 2 25 27
M  V30 27 1 25 28
M  V30 28 1 27 29
M  V30 29 1 28 30
M  V30 30 2 29 31
M  V30 31 1 29 32
M  V30 32 1 9 10
M  V30 33 1 12 14
M  V30 34 1 19 20
M  V30 35 1 26 27
M  V30 36 1 30 32
M  V30 END BOND
M  V30 END CTAB
M  END
>  <Compound ID>
267

>  <Name>


>  <Uniprot>
Q13233

>  <Target>
MAP3K1

>  <Smiles>
NC1=NC=C(C2=CC=C(S(=O)(=O)NC3CC3)C=C2F)C=C1C1=CC=C2C(=O)NCCC2=C1

>  <Kd (nM)>


>  <Assay (Kd)>


>  <Ki (nM)>


>  <Assay (Ki)>


>  <IC50 (nM)>


>  <Assay (IC50)>


>  <EC50 (nM)>


>  <Assay (EC50)>


>  <Article DOI>
10.1016/j.cell.2020.10.038

>  <Molecular Weight>
452.511

>  <Exact Mass>
452.131839752

>  <XLogP3>
2.69

>  <Heavy Atom Count>
32

>  <Ring Count>
5

>  <Hydrogen Bond Acceptor Count>
5

>  <Hydrogen Bond Donor Count>
3

>  <Rotatable Bond Count>
5

>  <Topological Polar Surface Area>
114.18

>  <Molecular Formula>
C23H21FN4O3S

>  <InChI>
InChI=1S/C23H21FN4O3S/c24-21-11-17(32(30,31)28-16-2-3-16)4-6-18(21)15-10-20(22(25)27-12-15)13-1-5-19-14(9-13)7-8-26-23(19)29/h1,4-6,9-12,16,28H,2-3,7-8H2,(H2,25,27)(H,26,29)

>  <InChI Key>
UZJTTYGNPCEORU-UHFFFAOYSA-N

>  <BindingDB>


>  <PubChem>
122597258

>  <ChEMBL>


$$$$
Compound 968
Actelion Java MolfileCreator 2.0

  0  0  0  0  0  0              0 V3000
M  V30 BEGIN CTAB
M  V30 COUNTS 32 36 0 0 0
M  V30 BEGIN ATOM
M  V30 1 S 0.0 0.0 0.0 0
M  V30 2 O 0.7343 1.3265 0.0 0
M  V30 3 O -0.758 -1.3029 0.0 0
M  V30 4 N -1.3265 0.758 0.0 0
M  V30 5 C 1.3029 -0.7343 0.0 0
M  V30 6 C -2.6294 0.0118 0.0 0
M  V30 7 C 1.3029 -2.2267 0.0 0
M  V30 8 C 2.5821 0.0355 0.0 0
M  V30 9 C -3.3875 -1.291 0.0 0
M  V30 10 C -4.1455 0.0118 0.0 0
M  V30 11 C 2.6058 -2.9611 0.0 0
M  V30 12 C 3.885 -0.6988 0.0 0
M  V30 13 F 2.6058 -4.4535 0.0 0
M  V30 14 C 3.885 -2.1912 0.0 0
M  V30 15 C 5.1879 -2.9256 0.0 0
M  V30 16 C 5.1879 -4.418 0.0 0
M  V30 17 C 6.4671 -2.1557 0.0 0
M  V30 18 N 6.4908 -5.1523 0.0 0
M  V30 19 C 7.77 -2.89 0.0 0
M  V30 20 C 7.77 -4.3824 0.0 0
M  V30 21 C 9.0492 -2.1201 0.0 0
M  V30 22 N 9.0729 -5.1168 0.0 0
M  V30 23 C 9.0255 -0.604 0.0 0
M  V30 24 C 10.3521 -2.8545 0.0 0
M  V30 25 C 10.3047 0.1658 0.0 0
M  V30 26 C 11.6313 -2.0846 0.0 0
M  V30 27 C 11.6076 -0.5685 0.0 0
M  V30 28 C 10.281 1.6819 0.0 0
M  V30 29 C 12.8868 0.2013 0.0 0
M  V30 30 C 11.5602 2.4518 0.0 0
M  V30 31 O 14.1897 -0.533 0.0 0
M  V30 32 N 12.8631 1.7174 0.0 0
M  V30 END ATOM
M  V30 BEGIN BOND
M  V30 1 2 1 2
M  V30 2 2 1 3
M  V30 3 1 1 4
M  V30 4 1 1 5
M  V30 5 1 4 6
M  V30 6 2 5 7
M  V30 7 1 5 8
M  V30 8 1 6 9
M  V30 9 1 6 10
M  V30 10 1 7 11
M  V30 11 2 8 12
M  V30 12 1 11 13
M  V30 13 2 11 14
M  V30 14 1 14 15
M  V30 15 2 15 16
M  V30 16 1 15 17
M  V30 17 1 16 18
M  V30 18 2 17 19
M  V30 19 2 18 20
M  V30 20 1 19 21
M  V30 21 1 20 22
M  V30 22 2 21 23
M  V30 23 1 21 24
M  V30 24 1 23 25
M  V30 25 2 24 26
M  V30 26 2 25 27
M  V30 27 1 25 28
M  V30 28 1 27 29
M  V30 29 1 28 30
M  V30 30 2 29 31
M  V30 31 1 29 32
M  V30 32 1 9 10
M  V30 33 1 12 14
M  V30 34 1 19 20
M  V30 35 1 26 27
M  V30 36 1 30 32
M  V30 END BOND
M  V30 END CTAB
M  END
>  <Compound ID>
267

>  <Name>


>  <Uniprot>
Q8N4C8

>  <Target>
MINK1

>  <Smiles>
NC1=NC=C(C2=CC=C(S(=O)(=O)NC3CC3)C=C2F)C=C1C1=CC=C2C(=O)NCCC2=C1

>  <Kd (nM)>


>  <Assay (Kd)>


>  <Ki (nM)>


>  <Assay (Ki)>


>  <IC50 (nM)>


>  <Assay (IC50)>


>  <EC50 (nM)>


>  <Assay (EC50)>


>  <Article DOI>
10.1016/j.cell.2020.10.038

>  <Molecular Weight>
452.511

>  <Exact Mass>
452.131839752

>  <XLogP3>
2.69

>  <Heavy Atom Count>
32

>  <Ring Count>
5

>  <Hydrogen Bond Acceptor Count>
5

>  <Hydrogen Bond Donor Count>
3

>  <Rotatable Bond Count>
5

>  <Topological Polar Surface Area>
114.18

>  <Molecular Formula>
C23H21FN4O3S

>  <InChI>
InChI=1S/C23H21FN4O3S/c24-21-11-17(32(30,31)28-16-2-3-16)4-6-18(21)15-10-20(22(25)27-12-15)13-1-5-19-14(9-13)7-8-26-23(19)29/h1,4-6,9-12,16,28H,2-3,7-8H2,(H2,25,27)(H,26,29)

>  <InChI Key>
UZJTTYGNPCEORU-UHFFFAOYSA-N

>  <BindingDB>


>  <PubChem>
122597258

>  <ChEMBL>


$$$$
Compound 969
Actelion Java MolfileCreator 2.0

  0  0  0  0  0  0              0 V3000
M  V30 BEGIN CTAB
M  V30 COUNTS 32 36 0 0 0
M  V30 BEGIN ATOM
M  V30 1 S 0.0 0.0 0.0 0
M  V30 2 O 0.7343 1.3265 0.0 0
M  V30 3 O -0.758 -1.3029 0.0 0
M  V30 4 N -1.3265 0.758 0.0 0
M  V30 5 C 1.3029 -0.7343 0.0 0
M  V30 6 C -2.6294 0.0118 0.0 0
M  V30 7 C 1.3029 -2.2267 0.0 0
M  V30 8 C 2.5821 0.0355 0.0 0
M  V30 9 C -3.3875 -1.291 0.0 0
M  V30 10 C -4.1455 0.0118 0.0 0
M  V30 11 C 2.6058 -2.9611 0.0 0
M  V30 12 C 3.885 -0.6988 0.0 0
M  V30 13 F 2.6058 -4.4535 0.0 0
M  V30 14 C 3.885 -2.1912 0.0 0
M  V30 15 C 5.1879 -2.9256 0.0 0
M  V30 16 C 5.1879 -4.418 0.0 0
M  V30 17 C 6.4671 -2.1557 0.0 0
M  V30 18 N 6.4908 -5.1523 0.0 0
M  V30 19 C 7.77 -2.89 0.0 0
M  V30 20 C 7.77 -4.3824 0.0 0
M  V30 21 C 9.0492 -2.1201 0.0 0
M  V30 22 N 9.0729 -5.1168 0.0 0
M  V30 23 C 9.0255 -0.604 0.0 0
M  V30 24 C 10.3521 -2.8545 0.0 0
M  V30 25 C 10.3047 0.1658 0.0 0
M  V30 26 C 11.6313 -2.0846 0.0 0
M  V30 27 C 11.6076 -0.5685 0.0 0
M  V30 28 C 10.281 1.6819 0.0 0
M  V30 29 C 12.8868 0.2013 0.0 0
M  V30 30 C 11.5602 2.4518 0.0 0
M  V30 31 O 14.1897 -0.533 0.0 0
M  V30 32 N 12.8631 1.7174 0.0 0
M  V30 END ATOM
M  V30 BEGIN BOND
M  V30 1 2 1 2
M  V30 2 2 1 3
M  V30 3 1 1 4
M  V30 4 1 1 5
M  V30 5 1 4 6
M  V30 6 2 5 7
M  V30 7 1 5 8
M  V30 8 1 6 9
M  V30 9 1 6 10
M  V30 10 1 7 11
M  V30 11 2 8 12
M  V30 12 1 11 13
M  V30 13 2 11 14
M  V30 14 1 14 15
M  V30 15 2 15 16
M  V30 16 1 15 17
M  V30 17 1 16 18
M  V30 18 2 17 19
M  V30 19 2 18 20
M  V30 20 1 19 21
M  V30 21 1 20 22
M  V30 22 2 21 23
M  V30 23 1 21 24
M  V30 24 1 23 25
M  V30 25 2 24 26
M  V30 26 2 25 27
M  V30 27 1 25 28
M  V30 28 1 27 29
M  V30 29 1 28 30
M  V30 30 2 29 31
M  V30 31 1 29 32
M  V30 32 1 9 10
M  V30 33 1 12 14
M  V30 34 1 19 20
M  V30 35 1 26 27
M  V30 36 1 30 32
M  V30 END BOND
M  V30 END CTAB
M  END
>  <Compound ID>
267

>  <Name>


>  <Uniprot>
O60285

>  <Target>
NUAK1

>  <Smiles>
NC1=NC=C(C2=CC=C(S(=O)(=O)NC3CC3)C=C2F)C=C1C1=CC=C2C(=O)NCCC2=C1

>  <Kd (nM)>


>  <Assay (Kd)>


>  <Ki (nM)>


>  <Assay (Ki)>


>  <IC50 (nM)>


>  <Assay (IC50)>


>  <EC50 (nM)>


>  <Assay (EC50)>


>  <Article DOI>
10.1016/j.cell.2020.10.038

>  <Molecular Weight>
452.511

>  <Exact Mass>
452.131839752

>  <XLogP3>
2.69

>  <Heavy Atom Count>
32

>  <Ring Count>
5

>  <Hydrogen Bond Acceptor Count>
5

>  <Hydrogen Bond Donor Count>
3

>  <Rotatable Bond Count>
5

>  <Topological Polar Surface Area>
114.18

>  <Molecular Formula>
C23H21FN4O3S

>  <InChI>
InChI=1S/C23H21FN4O3S/c24-21-11-17(32(30,31)28-16-2-3-16)4-6-18(21)15-10-20(22(25)27-12-15)13-1-5-19-14(9-13)7-8-26-23(19)29/h1,4-6,9-12,16,28H,2-3,7-8H2,(H2,25,27)(H,26,29)

>  <InChI Key>
UZJTTYGNPCEORU-UHFFFAOYSA-N

>  <BindingDB>


>  <PubChem>
122597258

>  <ChEMBL>


$$$$
Compound 970
Actelion Java MolfileCreator 2.0

  0  0  0  0  0  0              0 V3000
M  V30 BEGIN CTAB
M  V30 COUNTS 32 36 0 0 0
M  V30 BEGIN ATOM
M  V30 1 S 0.0 0.0 0.0 0
M  V30 2 O 0.7343 1.3265 0.0 0
M  V30 3 O -0.758 -1.3029 0.0 0
M  V30 4 N -1.3265 0.758 0.0 0
M  V30 5 C 1.3029 -0.7343 0.0 0
M  V30 6 C -2.6294 0.0118 0.0 0
M  V30 7 C 1.3029 -2.2267 0.0 0
M  V30 8 C 2.5821 0.0355 0.0 0
M  V30 9 C -3.3875 -1.291 0.0 0
M  V30 10 C -4.1455 0.0118 0.0 0
M  V30 11 C 2.6058 -2.9611 0.0 0
M  V30 12 C 3.885 -0.6988 0.0 0
M  V30 13 F 2.6058 -4.4535 0.0 0
M  V30 14 C 3.885 -2.1912 0.0 0
M  V30 15 C 5.1879 -2.9256 0.0 0
M  V30 16 C 5.1879 -4.418 0.0 0
M  V30 17 C 6.4671 -2.1557 0.0 0
M  V30 18 N 6.4908 -5.1523 0.0 0
M  V30 19 C 7.77 -2.89 0.0 0
M  V30 20 C 7.77 -4.3824 0.0 0
M  V30 21 C 9.0492 -2.1201 0.0 0
M  V30 22 N 9.0729 -5.1168 0.0 0
M  V30 23 C 9.0255 -0.604 0.0 0
M  V30 24 C 10.3521 -2.8545 0.0 0
M  V30 25 C 10.3047 0.1658 0.0 0
M  V30 26 C 11.6313 -2.0846 0.0 0
M  V30 27 C 11.6076 -0.5685 0.0 0
M  V30 28 C 10.281 1.6819 0.0 0
M  V30 29 C 12.8868 0.2013 0.0 0
M  V30 30 C 11.5602 2.4518 0.0 0
M  V30 31 O 14.1897 -0.533 0.0 0
M  V30 32 N 12.8631 1.7174 0.0 0
M  V30 END ATOM
M  V30 BEGIN BOND
M  V30 1 2 1 2
M  V30 2 2 1 3
M  V30 3 1 1 4
M  V30 4 1 1 5
M  V30 5 1 4 6
M  V30 6 2 5 7
M  V30 7 1 5 8
M  V30 8 1 6 9
M  V30 9 1 6 10
M  V30 10 1 7 11
M  V30 11 2 8 12
M  V30 12 1 11 13
M  V30 13 2 11 14
M  V30 14 1 14 15
M  V30 15 2 15 16
M  V30 16 1 15 17
M  V30 17 1 16 18
M  V30 18 2 17 19
M  V30 19 2 18 20
M  V30 20 1 19 21
M  V30 21 1 20 22
M  V30 22 2 21 23
M  V30 23 1 21 24
M  V30 24 1 23 25
M  V30 25 2 24 26
M  V30 26 2 25 27
M  V30 27 1 25 28
M  V30 28 1 27 29
M  V30 29 1 28 30
M  V30 30 2 29 31
M  V30 31 1 29 32
M  V30 32 1 9 10
M  V30 33 1 12 14
M  V30 34 1 19 20
M  V30 35 1 26 27
M  V30 36 1 30 32
M  V30 END BOND
M  V30 END CTAB
M  END
>  <Compound ID>
267

>  <Name>


>  <Uniprot>
O96013

>  <Target>
PAK4

>  <Smiles>
NC1=NC=C(C2=CC=C(S(=O)(=O)NC3CC3)C=C2F)C=C1C1=CC=C2C(=O)NCCC2=C1

>  <Kd (nM)>


>  <Assay (Kd)>


>  <Ki (nM)>


>  <Assay (Ki)>


>  <IC50 (nM)>


>  <Assay (IC50)>


>  <EC50 (nM)>


>  <Assay (EC50)>


>  <Article DOI>
10.1016/j.cell.2020.10.038

>  <Molecular Weight>
452.511

>  <Exact Mass>
452.131839752

>  <XLogP3>
2.69

>  <Heavy Atom Count>
32

>  <Ring Count>
5

>  <Hydrogen Bond Acceptor Count>
5

>  <Hydrogen Bond Donor Count>
3

>  <Rotatable Bond Count>
5

>  <Topological Polar Surface Area>
114.18

>  <Molecular Formula>
C23H21FN4O3S

>  <InChI>
InChI=1S/C23H21FN4O3S/c24-21-11-17(32(30,31)28-16-2-3-16)4-6-18(21)15-10-20(22(25)27-12-15)13-1-5-19-14(9-13)7-8-26-23(19)29/h1,4-6,9-12,16,28H,2-3,7-8H2,(H2,25,27)(H,26,29)

>  <InChI Key>
UZJTTYGNPCEORU-UHFFFAOYSA-N

>  <BindingDB>


>  <PubChem>
122597258

>  <ChEMBL>


$$$$
Compound 971
Actelion Java MolfileCreator 2.0

  0  0  0  0  0  0              0 V3000
M  V30 BEGIN CTAB
M  V30 COUNTS 32 36 0 0 0
M  V30 BEGIN ATOM
M  V30 1 S 0.0 0.0 0.0 0
M  V30 2 O 0.7343 1.3265 0.0 0
M  V30 3 O -0.758 -1.3029 0.0 0
M  V30 4 N -1.3265 0.758 0.0 0
M  V30 5 C 1.3029 -0.7343 0.0 0
M  V30 6 C -2.6294 0.0118 0.0 0
M  V30 7 C 1.3029 -2.2267 0.0 0
M  V30 8 C 2.5821 0.0355 0.0 0
M  V30 9 C -3.3875 -1.291 0.0 0
M  V30 10 C -4.1455 0.0118 0.0 0
M  V30 11 C 2.6058 -2.9611 0.0 0
M  V30 12 C 3.885 -0.6988 0.0 0
M  V30 13 F 2.6058 -4.4535 0.0 0
M  V30 14 C 3.885 -2.1912 0.0 0
M  V30 15 C 5.1879 -2.9256 0.0 0
M  V30 16 C 5.1879 -4.418 0.0 0
M  V30 17 C 6.4671 -2.1557 0.0 0
M  V30 18 N 6.4908 -5.1523 0.0 0
M  V30 19 C 7.77 -2.89 0.0 0
M  V30 20 C 7.77 -4.3824 0.0 0
M  V30 21 C 9.0492 -2.1201 0.0 0
M  V30 22 N 9.0729 -5.1168 0.0 0
M  V30 23 C 9.0255 -0.604 0.0 0
M  V30 24 C 10.3521 -2.8545 0.0 0
M  V30 25 C 10.3047 0.1658 0.0 0
M  V30 26 C 11.6313 -2.0846 0.0 0
M  V30 27 C 11.6076 -0.5685 0.0 0
M  V30 28 C 10.281 1.6819 0.0 0
M  V30 29 C 12.8868 0.2013 0.0 0
M  V30 30 C 11.5602 2.4518 0.0 0
M  V30 31 O 14.1897 -0.533 0.0 0
M  V30 32 N 12.8631 1.7174 0.0 0
M  V30 END ATOM
M  V30 BEGIN BOND
M  V30 1 2 1 2
M  V30 2 2 1 3
M  V30 3 1 1 4
M  V30 4 1 1 5
M  V30 5 1 4 6
M  V30 6 2 5 7
M  V30 7 1 5 8
M  V30 8 1 6 9
M  V30 9 1 6 10
M  V30 10 1 7 11
M  V30 11 2 8 12
M  V30 12 1 11 13
M  V30 13 2 11 14
M  V30 14 1 14 15
M  V30 15 2 15 16
M  V30 16 1 15 17
M  V30 17 1 16 18
M  V30 18 2 17 19
M  V30 19 2 18 20
M  V30 20 1 19 21
M  V30 21 1 20 22
M  V30 22 2 21 23
M  V30 23 1 21 24
M  V30 24 1 23 25
M  V30 25 2 24 26
M  V30 26 2 25 27
M  V30 27 1 25 28
M  V30 28 1 27 29
M  V30 29 1 28 30
M  V30 30 2 29 31
M  V30 31 1 29 32
M  V30 32 1 9 10
M  V30 33 1 12 14
M  V30 34 1 19 20
M  V30 35 1 26 27
M  V30 36 1 30 32
M  V30 END BOND
M  V30 END CTAB
M  END
>  <Compound ID>
267

>  <Name>


>  <Uniprot>
Q9P1W9

>  <Target>
PIM2

>  <Smiles>
NC1=NC=C(C2=CC=C(S(=O)(=O)NC3CC3)C=C2F)C=C1C1=CC=C2C(=O)NCCC2=C1

>  <Kd (nM)>


>  <Assay (Kd)>


>  <Ki (nM)>


>  <Assay (Ki)>


>  <IC50 (nM)>


>  <Assay (IC50)>


>  <EC50 (nM)>


>  <Assay (EC50)>


>  <Article DOI>
10.1016/j.cell.2020.10.038

>  <Molecular Weight>
452.511

>  <Exact Mass>
452.131839752

>  <XLogP3>
2.69

>  <Heavy Atom Count>
32

>  <Ring Count>
5

>  <Hydrogen Bond Acceptor Count>
5

>  <Hydrogen Bond Donor Count>
3

>  <Rotatable Bond Count>
5

>  <Topological Polar Surface Area>
114.18

>  <Molecular Formula>
C23H21FN4O3S

>  <InChI>
InChI=1S/C23H21FN4O3S/c24-21-11-17(32(30,31)28-16-2-3-16)4-6-18(21)15-10-20(22(25)27-12-15)13-1-5-19-14(9-13)7-8-26-23(19)29/h1,4-6,9-12,16,28H,2-3,7-8H2,(H2,25,27)(H,26,29)

>  <InChI Key>
UZJTTYGNPCEORU-UHFFFAOYSA-N

>  <BindingDB>


>  <PubChem>
122597258

>  <ChEMBL>


$$$$
Compound 972
Actelion Java MolfileCreator 2.0

  0  0  0  0  0  0              0 V3000
M  V30 BEGIN CTAB
M  V30 COUNTS 32 36 0 0 0
M  V30 BEGIN ATOM
M  V30 1 S 0.0 0.0 0.0 0
M  V30 2 O 0.7343 1.3265 0.0 0
M  V30 3 O -0.758 -1.3029 0.0 0
M  V30 4 N -1.3265 0.758 0.0 0
M  V30 5 C 1.3029 -0.7343 0.0 0
M  V30 6 C -2.6294 0.0118 0.0 0
M  V30 7 C 1.3029 -2.2267 0.0 0
M  V30 8 C 2.5821 0.0355 0.0 0
M  V30 9 C -3.3875 -1.291 0.0 0
M  V30 10 C -4.1455 0.0118 0.0 0
M  V30 11 C 2.6058 -2.9611 0.0 0
M  V30 12 C 3.885 -0.6988 0.0 0
M  V30 13 F 2.6058 -4.4535 0.0 0
M  V30 14 C 3.885 -2.1912 0.0 0
M  V30 15 C 5.1879 -2.9256 0.0 0
M  V30 16 C 5.1879 -4.418 0.0 0
M  V30 17 C 6.4671 -2.1557 0.0 0
M  V30 18 N 6.4908 -5.1523 0.0 0
M  V30 19 C 7.77 -2.89 0.0 0
M  V30 20 C 7.77 -4.3824 0.0 0
M  V30 21 C 9.0492 -2.1201 0.0 0
M  V30 22 N 9.0729 -5.1168 0.0 0
M  V30 23 C 9.0255 -0.604 0.0 0
M  V30 24 C 10.3521 -2.8545 0.0 0
M  V30 25 C 10.3047 0.1658 0.0 0
M  V30 26 C 11.6313 -2.0846 0.0 0
M  V30 27 C 11.6076 -0.5685 0.0 0
M  V30 28 C 10.281 1.6819 0.0 0
M  V30 29 C 12.8868 0.2013 0.0 0
M  V30 30 C 11.5602 2.4518 0.0 0
M  V30 31 O 14.1897 -0.533 0.0 0
M  V30 32 N 12.8631 1.7174 0.0 0
M  V30 END ATOM
M  V30 BEGIN BOND
M  V30 1 2 1 2
M  V30 2 2 1 3
M  V30 3 1 1 4
M  V30 4 1 1 5
M  V30 5 1 4 6
M  V30 6 2 5 7
M  V30 7 1 5 8
M  V30 8 1 6 9
M  V30 9 1 6 10
M  V30 10 1 7 11
M  V30 11 2 8 12
M  V30 12 1 11 13
M  V30 13 2 11 14
M  V30 14 1 14 15
M  V30 15 2 15 16
M  V30 16 1 15 17
M  V30 17 1 16 18
M  V30 18 2 17 19
M  V30 19 2 18 20
M  V30 20 1 19 21
M  V30 21 1 20 22
M  V30 22 2 21 23
M  V30 23 1 21 24
M  V30 24 1 23 25
M  V30 25 2 24 26
M  V30 26 2 25 27
M  V30 27 1 25 28
M  V30 28 1 27 29
M  V30 29 1 28 30
M  V30 30 2 29 31
M  V30 31 1 29 32
M  V30 32 1 9 10
M  V30 33 1 12 14
M  V30 34 1 19 20
M  V30 35 1 26 27
M  V30 36 1 30 32
M  V30 END BOND
M  V30 END CTAB
M  END
>  <Compound ID>
267

>  <Name>


>  <Uniprot>
O94804

>  <Target>
STK10

>  <Smiles>
NC1=NC=C(C2=CC=C(S(=O)(=O)NC3CC3)C=C2F)C=C1C1=CC=C2C(=O)NCCC2=C1

>  <Kd (nM)>


>  <Assay (Kd)>


>  <Ki (nM)>


>  <Assay (Ki)>


>  <IC50 (nM)>


>  <Assay (IC50)>


>  <EC50 (nM)>


>  <Assay (EC50)>


>  <Article DOI>
10.1016/j.cell.2020.10.038

>  <Molecular Weight>
452.511

>  <Exact Mass>
452.131839752

>  <XLogP3>
2.69

>  <Heavy Atom Count>
32

>  <Ring Count>
5

>  <Hydrogen Bond Acceptor Count>
5

>  <Hydrogen Bond Donor Count>
3

>  <Rotatable Bond Count>
5

>  <Topological Polar Surface Area>
114.18

>  <Molecular Formula>
C23H21FN4O3S

>  <InChI>
InChI=1S/C23H21FN4O3S/c24-21-11-17(32(30,31)28-16-2-3-16)4-6-18(21)15-10-20(22(25)27-12-15)13-1-5-19-14(9-13)7-8-26-23(19)29/h1,4-6,9-12,16,28H,2-3,7-8H2,(H2,25,27)(H,26,29)

>  <InChI Key>
UZJTTYGNPCEORU-UHFFFAOYSA-N

>  <BindingDB>


>  <PubChem>
122597258

>  <ChEMBL>


$$$$
Compound 973
Actelion Java MolfileCreator 2.0

  0  0  0  0  0  0              0 V3000
M  V30 BEGIN CTAB
M  V30 COUNTS 32 36 0 0 0
M  V30 BEGIN ATOM
M  V30 1 S 0.0 0.0 0.0 0
M  V30 2 O 0.7343 1.3265 0.0 0
M  V30 3 O -0.758 -1.3029 0.0 0
M  V30 4 N -1.3265 0.758 0.0 0
M  V30 5 C 1.3029 -0.7343 0.0 0
M  V30 6 C -2.6294 0.0118 0.0 0
M  V30 7 C 1.3029 -2.2267 0.0 0
M  V30 8 C 2.5821 0.0355 0.0 0
M  V30 9 C -3.3875 -1.291 0.0 0
M  V30 10 C -4.1455 0.0118 0.0 0
M  V30 11 C 2.6058 -2.9611 0.0 0
M  V30 12 C 3.885 -0.6988 0.0 0
M  V30 13 F 2.6058 -4.4535 0.0 0
M  V30 14 C 3.885 -2.1912 0.0 0
M  V30 15 C 5.1879 -2.9256 0.0 0
M  V30 16 C 5.1879 -4.418 0.0 0
M  V30 17 C 6.4671 -2.1557 0.0 0
M  V30 18 N 6.4908 -5.1523 0.0 0
M  V30 19 C 7.77 -2.89 0.0 0
M  V30 20 C 7.77 -4.3824 0.0 0
M  V30 21 C 9.0492 -2.1201 0.0 0
M  V30 22 N 9.0729 -5.1168 0.0 0
M  V30 23 C 9.0255 -0.604 0.0 0
M  V30 24 C 10.3521 -2.8545 0.0 0
M  V30 25 C 10.3047 0.1658 0.0 0
M  V30 26 C 11.6313 -2.0846 0.0 0
M  V30 27 C 11.6076 -0.5685 0.0 0
M  V30 28 C 10.281 1.6819 0.0 0
M  V30 29 C 12.8868 0.2013 0.0 0
M  V30 30 C 11.5602 2.4518 0.0 0
M  V30 31 O 14.1897 -0.533 0.0 0
M  V30 32 N 12.8631 1.7174 0.0 0
M  V30 END ATOM
M  V30 BEGIN BOND
M  V30 1 2 1 2
M  V30 2 2 1 3
M  V30 3 1 1 4
M  V30 4 1 1 5
M  V30 5 1 4 6
M  V30 6 2 5 7
M  V30 7 1 5 8
M  V30 8 1 6 9
M  V30 9 1 6 10
M  V30 10 1 7 11
M  V30 11 2 8 12
M  V30 12 1 11 13
M  V30 13 2 11 14
M  V30 14 1 14 15
M  V30 15 2 15 16
M  V30 16 1 15 17
M  V30 17 1 16 18
M  V30 18 2 17 19
M  V30 19 2 18 20
M  V30 20 1 19 21
M  V30 21 1 20 22
M  V30 22 2 21 23
M  V30 23 1 21 24
M  V30 24 1 23 25
M  V30 25 2 24 26
M  V30 26 2 25 27
M  V30 27 1 25 28
M  V30 28 1 27 29
M  V30 29 1 28 30
M  V30 30 2 29 31
M  V30 31 1 29 32
M  V30 32 1 9 10
M  V30 33 1 12 14
M  V30 34 1 19 20
M  V30 35 1 26 27
M  V30 36 1 30 32
M  V30 END BOND
M  V30 END CTAB
M  END
>  <Compound ID>
267

>  <Name>


>  <Uniprot>
O94768

>  <Target>
STK17B

>  <Smiles>
NC1=NC=C(C2=CC=C(S(=O)(=O)NC3CC3)C=C2F)C=C1C1=CC=C2C(=O)NCCC2=C1

>  <Kd (nM)>


>  <Assay (Kd)>


>  <Ki (nM)>


>  <Assay (Ki)>


>  <IC50 (nM)>


>  <Assay (IC50)>


>  <EC50 (nM)>


>  <Assay (EC50)>


>  <Article DOI>
10.1016/j.cell.2020.10.038

>  <Molecular Weight>
452.511

>  <Exact Mass>
452.131839752

>  <XLogP3>
2.69

>  <Heavy Atom Count>
32

>  <Ring Count>
5

>  <Hydrogen Bond Acceptor Count>
5

>  <Hydrogen Bond Donor Count>
3

>  <Rotatable Bond Count>
5

>  <Topological Polar Surface Area>
114.18

>  <Molecular Formula>
C23H21FN4O3S

>  <InChI>
InChI=1S/C23H21FN4O3S/c24-21-11-17(32(30,31)28-16-2-3-16)4-6-18(21)15-10-20(22(25)27-12-15)13-1-5-19-14(9-13)7-8-26-23(19)29/h1,4-6,9-12,16,28H,2-3,7-8H2,(H2,25,27)(H,26,29)

>  <InChI Key>
UZJTTYGNPCEORU-UHFFFAOYSA-N

>  <BindingDB>


>  <PubChem>
122597258

>  <ChEMBL>


$$$$
Compound 974
Actelion Java MolfileCreator 2.0

  0  0  0  0  0  0              0 V3000
M  V30 BEGIN CTAB
M  V30 COUNTS 32 36 0 0 0
M  V30 BEGIN ATOM
M  V30 1 S 0.0 0.0 0.0 0
M  V30 2 O 0.7343 1.3265 0.0 0
M  V30 3 O -0.758 -1.3029 0.0 0
M  V30 4 N -1.3265 0.758 0.0 0
M  V30 5 C 1.3029 -0.7343 0.0 0
M  V30 6 C -2.6294 0.0118 0.0 0
M  V30 7 C 1.3029 -2.2267 0.0 0
M  V30 8 C 2.5821 0.0355 0.0 0
M  V30 9 C -3.3875 -1.291 0.0 0
M  V30 10 C -4.1455 0.0118 0.0 0
M  V30 11 C 2.6058 -2.9611 0.0 0
M  V30 12 C 3.885 -0.6988 0.0 0
M  V30 13 F 2.6058 -4.4535 0.0 0
M  V30 14 C 3.885 -2.1912 0.0 0
M  V30 15 C 5.1879 -2.9256 0.0 0
M  V30 16 C 5.1879 -4.418 0.0 0
M  V30 17 C 6.4671 -2.1557 0.0 0
M  V30 18 N 6.4908 -5.1523 0.0 0
M  V30 19 C 7.77 -2.89 0.0 0
M  V30 20 C 7.77 -4.3824 0.0 0
M  V30 21 C 9.0492 -2.1201 0.0 0
M  V30 22 N 9.0729 -5.1168 0.0 0
M  V30 23 C 9.0255 -0.604 0.0 0
M  V30 24 C 10.3521 -2.8545 0.0 0
M  V30 25 C 10.3047 0.1658 0.0 0
M  V30 26 C 11.6313 -2.0846 0.0 0
M  V30 27 C 11.6076 -0.5685 0.0 0
M  V30 28 C 10.281 1.6819 0.0 0
M  V30 29 C 12.8868 0.2013 0.0 0
M  V30 30 C 11.5602 2.4518 0.0 0
M  V30 31 O 14.1897 -0.533 0.0 0
M  V30 32 N 12.8631 1.7174 0.0 0
M  V30 END ATOM
M  V30 BEGIN BOND
M  V30 1 2 1 2
M  V30 2 2 1 3
M  V30 3 1 1 4
M  V30 4 1 1 5
M  V30 5 1 4 6
M  V30 6 2 5 7
M  V30 7 1 5 8
M  V30 8 1 6 9
M  V30 9 1 6 10
M  V30 10 1 7 11
M  V30 11 2 8 12
M  V30 12 1 11 13
M  V30 13 2 11 14
M  V30 14 1 14 15
M  V30 15 2 15 16
M  V30 16 1 15 17
M  V30 17 1 16 18
M  V30 18 2 17 19
M  V30 19 2 18 20
M  V30 20 1 19 21
M  V30 21 1 20 22
M  V30 22 2 21 23
M  V30 23 1 21 24
M  V30 24 1 23 25
M  V30 25 2 24 26
M  V30 26 2 25 27
M  V30 27 1 25 28
M  V30 28 1 27 29
M  V30 29 1 28 30
M  V30 30 2 29 31
M  V30 31 1 29 32
M  V30 32 1 9 10
M  V30 33 1 12 14
M  V30 34 1 19 20
M  V30 35 1 26 27
M  V30 36 1 30 32
M  V30 END BOND
M  V30 END CTAB
M  END
>  <Compound ID>
267

>  <Name>


>  <Uniprot>
Q8TDR2

>  <Target>
STK35

>  <Smiles>
NC1=NC=C(C2=CC=C(S(=O)(=O)NC3CC3)C=C2F)C=C1C1=CC=C2C(=O)NCCC2=C1

>  <Kd (nM)>


>  <Assay (Kd)>


>  <Ki (nM)>


>  <Assay (Ki)>


>  <IC50 (nM)>


>  <Assay (IC50)>


>  <EC50 (nM)>


>  <Assay (EC50)>


>  <Article DOI>
10.1016/j.cell.2020.10.038

>  <Molecular Weight>
452.511

>  <Exact Mass>
452.131839752

>  <XLogP3>
2.69

>  <Heavy Atom Count>
32

>  <Ring Count>
5

>  <Hydrogen Bond Acceptor Count>
5

>  <Hydrogen Bond Donor Count>
3

>  <Rotatable Bond Count>
5

>  <Topological Polar Surface Area>
114.18

>  <Molecular Formula>
C23H21FN4O3S

>  <InChI>
InChI=1S/C23H21FN4O3S/c24-21-11-17(32(30,31)28-16-2-3-16)4-6-18(21)15-10-20(22(25)27-12-15)13-1-5-19-14(9-13)7-8-26-23(19)29/h1,4-6,9-12,16,28H,2-3,7-8H2,(H2,25,27)(H,26,29)

>  <InChI Key>
UZJTTYGNPCEORU-UHFFFAOYSA-N

>  <BindingDB>


>  <PubChem>
122597258

>  <ChEMBL>


$$$$
Compound 975
Actelion Java MolfileCreator 2.0

  0  0  0  0  0  0              0 V3000
M  V30 BEGIN CTAB
M  V30 COUNTS 32 36 0 0 0
M  V30 BEGIN ATOM
M  V30 1 S 0.0 0.0 0.0 0
M  V30 2 O 0.7343 1.3265 0.0 0
M  V30 3 O -0.758 -1.3029 0.0 0
M  V30 4 N -1.3265 0.758 0.0 0
M  V30 5 C 1.3029 -0.7343 0.0 0
M  V30 6 C -2.6294 0.0118 0.0 0
M  V30 7 C 1.3029 -2.2267 0.0 0
M  V30 8 C 2.5821 0.0355 0.0 0
M  V30 9 C -3.3875 -1.291 0.0 0
M  V30 10 C -4.1455 0.0118 0.0 0
M  V30 11 C 2.6058 -2.9611 0.0 0
M  V30 12 C 3.885 -0.6988 0.0 0
M  V30 13 F 2.6058 -4.4535 0.0 0
M  V30 14 C 3.885 -2.1912 0.0 0
M  V30 15 C 5.1879 -2.9256 0.0 0
M  V30 16 C 5.1879 -4.418 0.0 0
M  V30 17 C 6.4671 -2.1557 0.0 0
M  V30 18 N 6.4908 -5.1523 0.0 0
M  V30 19 C 7.77 -2.89 0.0 0
M  V30 20 C 7.77 -4.3824 0.0 0
M  V30 21 C 9.0492 -2.1201 0.0 0
M  V30 22 N 9.0729 -5.1168 0.0 0
M  V30 23 C 9.0255 -0.604 0.0 0
M  V30 24 C 10.3521 -2.8545 0.0 0
M  V30 25 C 10.3047 0.1658 0.0 0
M  V30 26 C 11.6313 -2.0846 0.0 0
M  V30 27 C 11.6076 -0.5685 0.0 0
M  V30 28 C 10.281 1.6819 0.0 0
M  V30 29 C 12.8868 0.2013 0.0 0
M  V30 30 C 11.5602 2.4518 0.0 0
M  V30 31 O 14.1897 -0.533 0.0 0
M  V30 32 N 12.8631 1.7174 0.0 0
M  V30 END ATOM
M  V30 BEGIN BOND
M  V30 1 2 1 2
M  V30 2 2 1 3
M  V30 3 1 1 4
M  V30 4 1 1 5
M  V30 5 1 4 6
M  V30 6 2 5 7
M  V30 7 1 5 8
M  V30 8 1 6 9
M  V30 9 1 6 10
M  V30 10 1 7 11
M  V30 11 2 8 12
M  V30 12 1 11 13
M  V30 13 2 11 14
M  V30 14 1 14 15
M  V30 15 2 15 16
M  V30 16 1 15 17
M  V30 17 1 16 18
M  V30 18 2 17 19
M  V30 19 2 18 20
M  V30 20 1 19 21
M  V30 21 1 20 22
M  V30 22 2 21 23
M  V30 23 1 21 24
M  V30 24 1 23 25
M  V30 25 2 24 26
M  V30 26 2 25 27
M  V30 27 1 25 28
M  V30 28 1 27 29
M  V30 29 1 28 30
M  V30 30 2 29 31
M  V30 31 1 29 32
M  V30 32 1 9 10
M  V30 33 1 12 14
M  V30 34 1 19 20
M  V30 35 1 26 27
M  V30 36 1 30 32
M  V30 END BOND
M  V30 END CTAB
M  END
>  <Compound ID>
267

>  <Name>


>  <Uniprot>
Q13043

>  <Target>
STK4

>  <Smiles>
NC1=NC=C(C2=CC=C(S(=O)(=O)NC3CC3)C=C2F)C=C1C1=CC=C2C(=O)NCCC2=C1

>  <Kd (nM)>


>  <Assay (Kd)>


>  <Ki (nM)>


>  <Assay (Ki)>


>  <IC50 (nM)>


>  <Assay (IC50)>


>  <EC50 (nM)>


>  <Assay (EC50)>


>  <Article DOI>


>  <Molecular Weight>
452.511

>  <Exact Mass>
452.131839752

>  <XLogP3>
2.69

>  <Heavy Atom Count>
32

>  <Ring Count>
5

>  <Hydrogen Bond Acceptor Count>
5

>  <Hydrogen Bond Donor Count>
3

>  <Rotatable Bond Count>
5

>  <Topological Polar Surface Area>
114.18

>  <Molecular Formula>
C23H21FN4O3S

>  <InChI>
InChI=1S/C23H21FN4O3S/c24-21-11-17(32(30,31)28-16-2-3-16)4-6-18(21)15-10-20(22(25)27-12-15)13-1-5-19-14(9-13)7-8-26-23(19)29/h1,4-6,9-12,16,28H,2-3,7-8H2,(H2,25,27)(H,26,29)

>  <InChI Key>
UZJTTYGNPCEORU-UHFFFAOYSA-N

>  <BindingDB>


>  <PubChem>
122597258

>  <ChEMBL>


$$$$
Compound 976
Actelion Java MolfileCreator 2.0

  0  0  0  0  0  0              0 V3000
M  V30 BEGIN CTAB
M  V30 COUNTS 11 11 0 0 0
M  V30 BEGIN ATOM
M  V30 1 O 0.0 0.0 0.0 0
M  V30 2 C -0.8358 -1.236 0.0 0
M  V30 3 N -0.1765 -2.5663 0.0 0
M  V30 4 C -2.3426 -1.1419 0.0 0
M  V30 5 O 1.3067 -2.6369 0.0 0
M  V30 6 C -3.1784 -2.3779 0.0 0
M  V30 7 C -3.0254 0.2118 0.0 0
M  V30 8 C -4.6853 -2.2838 0.0 0
M  V30 9 C -4.5322 0.306 0.0 0
M  V30 10 C -5.3681 -0.93 0.0 0
M  V30 11 C -5.5211 -3.5198 0.0 0
M  V30 END ATOM
M  V30 BEGIN BOND
M  V30 1 2 1 2
M  V30 2 1 2 3
M  V30 3 1 2 4
M  V30 4 1 3 5
M  V30 5 2 4 6
M  V30 6 1 4 7
M  V30 7 1 6 8
M  V30 8 2 7 9
M  V30 9 2 8 10
M  V30 10 1 8 11
M  V30 11 1 9 10
M  V30 END BOND
M  V30 END CTAB
M  END
>  <Compound ID>
268

>  <Name>


>  <Uniprot>
Q9UBN7

>  <Target>
HDAC6

>  <Smiles>
CC1=CC=CC(C(=O)NO)=C1

>  <Kd (nM)>


>  <Assay (Kd)>


>  <Ki (nM)>


>  <Assay (Ki)>


>  <IC50 (nM)>
650

>  <Assay (IC50)>
IC50 was assessed by fluorescence assay

>  <EC50 (nM)>


>  <Assay (EC50)>


>  <Article DOI>
10.1021/jm400390r

>  <Molecular Weight>
151.165

>  <Exact Mass>
151.063328528

>  <XLogP3>
1.63

>  <Heavy Atom Count>
11

>  <Ring Count>
1

>  <Hydrogen Bond Acceptor Count>
2

>  <Hydrogen Bond Donor Count>
2

>  <Rotatable Bond Count>
1

>  <Topological Polar Surface Area>
49.33

>  <Molecular Formula>
C8H9NO2

>  <InChI>
InChI=1S/C8H9NO2/c1-6-3-2-4-7(5-6)8(10)9-11/h2-5,11H,1H3,(H,9,10)

>  <InChI Key>
HMIQPPRQWABYPJ-UHFFFAOYSA-N

>  <BindingDB>


>  <PubChem>
4288771

>  <ChEMBL>
CHEMBL2381522

$$$$
Compound 977
Actelion Java MolfileCreator 2.0

  0  0  0  0  0  0              0 V3000
M  V30 BEGIN CTAB
M  V30 COUNTS 11 11 0 0 0
M  V30 BEGIN ATOM
M  V30 1 O 0.0 0.0 0.0 0
M  V30 2 C -0.8358 -1.236 0.0 0
M  V30 3 N -0.1765 -2.5663 0.0 0
M  V30 4 C -2.3426 -1.1419 0.0 0
M  V30 5 O 1.3067 -2.6369 0.0 0
M  V30 6 C -3.1784 -2.3779 0.0 0
M  V30 7 C -3.0254 0.2118 0.0 0
M  V30 8 C -4.6853 -2.2838 0.0 0
M  V30 9 C -4.5322 0.306 0.0 0
M  V30 10 C -5.3681 -0.93 0.0 0
M  V30 11 C -5.5211 -3.5198 0.0 0
M  V30 END ATOM
M  V30 BEGIN BOND
M  V30 1 2 1 2
M  V30 2 1 2 3
M  V30 3 1 2 4
M  V30 4 1 3 5
M  V30 5 2 4 6
M  V30 6 1 4 7
M  V30 7 1 6 8
M  V30 8 2 7 9
M  V30 9 2 8 10
M  V30 10 1 8 11
M  V30 11 1 9 10
M  V30 END BOND
M  V30 END CTAB
M  END
>  <Compound ID>
268

>  <Name>


>  <Uniprot>
Q9BY41

>  <Target>
HDAC8

>  <Smiles>
CC1=CC=CC(C(=O)NO)=C1

>  <Kd (nM)>


>  <Assay (Kd)>


>  <Ki (nM)>


>  <Assay (Ki)>


>  <IC50 (nM)>
3300

>  <Assay (IC50)>
IC50 was assessed by fluorescence assay

>  <EC50 (nM)>


>  <Assay (EC50)>


>  <Article DOI>
10.1021/jm400390r

>  <Molecular Weight>
151.165

>  <Exact Mass>
151.063328528

>  <XLogP3>
1.63

>  <Heavy Atom Count>
11

>  <Ring Count>
1

>  <Hydrogen Bond Acceptor Count>
2

>  <Hydrogen Bond Donor Count>
2

>  <Rotatable Bond Count>
1

>  <Topological Polar Surface Area>
49.33

>  <Molecular Formula>
C8H9NO2

>  <InChI>
InChI=1S/C8H9NO2/c1-6-3-2-4-7(5-6)8(10)9-11/h2-5,11H,1H3,(H,9,10)

>  <InChI Key>
HMIQPPRQWABYPJ-UHFFFAOYSA-N

>  <BindingDB>


>  <PubChem>
4288771

>  <ChEMBL>
CHEMBL2381522

$$$$
Compound 978
Actelion Java MolfileCreator 2.0

  0  0  0  0  0  0              0 V3000
M  V30 BEGIN CTAB
M  V30 COUNTS 14 14 0 0 0
M  V30 BEGIN ATOM
M  V30 1 O 0.0 0.0 0.0 0
M  V30 2 C -1.218 -0.8666 0.0 0
M  V30 3 N -1.0775 -2.3424 0.0 0
M  V30 4 C -2.6 -0.2459 0.0 0
M  V30 5 O 0.281 -2.9397 0.0 0
M  V30 6 C -3.8181 -1.1126 0.0 0
M  V30 7 C -2.764 1.2532 0.0 0
M  V30 8 C -5.2001 -0.4919 0.0 0
M  V30 9 C -4.1461 1.8739 0.0 0
M  V30 10 C -6.4182 -1.3586 0.0 0
M  V30 11 C -5.3641 1.0072 0.0 0
M  V30 12 O -6.2777 -2.8343 0.0 0
M  V30 13 N -7.8002 -0.7378 0.0 0
M  V30 14 C -9.0183 -1.6045 0.0 0
M  V30 END ATOM
M  V30 BEGIN BOND
M  V30 1 2 1 2
M  V30 2 1 2 3
M  V30 3 1 2 4
M  V30 4 1 3 5
M  V30 5 2 4 6
M  V30 6 1 4 7
M  V30 7 1 6 8
M  V30 8 2 7 9
M  V30 9 1 8 10
M  V30 10 2 8 11
M  V30 11 2 10 12
M  V30 12 1 10 13
M  V30 13 1 13 14
M  V30 14 1 9 11
M  V30 END BOND
M  V30 END CTAB
M  END
>  <Compound ID>
269

>  <Name>


>  <Uniprot>
Q9UBN7

>  <Target>
HDAC6

>  <Smiles>
CNC(=O)C1=CC=CC(C(=O)NO)=C1

>  <Kd (nM)>


>  <Assay (Kd)>


>  <Ki (nM)>


>  <Assay (Ki)>


>  <IC50 (nM)>
2500

>  <Assay (IC50)>
IC50 was assessed by fluorescence assay

>  <EC50 (nM)>


>  <Assay (EC50)>


>  <Article DOI>
10.1021/jm400390r

>  <Molecular Weight>
194.19

>  <Exact Mass>
194.06914218

>  <XLogP3>
-0.46

>  <Heavy Atom Count>
14

>  <Ring Count>
1

>  <Hydrogen Bond Acceptor Count>
3

>  <Hydrogen Bond Donor Count>
3

>  <Rotatable Bond Count>
2

>  <Topological Polar Surface Area>
78.43

>  <Molecular Formula>
C9H10N2O3

>  <InChI>
InChI=1S/C9H10N2O3/c1-10-8(12)6-3-2-4-7(5-6)9(13)11-14/h2-5,14H,1H3,(H,10,12)(H,11,13)

>  <InChI Key>
OTVCGIWBAYNHOW-UHFFFAOYSA-N

>  <BindingDB>


>  <PubChem>
71680917

>  <ChEMBL>
CHEMBL2381521

$$$$
Compound 979
Actelion Java MolfileCreator 2.0

  0  0  0  0  0  0              0 V3000
M  V30 BEGIN CTAB
M  V30 COUNTS 14 14 0 0 0
M  V30 BEGIN ATOM
M  V30 1 O 0.0 0.0 0.0 0
M  V30 2 C -1.218 -0.8666 0.0 0
M  V30 3 N -1.0775 -2.3424 0.0 0
M  V30 4 C -2.6 -0.2459 0.0 0
M  V30 5 O 0.281 -2.9397 0.0 0
M  V30 6 C -3.8181 -1.1126 0.0 0
M  V30 7 C -2.764 1.2532 0.0 0
M  V30 8 C -5.2001 -0.4919 0.0 0
M  V30 9 C -4.1461 1.8739 0.0 0
M  V30 10 C -6.4182 -1.3586 0.0 0
M  V30 11 C -5.3641 1.0072 0.0 0
M  V30 12 O -6.2777 -2.8343 0.0 0
M  V30 13 N -7.8002 -0.7378 0.0 0
M  V30 14 C -9.0183 -1.6045 0.0 0
M  V30 END ATOM
M  V30 BEGIN BOND
M  V30 1 2 1 2
M  V30 2 1 2 3
M  V30 3 1 2 4
M  V30 4 1 3 5
M  V30 5 2 4 6
M  V30 6 1 4 7
M  V30 7 1 6 8
M  V30 8 2 7 9
M  V30 9 1 8 10
M  V30 10 2 8 11
M  V30 11 2 10 12
M  V30 12 1 10 13
M  V30 13 1 13 14
M  V30 14 1 9 11
M  V30 END BOND
M  V30 END CTAB
M  END
>  <Compound ID>
269

>  <Name>


>  <Uniprot>
Q9BY41

>  <Target>
HDAC8

>  <Smiles>
CNC(=O)C1=CC=CC(C(=O)NO)=C1

>  <Kd (nM)>


>  <Assay (Kd)>


>  <Ki (nM)>


>  <Assay (Ki)>


>  <IC50 (nM)>
14000

>  <Assay (IC50)>
IC50 was assessed by fluorescence assay

>  <EC50 (nM)>


>  <Assay (EC50)>


>  <Article DOI>
10.1021/jm400390r

>  <Molecular Weight>
194.19

>  <Exact Mass>
194.06914218

>  <XLogP3>
-0.46

>  <Heavy Atom Count>
14

>  <Ring Count>
1

>  <Hydrogen Bond Acceptor Count>
3

>  <Hydrogen Bond Donor Count>
3

>  <Rotatable Bond Count>
2

>  <Topological Polar Surface Area>
78.43

>  <Molecular Formula>
C9H10N2O3

>  <InChI>
InChI=1S/C9H10N2O3/c1-10-8(12)6-3-2-4-7(5-6)9(13)11-14/h2-5,14H,1H3,(H,10,12)(H,11,13)

>  <InChI Key>
OTVCGIWBAYNHOW-UHFFFAOYSA-N

>  <BindingDB>


>  <PubChem>
71680917

>  <ChEMBL>
CHEMBL2381521

$$$$
Compound 980
Actelion Java MolfileCreator 2.0

  0  0  0  0  0  0              0 V3000
M  V30 BEGIN CTAB
M  V30 COUNTS 36 41 0 0 0
M  V30 BEGIN ATOM
M  V30 1 O 0.0 0.0 0.0 0
M  V30 2 C -0.4942 1.4239 0.0 0
M  V30 3 C -1.977 1.7181 0.0 0
M  V30 4 C 0.4707 2.5654 0.0 0
M  V30 5 C -2.4712 3.142 0.0 0
M  V30 6 C -2.9655 0.6001 0.0 0
M  V30 7 C 1.9534 2.6007 0.0 0
M  V30 8 C -0.0235 3.9893 0.0 0
M  V30 9 C -3.954 3.4362 0.0 0
M  V30 10 C -1.5063 4.2835 0.0 0
M  V30 11 C -4.4483 0.8943 0.0 0
M  V30 12 C 2.3771 4.0364 0.0 0
M  V30 13 C 2.9537 1.518 0.0 0
M  V30 14 N 1.165 4.8954 0.0 0
M  V30 15 C -4.9425 2.3182 0.0 0
M  V30 16 C -0.9767 5.6957 0.0 0
M  V30 17 C -2.8007 5.072 0.0 0
M  V30 18 C -5.4368 -0.2235 0.0 0
M  V30 19 C 3.8246 4.3777 0.0 0
M  V30 20 C 4.4012 1.8593 0.0 0
M  V30 21 N -6.4253 2.6125 0.0 0
M  V30 22 C -6.9195 0.0706 0.0 0
M  V30 23 C 4.8248 3.295 0.0 0
M  V30 24 C -6.9195 4.0364 0.0 0
M  V30 25 C -7.4138 1.4945 0.0 0
M  V30 26 C 6.2723 3.6363 0.0 0
M  V30 27 C -8.4023 4.3306 0.0 0
M  V30 28 C -8.8966 1.7887 0.0 0
M  V30 29 N 7.7198 3.9775 0.0 0
M  V30 30 C -9.3908 3.2126 0.0 0
M  V30 31 N -10.8736 3.5068 0.0 0
M  V30 32 C -11.3679 4.9307 0.0 0
M  V30 33 C -11.8621 2.3889 0.0 0
M  V30 34 C -12.8506 5.225 0.0 0
M  V30 35 C -13.3449 2.6831 0.0 0
M  V30 36 O -13.8391 4.107 0.0 0
M  V30 END ATOM
M  V30 BEGIN BOND
M  V30 1 2 1 2
M  V30 2 1 2 3
M  V30 3 1 2 4
M  V30 4 2 3 5
M  V30 5 1 3 6
M  V30 6 1 4 7
M  V30 7 2 4 8
M  V30 8 1 5 9
M  V30 9 1 5 10
M  V30 10 2 6 11
M  V30 11 2 7 12
M  V30 12 1 7 13
M  V30 13 1 8 14
M  V30 14 2 9 15
M  V30 15 1 10 16
M  V30 16 1 10 17
M  V30 17 1 11 18
M  V30 18 1 12 19
M  V30 19 2 13 20
M  V30 20 1 15 21
M  V30 21 1 18 22
M  V30 22 2 19 23
M  V30 23 1 21 24
M  V30 24 1 21 25
M  V30 25 1 23 26
M  V30 26 1 24 27
M  V30 27 1 25 28
M  V30 28 3 26 29
M  V30 29 1 27 30
M  V30 30 1 30 31
M  V30 31 1 31 32
M  V30 32 1 31 33
M  V30 33 1 32 34
M  V30 34 1 33 35
M  V30 35 1 34 36
M  V30 36 1 8 10
M  V30 37 1 11 15
M  V30 38 1 12 14
M  V30 39 1 20 23
M  V30 40 1 28 30
M  V30 41 1 35 36
M  V30 END BOND
M  V30 END CTAB
M  END
>  <Compound ID>
270

>  <Name>
Alectinib

>  <Uniprot>
Q9UM73

>  <Target>
ALK

>  <Smiles>
CCC1=CC2=C(C=C1N1CCC(N3CCOCC3)CC1)C(C)(C)C1=C(C2=O)C2=CC=C(C#N)C=C2[NH]1

>  <Kd (nM)>


>  <Assay (Kd)>


>  <Ki (nM)>


>  <Assay (Ki)>


>  <IC50 (nM)>
1.9

>  <Assay (IC50)>
IC50 was assessed by TR-FRET assay

>  <EC50 (nM)>


>  <Assay (EC50)>


>  <Article DOI>
10.1016/j.bmc.2011.12.021

>  <Molecular Weight>
482.628

>  <Exact Mass>
482.268176328

>  <XLogP3>
5.25

>  <Heavy Atom Count>
36

>  <Ring Count>
6

>  <Hydrogen Bond Acceptor Count>
5

>  <Hydrogen Bond Donor Count>
1

>  <Rotatable Bond Count>
3

>  <Topological Polar Surface Area>
72.36

>  <Molecular Formula>
C30H34N4O2

>  <InChI>
InChI=1S/C30H34N4O2/c1-4-20-16-23-24(17-26(20)34-9-7-21(8-10-34)33-11-13-36-14-12-33)30(2,3)29-27(28(23)35)22-6-5-19(18-31)15-25(22)32-29/h5-6,15-17,21,32H,4,7-14H2,1-3H3

>  <InChI Key>
KDGFLJKFZUIJMX-UHFFFAOYSA-N

>  <BindingDB>
50362781

>  <PubChem>
49806720

>  <ChEMBL>
CHEMBL1738797

$$$$
Compound 981
Actelion Java MolfileCreator 2.0

  0  0  0  0  0  0              0 V3000
M  V30 BEGIN CTAB
M  V30 COUNTS 34 37 0 0 0
M  V30 BEGIN ATOM
M  V30 1 Cl 0.0 0.0 0.0 0
M  V30 2 C 0.5267 1.4164 0.0 0
M  V30 3 C -0.4331 2.5986 0.0 0
M  V30 4 C 2.0016 1.6622 0.0 0
M  V30 5 F -1.9314 2.3762 0.0 0
M  V30 6 C 0.0936 4.015 0.0 0
M  V30 7 C 2.5284 3.0786 0.0 0
M  V30 8 C 1.5685 4.2609 0.0 0
M  V30 9 N 4.0033 3.3244 0.0 0
M  V30 10 C 4.9398 2.1655 0.0 0
M  V30 11 N 4.3896 0.7725 0.0 0
M  V30 12 C 6.4147 2.4113 0.0 0
M  V30 13 C 5.3261 -0.3862 0.0 0
M  V30 14 C 7.3512 1.2525 0.0 0
M  V30 15 C 6.9415 3.8277 0.0 0
M  V30 16 N 6.801 -0.1404 0.0 0
M  V30 17 C 8.8261 1.4983 0.0 0
M  V30 18 C 8.4164 4.0736 0.0 0
M  V30 19 C 9.3529 2.9147 0.0 0
M  V30 20 N 8.9432 5.49 0.0 0
M  V30 21 O 10.8278 3.1605 0.0 0
M  V30 22 C 10.4181 5.7358 0.0 0
M  V30 23 C 11.7643 2.0016 0.0 0
M  V30 24 O 11.3546 4.5769 0.0 0
M  V30 25 C 10.9449 7.1522 0.0 0
M  V30 26 C 13.2392 2.2475 0.0 0
M  V30 27 C 12.4198 7.398 0.0 0
M  V30 28 C 14.1757 1.0886 0.0 0
M  V30 29 N 15.6506 1.3344 0.0 0
M  V30 30 C 16.5871 0.1755 0.0 0
M  V30 31 C 16.1774 2.7508 0.0 0
M  V30 32 C 18.062 0.4214 0.0 0
M  V30 33 C 17.6523 2.9966 0.0 0
M  V30 34 O 18.5888 1.8378 0.0 0
M  V30 END ATOM
M  V30 BEGIN BOND
M  V30 1 1 1 2
M  V30 2 2 2 3
M  V30 3 1 2 4
M  V30 4 1 3 5
M  V30 5 1 3 6
M  V30 6 2 4 7
M  V30 7 2 6 8
M  V30 8 1 7 9
M  V30 9 1 9 10
M  V30 10 2 10 11
M  V30 11 1 10 12
M  V30 12 1 11 13
M  V30 13 1 12 14
M  V30 14 2 12 15
M  V30 15 2 13 16
M  V30 16 2 14 17
M  V30 17 1 15 18
M  V30 18 1 17 19
M  V30 19 1 18 20
M  V30 20 1 19 21
M  V30 21 1 20 22
M  V30 22 1 21 23
M  V30 23 2 22 24
M  V30 24 1 22 25
M  V30 25 1 23 26
M  V30 26 2 25 27
M  V30 27 1 26 28
M  V30 28 1 28 29
M  V30 29 1 29 30
M  V30 30 1 29 31
M  V30 31 1 30 32
M  V30 32 1 31 33
M  V30 33 1 32 34
M  V30 34 1 7 8
M  V30 35 1 14 16
M  V30 36 2 18 19
M  V30 37 1 33 34
M  V30 END BOND
M  V30 END CTAB
M  END
>  <Compound ID>
271

>  <Name>
Canertinib

>  <Uniprot>
P00533

>  <Target>
EGFR e19d

>  <Smiles>
C=CC(=O)NC1=CC2=C(NC3=CC=C(F)C(Cl)=C3)N=CN=C2C=C1OCCCN1CCOCC1

>  <Kd (nM)>


>  <Assay (Kd)>


>  <Ki (nM)>


>  <Assay (Ki)>


>  <IC50 (nM)>


>  <Assay (IC50)>


>  <EC50 (nM)>


>  <Assay (EC50)>


>  <Article DOI>
10.1016/j.ejmech.2021.113328

>  <Molecular Weight>
485.947

>  <Exact Mass>
485.16299556

>  <XLogP3>
3.9

>  <Heavy Atom Count>
34

>  <Ring Count>
4

>  <Hydrogen Bond Acceptor Count>
7

>  <Hydrogen Bond Donor Count>
2

>  <Rotatable Bond Count>
9

>  <Topological Polar Surface Area>
88.61

>  <Molecular Formula>
C24H25ClFN5O3

>  <InChI>
InChI=1S/C24H25ClFN5O3/c1-2-23(32)30-21-13-17-20(14-22(21)34-9-3-6-31-7-10-33-11-8-31)27-15-28-24(17)29-16-4-5-19(26)18(25)12-16/h2,4-5,12-15H,1,3,6-11H2,(H,30,32)(H,27,28,29)

>  <InChI Key>
OMZCMEYTWSXEPZ-UHFFFAOYSA-N

>  <BindingDB>
4779

>  <PubChem>
156414

>  <ChEMBL>
CHEMBL31965

$$$$
Compound 982
Actelion Java MolfileCreator 2.0

  0  0  0  0  0  0              0 V3000
M  V30 BEGIN CTAB
M  V30 COUNTS 34 37 0 0 0
M  V30 BEGIN ATOM
M  V30 1 Cl 0.0 0.0 0.0 0
M  V30 2 C 0.5267 1.4164 0.0 0
M  V30 3 C -0.4331 2.5986 0.0 0
M  V30 4 C 2.0016 1.6622 0.0 0
M  V30 5 F -1.9314 2.3762 0.0 0
M  V30 6 C 0.0936 4.015 0.0 0
M  V30 7 C 2.5284 3.0786 0.0 0
M  V30 8 C 1.5685 4.2609 0.0 0
M  V30 9 N 4.0033 3.3244 0.0 0
M  V30 10 C 4.9398 2.1655 0.0 0
M  V30 11 N 4.3896 0.7725 0.0 0
M  V30 12 C 6.4147 2.4113 0.0 0
M  V30 13 C 5.3261 -0.3862 0.0 0
M  V30 14 C 7.3512 1.2525 0.0 0
M  V30 15 C 6.9415 3.8277 0.0 0
M  V30 16 N 6.801 -0.1404 0.0 0
M  V30 17 C 8.8261 1.4983 0.0 0
M  V30 18 C 8.4164 4.0736 0.0 0
M  V30 19 C 9.3529 2.9147 0.0 0
M  V30 20 N 8.9432 5.49 0.0 0
M  V30 21 O 10.8278 3.1605 0.0 0
M  V30 22 C 10.4181 5.7358 0.0 0
M  V30 23 C 11.7643 2.0016 0.0 0
M  V30 24 O 11.3546 4.5769 0.0 0
M  V30 25 C 10.9449 7.1522 0.0 0
M  V30 26 C 13.2392 2.2475 0.0 0
M  V30 27 C 12.4198 7.398 0.0 0
M  V30 28 C 14.1757 1.0886 0.0 0
M  V30 29 N 15.6506 1.3344 0.0 0
M  V30 30 C 16.5871 0.1755 0.0 0
M  V30 31 C 16.1774 2.7508 0.0 0
M  V30 32 C 18.062 0.4214 0.0 0
M  V30 33 C 17.6523 2.9966 0.0 0
M  V30 34 O 18.5888 1.8378 0.0 0
M  V30 END ATOM
M  V30 BEGIN BOND
M  V30 1 1 1 2
M  V30 2 2 2 3
M  V30 3 1 2 4
M  V30 4 1 3 5
M  V30 5 1 3 6
M  V30 6 2 4 7
M  V30 7 2 6 8
M  V30 8 1 7 9
M  V30 9 1 9 10
M  V30 10 2 10 11
M  V30 11 1 10 12
M  V30 12 1 11 13
M  V30 13 1 12 14
M  V30 14 2 12 15
M  V30 15 2 13 16
M  V30 16 2 14 17
M  V30 17 1 15 18
M  V30 18 1 17 19
M  V30 19 1 18 20
M  V30 20 1 19 21
M  V30 21 1 20 22
M  V30 22 1 21 23
M  V30 23 2 22 24
M  V30 24 1 22 25
M  V30 25 1 23 26
M  V30 26 2 25 27
M  V30 27 1 26 28
M  V30 28 1 28 29
M  V30 29 1 29 30
M  V30 30 1 29 31
M  V30 31 1 30 32
M  V30 32 1 31 33
M  V30 33 1 32 34
M  V30 34 1 7 8
M  V30 35 1 14 16
M  V30 36 2 18 19
M  V30 37 1 33 34
M  V30 END BOND
M  V30 END CTAB
M  END
>  <Compound ID>
271

>  <Name>
Canertinib

>  <Uniprot>
P00533

>  <Target>
EGFR L858R/T790M

>  <Smiles>
C=CC(=O)NC1=CC2=C(NC3=CC=C(F)C(Cl)=C3)N=CN=C2C=C1OCCCN1CCOCC1

>  <Kd (nM)>


>  <Assay (Kd)>


>  <Ki (nM)>
0.11

>  <Assay (Ki)>
Reversible binding affinity to EGFR L858R/T790M expressed in baculovirus by fluorometric analysis

>  <IC50 (nM)>


>  <Assay (IC50)>


>  <EC50 (nM)>


>  <Assay (EC50)>


>  <Article DOI>
10.1021/acs.jmedchem.5b01633

>  <Molecular Weight>
485.947

>  <Exact Mass>
485.16299556

>  <XLogP3>
3.9

>  <Heavy Atom Count>
34

>  <Ring Count>
4

>  <Hydrogen Bond Acceptor Count>
7

>  <Hydrogen Bond Donor Count>
2

>  <Rotatable Bond Count>
9

>  <Topological Polar Surface Area>
88.61

>  <Molecular Formula>
C24H25ClFN5O3

>  <InChI>
InChI=1S/C24H25ClFN5O3/c1-2-23(32)30-21-13-17-20(14-22(21)34-9-3-6-31-7-10-33-11-8-31)27-15-28-24(17)29-16-4-5-19(26)18(25)12-16/h2,4-5,12-15H,1,3,6-11H2,(H,30,32)(H,27,28,29)

>  <InChI Key>
OMZCMEYTWSXEPZ-UHFFFAOYSA-N

>  <BindingDB>
4779

>  <PubChem>
156414

>  <ChEMBL>
CHEMBL31965

$$$$
Compound 983
Actelion Java MolfileCreator 2.0

  0  0  0  0  0  0              0 V3000
M  V30 BEGIN CTAB
M  V30 COUNTS 34 37 0 0 0
M  V30 BEGIN ATOM
M  V30 1 Cl 0.0 0.0 0.0 0
M  V30 2 C 0.5267 1.4164 0.0 0
M  V30 3 C -0.4331 2.5986 0.0 0
M  V30 4 C 2.0016 1.6622 0.0 0
M  V30 5 F -1.9314 2.3762 0.0 0
M  V30 6 C 0.0936 4.015 0.0 0
M  V30 7 C 2.5284 3.0786 0.0 0
M  V30 8 C 1.5685 4.2609 0.0 0
M  V30 9 N 4.0033 3.3244 0.0 0
M  V30 10 C 4.9398 2.1655 0.0 0
M  V30 11 N 4.3896 0.7725 0.0 0
M  V30 12 C 6.4147 2.4113 0.0 0
M  V30 13 C 5.3261 -0.3862 0.0 0
M  V30 14 C 7.3512 1.2525 0.0 0
M  V30 15 C 6.9415 3.8277 0.0 0
M  V30 16 N 6.801 -0.1404 0.0 0
M  V30 17 C 8.8261 1.4983 0.0 0
M  V30 18 C 8.4164 4.0736 0.0 0
M  V30 19 C 9.3529 2.9147 0.0 0
M  V30 20 N 8.9432 5.49 0.0 0
M  V30 21 O 10.8278 3.1605 0.0 0
M  V30 22 C 10.4181 5.7358 0.0 0
M  V30 23 C 11.7643 2.0016 0.0 0
M  V30 24 O 11.3546 4.5769 0.0 0
M  V30 25 C 10.9449 7.1522 0.0 0
M  V30 26 C 13.2392 2.2475 0.0 0
M  V30 27 C 12.4198 7.398 0.0 0
M  V30 28 C 14.1757 1.0886 0.0 0
M  V30 29 N 15.6506 1.3344 0.0 0
M  V30 30 C 16.5871 0.1755 0.0 0
M  V30 31 C 16.1774 2.7508 0.0 0
M  V30 32 C 18.062 0.4214 0.0 0
M  V30 33 C 17.6523 2.9966 0.0 0
M  V30 34 O 18.5888 1.8378 0.0 0
M  V30 END ATOM
M  V30 BEGIN BOND
M  V30 1 1 1 2
M  V30 2 2 2 3
M  V30 3 1 2 4
M  V30 4 1 3 5
M  V30 5 1 3 6
M  V30 6 2 4 7
M  V30 7 2 6 8
M  V30 8 1 7 9
M  V30 9 1 9 10
M  V30 10 2 10 11
M  V30 11 1 10 12
M  V30 12 1 11 13
M  V30 13 1 12 14
M  V30 14 2 12 15
M  V30 15 2 13 16
M  V30 16 2 14 17
M  V30 17 1 15 18
M  V30 18 1 17 19
M  V30 19 1 18 20
M  V30 20 1 19 21
M  V30 21 1 20 22
M  V30 22 1 21 23
M  V30 23 2 22 24
M  V30 24 1 22 25
M  V30 25 1 23 26
M  V30 26 2 25 27
M  V30 27 1 26 28
M  V30 28 1 28 29
M  V30 29 1 29 30
M  V30 30 1 29 31
M  V30 31 1 30 32
M  V30 32 1 31 33
M  V30 33 1 32 34
M  V30 34 1 7 8
M  V30 35 1 14 16
M  V30 36 2 18 19
M  V30 37 1 33 34
M  V30 END BOND
M  V30 END CTAB
M  END
>  <Compound ID>
271

>  <Name>
Canertinib

>  <Uniprot>
P00533

>  <Target>
EGFR

>  <Smiles>
C=CC(=O)NC1=CC2=C(NC3=CC=C(F)C(Cl)=C3)N=CN=C2C=C1OCCCN1CCOCC1

>  <Kd (nM)>
0.19

>  <Assay (Kd)>
Kd was assessed by competition binding assays

>  <Ki (nM)>


>  <Assay (Ki)>


>  <IC50 (nM)>


>  <Assay (IC50)>


>  <EC50 (nM)>


>  <Assay (EC50)>


>  <Article DOI>
10.1038/nbt.1990

>  <Molecular Weight>
485.947

>  <Exact Mass>
485.16299556

>  <XLogP3>
3.9

>  <Heavy Atom Count>
34

>  <Ring Count>
4

>  <Hydrogen Bond Acceptor Count>
7

>  <Hydrogen Bond Donor Count>
2

>  <Rotatable Bond Count>
9

>  <Topological Polar Surface Area>
88.61

>  <Molecular Formula>
C24H25ClFN5O3

>  <InChI>
InChI=1S/C24H25ClFN5O3/c1-2-23(32)30-21-13-17-20(14-22(21)34-9-3-6-31-7-10-33-11-8-31)27-15-28-24(17)29-16-4-5-19(26)18(25)12-16/h2,4-5,12-15H,1,3,6-11H2,(H,30,32)(H,27,28,29)

>  <InChI Key>
OMZCMEYTWSXEPZ-UHFFFAOYSA-N

>  <BindingDB>
4779

>  <PubChem>
156414

>  <ChEMBL>
CHEMBL31965

$$$$
Compound 984
Actelion Java MolfileCreator 2.0

  0  0  0  0  0  0              0 V3000
M  V30 BEGIN CTAB
M  V30 COUNTS 28 31 0 0 0
M  V30 BEGIN ATOM
M  V30 1 Cl 0.0 0.0 0.0 0
M  V30 2 C -0.4923 -1.4066 0.0 0
M  V30 3 C 0.4805 -2.5201 0.0 0
M  V30 4 C -1.9692 -1.6879 0.0 0
M  V30 5 N -0.0117 -3.9267 0.0 0
M  V30 6 N 1.934 -2.2154 0.0 0
M  V30 7 S -2.9655 -0.5509 0.0 0
M  V30 8 C -2.4615 -3.0945 0.0 0
M  V30 9 C -1.4886 -4.208 0.0 0
M  V30 10 C -4.4425 -0.8322 0.0 0
M  V30 11 N -4.9348 -2.2388 0.0 0
M  V30 12 C -5.4388 0.3047 0.0 0
M  V30 13 C -6.4117 -2.5201 0.0 0
M  V30 14 N -6.9158 0.0234 0.0 0
M  V30 15 N -4.97 1.7348 0.0 0
M  V30 16 C -7.4081 -1.3831 0.0 0
M  V30 17 N -8.885 -1.6644 0.0 0
M  V30 18 C -9.3773 -3.071 0.0 0
M  V30 19 C -9.8814 -0.5274 0.0 0
M  V30 20 C -10.8543 -3.3524 0.0 0
M  V30 21 C -11.3583 -0.8087 0.0 0
M  V30 22 C -11.8506 -2.2154 0.0 0
M  V30 23 C -12.9642 -1.1838 0.0 0 CFG=2
M  V30 24 C -12.4836 -3.5634 0.0 0
M  V30 25 N -12.8001 0.3164 0.0 0
M  V30 26 C -14.277 -1.9106 0.0 0 CFG=1
M  V30 27 O -13.984 -3.3758 0.0 0
M  V30 28 C -15.6485 -1.2776 0.0 0
M  V30 END ATOM
M  V30 BEGIN BOND
M  V30 1 1 1 2
M  V30 2 2 2 3
M  V30 3 1 2 4
M  V30 4 1 3 5
M  V30 5 1 3 6
M  V30 6 1 4 7
M  V30 7 2 4 8
M  V30 8 2 5 9
M  V30 9 1 7 10
M  V30 10 2 10 11
M  V30 11 1 10 12
M  V30 12 1 11 13
M  V30 13 2 12 14
M  V30 14 1 12 15
M  V30 15 2 13 16
M  V30 16 1 16 17
M  V30 17 1 17 18
M  V30 18 1 17 19
M  V30 19 1 18 20
M  V30 20 1 19 21
M  V30 21 1 20 22
M  V30 22 1 22 23
M  V30 23 1 22 24
M  V30 24 1 23 25 CFG=1
M  V30 25 1 23 26
M  V30 26 1 24 27
M  V30 27 1 26 28 CFG=1
M  V30 28 1 8 9
M  V30 29 1 14 16
M  V30 30 1 21 22
M  V30 31 1 26 27
M  V30 END BOND
M  V30 BEGIN COLLECTION
M  V30 MDLV30/STEABS ATOMS=(2 23 26)
M  V30 END COLLECTION
M  V30 END CTAB
M  END
>  <Compound ID>
272

>  <Name>
TNO155

>  <Uniprot>
Q06124

>  <Target>
SHP2

>  <Smiles>
C[C@@H]1OCC2(CCN(C3=CN=C(SC4=CC=NC(N)=C4Cl)C(N)=N3)CC2)[C@@H]1N

>  <Kd (nM)>


>  <Assay (Kd)>


>  <Ki (nM)>


>  <Assay (Ki)>


>  <IC50 (nM)>
11

>  <Assay (IC50)>
Inhibition of SHP2

>  <EC50 (nM)>


>  <Assay (EC50)>


>  <Article DOI>
10.1021/acs.jmedchem.0c01170

>  <Molecular Weight>
421.958

>  <Exact Mass>
421.145157068

>  <XLogP3>
1.29

>  <Heavy Atom Count>
28

>  <Ring Count>
4

>  <Hydrogen Bond Acceptor Count>
9

>  <Hydrogen Bond Donor Count>
3

>  <Rotatable Bond Count>
3

>  <Topological Polar Surface Area>
129.2

>  <Molecular Formula>
C18H24ClN7OS

>  <InChI>
InChI=1S/C18H24ClN7OS/c1-10-14(20)18(9-27-10)3-6-26(7-4-18)12-8-24-17(16(22)25-12)28-11-2-5-23-15(21)13(11)19/h2,5,8,10,14H,3-4,6-7,9,20H2,1H3,(H2,21,23)(H2,22,25)/t10-,14+/m0/s1

>  <InChI Key>
UCJZOKGUEJUNIO-IINYFYTJSA-N

>  <BindingDB>


>  <PubChem>
118238370

>  <ChEMBL>


$$$$
Compound 985
Actelion Java MolfileCreator 2.0

  0  0  0  0  0  0              0 V3000
M  V30 BEGIN CTAB
M  V30 COUNTS 26 29 0 0 0
M  V30 BEGIN ATOM
M  V30 1 S 0.0 0.0 0.0 0
M  V30 2 C -1.4988 0.2576 0.0 0
M  V30 3 C 0.5152 -1.3935 0.0 0
M  V30 4 C -2.0375 1.6745 0.0 0
M  V30 5 C -2.4708 -0.8899 0.0 0
M  V30 6 C 1.9907 -1.6277 0.0 0
M  V30 7 C -3.5364 1.9321 0.0 0
M  V30 8 C -3.9697 -0.6323 0.0 0
M  V30 9 N 2.9392 -0.4566 0.0 0
M  V30 10 N 2.5059 -3.0212 0.0 0
M  V30 11 N -4.5084 0.7845 0.0 0
M  V30 12 C 4.4147 -0.6908 0.0 0
M  V30 13 C 3.9814 -3.2554 0.0 0
M  V30 14 C 4.9299 -2.0844 0.0 0
M  V30 15 C 5.3632 0.4801 0.0 0
M  V30 16 O 4.4966 -4.6489 0.0 0
M  V30 17 C 6.4054 -2.3186 0.0 0
M  V30 18 C 6.8387 0.2459 0.0 0
M  V30 19 F 6.9207 -3.7121 0.0 0
M  V30 20 C 7.3539 -1.1475 0.0 0
M  V30 21 N 7.7872 1.4169 0.0 0
M  V30 22 C 9.2627 1.1827 0.0 0
M  V30 23 C 10.3283 2.2483 0.0 0
M  V30 24 C 9.9185 -0.1522 0.0 0
M  V30 25 C 11.6516 1.5691 0.0 0
M  V30 26 C 11.3939 0.0819 0.0 0
M  V30 END ATOM
M  V30 BEGIN BOND
M  V30 1 1 1 2
M  V30 2 1 1 3
M  V30 3 1 2 4
M  V30 4 1 2 5
M  V30 5 1 3 6
M  V30 6 1 4 7
M  V30 7 1 5 8
M  V30 8 2 6 9
M  V30 9 1 6 10
M  V30 10 1 7 11
M  V30 11 1 9 12
M  V30 12 1 10 13
M  V30 13 2 12 14
M  V30 14 1 12 15
M  V30 15 2 13 16
M  V30 16 1 14 17
M  V30 17 2 15 18
M  V30 18 1 17 19
M  V30 19 2 17 20
M  V30 20 1 18 21
M  V30 21 1 21 22
M  V30 22 1 22 23
M  V30 23 1 22 24
M  V30 24 1 23 25
M  V30 25 1 24 26
M  V30 26 1 8 11
M  V30 27 1 13 14
M  V30 28 1 18 20
M  V30 29 1 25 26
M  V30 END BOND
M  V30 END CTAB
M  END
>  <Compound ID>
273

>  <Name>
RBN012042

>  <Uniprot>
Q460N5

>  <Target>
PARP14

>  <Smiles>
O=C1[NH]C(CSC2CCNCC2)=NC2=CC(NC3CCCC3)=CC(F)=C12

>  <Kd (nM)>


>  <Assay (Kd)>


>  <Ki (nM)>


>  <Assay (Ki)>


>  <IC50 (nM)>
19

>  <Assay (IC50)>
IC50 was assessed by probe displacement assay

>  <EC50 (nM)>


>  <Assay (EC50)>


>  <Article DOI>
10.1002/cbic.202100047

>  <Molecular Weight>
376.501

>  <Exact Mass>
376.17331064

>  <XLogP3>
2.85

>  <Heavy Atom Count>
26

>  <Ring Count>
4

>  <Hydrogen Bond Acceptor Count>
5

>  <Hydrogen Bond Donor Count>
3

>  <Rotatable Bond Count>
5

>  <Topological Polar Surface Area>
69.81

>  <Molecular Formula>
C19H25FN4OS

>  <InChI>
InChI=1S/C19H25FN4OS/c20-15-9-13(22-12-3-1-2-4-12)10-16-18(15)19(25)24-17(23-16)11-26-14-5-7-21-8-6-14/h9-10,12,14,21-22H,1-8,11H2,(H,23,24,25)

>  <InChI Key>
YZDTVOCBHYWUNM-UHFFFAOYSA-N

>  <BindingDB>


>  <PubChem>
138697008

>  <ChEMBL>


$$$$
Compound 986
Actelion Java MolfileCreator 2.0

  0  0  0  0  0  0              0 V3000
M  V30 BEGIN CTAB
M  V30 COUNTS 40 44 0 0 0
M  V30 BEGIN ATOM
M  V30 1 Cl 0.0 0.0 0.0 0
M  V30 2 C 0.5448 1.4094 0.0 0
M  V30 3 C 2.0252 1.6344 0.0 0
M  V30 4 C -0.4026 2.6056 0.0 0
M  V30 5 N 2.57 3.0438 0.0 0
M  V30 6 C 2.949 0.4619 0.0 0
M  V30 7 N 0.1421 4.015 0.0 0
M  V30 8 C 1.6225 4.24 0.0 0
M  V30 9 C 4.4413 0.5329 0.0 0
M  V30 10 C 2.5227 -0.9711 0.0 0
M  V30 11 N 2.1673 5.6494 0.0 0
M  V30 12 C 4.9506 -0.8645 0.0 0
M  V30 13 C 5.3888 1.7054 0.0 0
M  V30 14 N 3.7662 -1.8002 0.0 0
M  V30 15 C 3.6478 5.8744 0.0 0 CFG=1
M  V30 16 C 6.4192 -1.1133 0.0 0
M  V30 17 C 6.8575 1.4567 0.0 0
M  V30 18 C 4.5716 4.7019 0.0 0
M  V30 19 C 4.1926 7.2838 0.0 0
M  V30 20 C 7.3667 0.0592 0.0 0
M  V30 21 N 6.0521 4.9269 0.0 0
M  V30 22 C 5.6731 7.5089 0.0 0
M  V30 23 C 6.9759 3.7544 0.0 0
M  V30 24 C 6.5969 6.3363 0.0 0
M  V30 25 O 6.4074 2.3687 0.0 0
M  V30 26 C 8.4564 3.9794 0.0 0
M  V30 27 C 9.3802 2.8069 0.0 0
M  V30 28 C 9.0012 5.3888 0.0 0
M  V30 29 C 10.8606 3.0319 0.0 0
M  V30 30 C 10.4816 5.6139 0.0 0
M  V30 31 C 11.4054 4.4413 0.0 0
M  V30 32 N 12.8859 4.6664 0.0 0
M  V30 33 C 13.8097 3.4938 0.0 0
M  V30 34 O 13.2412 2.1081 0.0 0
M  V30 35 C 15.2902 3.7189 0.0 0
M  V30 36 C 16.214 2.5463 0.0 0
M  V30 37 C 17.6944 2.7714 0.0 0
M  V30 38 N 18.6183 1.5989 0.0 0
M  V30 39 C 20.0987 1.8239 0.0 0
M  V30 40 C 18.0498 0.2131 0.0 0
M  V30 END ATOM
M  V30 BEGIN BOND
M  V30 1 1 1 2
M  V30 2 2 2 3
M  V30 3 1 2 4
M  V30 4 1 3 5
M  V30 5 1 3 6
M  V30 6 2 4 7
M  V30 7 2 5 8
M  V30 8 1 6 9
M  V30 9 2 6 10
M  V30 10 1 8 11
M  V30 11 2 9 12
M  V30 12 1 9 13
M  V30 13 1 10 14
M  V30 14 1 15 11 CFG=3
M  V30 15 1 12 16
M  V30 16 2 13 17
M  V30 17 1 15 18
M  V30 18 1 15 19
M  V30 19 2 16 20
M  V30 20 1 18 21
M  V30 21 1 19 22
M  V30 22 1 21 23
M  V30 23 1 21 24
M  V30 24 2 23 25
M  V30 25 1 23 26
M  V30 26 2 26 27
M  V30 27 1 26 28
M  V30 28 1 27 29
M  V30 29 2 28 30
M  V30 30 2 29 31
M  V30 31 1 31 32
M  V30 32 1 32 33
M  V30 33 2 33 34
M  V30 34 1 33 35
M  V30 35 2 35 36
M  V30 36 1 36 37
M  V30 37 1 37 38
M  V30 38 1 38 39
M  V30 39 1 38 40
M  V30 40 1 7 8
M  V30 41 1 12 14
M  V30 42 1 17 20
M  V30 43 1 22 24
M  V30 44 1 30 31
M  V30 END BOND
M  V30 BEGIN COLLECTION
M  V30 MDLV30/STEABS ATOMS=(1 15)
M  V30 END COLLECTION
M  V30 END CTAB
M  END
>  <Compound ID>
274

>  <Name>
THZ531

>  <Uniprot>
Q9NYV4

>  <Target>
CDK12

>  <Smiles>
CN(C)C/C=C/C(=O)NC1=CC=C(C(=O)N2CCC[C@@H](NC3=NC=C(Cl)C(C4=C[NH]C5=CC=CC=C45)=N3)C2)C=C1

>  <Kd (nM)>


>  <Assay (Kd)>


>  <Ki (nM)>


>  <Assay (Ki)>


>  <IC50 (nM)>
158

>  <Assay (IC50)>
Competitive irreversible inhibition of CDK12/cyclinK

>  <EC50 (nM)>


>  <Assay (EC50)>


>  <Article DOI>
10.1016/j.bmcl.2019.126637

>  <Molecular Weight>
558.086

>  <Exact Mass>
557.230600944

>  <XLogP3>
4.12

>  <Heavy Atom Count>
40

>  <Ring Count>
5

>  <Hydrogen Bond Acceptor Count>
6

>  <Hydrogen Bond Donor Count>
3

>  <Rotatable Bond Count>
8

>  <Topological Polar Surface Area>
106.25

>  <Molecular Formula>
C30H32ClN7O2

>  <InChI>
InChI=1S/C30H32ClN7O2/c1-37(2)15-6-10-27(39)34-21-13-11-20(12-14-21)29(40)38-16-5-7-22(19-38)35-30-33-18-25(31)28(36-30)24-17-32-26-9-4-3-8-23(24)26/h3-4,6,8-14,17-18,22,32H,5,7,15-16,19H2,1-2H3,(H,34,39)(H,33,35,36)/b10-6+/t22-/m1/s1

>  <InChI Key>
RUBYHLPRZRMTJO-MOVYNIQHSA-N

>  <BindingDB>
50528813

>  <PubChem>
118025540

>  <ChEMBL>
CHEMBL4163879

$$$$
Compound 987
Actelion Java MolfileCreator 2.0

  0  0  0  0  0  0              0 V3000
M  V30 BEGIN CTAB
M  V30 COUNTS 27 29 0 0 0
M  V30 BEGIN ATOM
M  V30 1 Cl 0.0 0.0 0.0 0
M  V30 2 C -1.0133 1.1285 0.0 0
M  V30 3 C -0.5642 2.5564 0.0 0
M  V30 4 C -2.4873 0.8291 0.0 0
M  V30 5 N -1.5776 3.6849 0.0 0
M  V30 6 N 0.8866 2.8788 0.0 0
M  V30 7 N -3.5007 1.9576 0.0 0
M  V30 8 C -3.0516 3.3855 0.0 0
M  V30 9 C 1.3358 4.3068 0.0 0
M  V30 10 N -4.0649 4.514 0.0 0
M  V30 11 C 2.7867 4.6292 0.0 0
M  V30 12 C 0.3224 5.4353 0.0 0
M  V30 13 C -5.5389 4.2146 0.0 0 CFG=1
M  V30 14 S 3.777 3.5237 0.0 0
M  V30 15 C 3.2358 6.0571 0.0 0
M  V30 16 C 0.7715 6.8632 0.0 0
M  V30 17 C -6.0111 2.8097 0.0 0
M  V30 18 C -6.5523 5.3432 0.0 0
M  V30 19 O 2.6485 2.5334 0.0 0
M  V30 20 O 4.8825 4.5371 0.0 0
M  V30 21 C 4.7674 2.4182 0.0 0
M  V30 22 C 2.2224 7.1856 0.0 0
M  V30 23 N -7.485 2.5103 0.0 0
M  V30 24 C -8.0263 5.0438 0.0 0
M  V30 25 C 6.2183 2.7406 0.0 0
M  V30 26 C 4.2952 1.0133 0.0 0
M  V30 27 C -8.4984 3.6389 0.0 0
M  V30 END ATOM
M  V30 BEGIN BOND
M  V30 1 1 1 2
M  V30 2 2 2 3
M  V30 3 1 2 4
M  V30 4 1 3 5
M  V30 5 1 3 6
M  V30 6 2 4 7
M  V30 7 2 5 8
M  V30 8 1 6 9
M  V30 9 1 8 10
M  V30 10 2 9 11
M  V30 11 1 9 12
M  V30 12 1 13 10 CFG=1
M  V30 13 1 11 14
M  V30 14 1 11 15
M  V30 15 2 12 16
M  V30 16 1 13 17
M  V30 17 1 13 18
M  V30 18 2 14 19
M  V30 19 2 14 20
M  V30 20 1 14 21
M  V30 21 2 15 22
M  V30 22 1 17 23
M  V30 23 1 18 24
M  V30 24 1 21 25
M  V30 25 1 21 26
M  V30 26 1 23 27
M  V30 27 1 7 8
M  V30 28 1 16 22
M  V30 29 1 24 27
M  V30 END BOND
M  V30 BEGIN COLLECTION
M  V30 MDLV30/STEABS ATOMS=(1 13)
M  V30 END COLLECTION
M  V30 END CTAB
M  END
>  <Compound ID>
275

>  <Name>


>  <Uniprot>
Q9NYV4

>  <Target>
CDK12

>  <Smiles>
CC(C)S(=O)(=O)C1=CC=CC=C1NC1=NC(N[C@@H]2CCCNC2)=NC=C1Cl

>  <Kd (nM)>


>  <Assay (Kd)>


>  <Ki (nM)>


>  <Assay (Ki)>


>  <IC50 (nM)>


>  <Assay (IC50)>


>  <EC50 (nM)>


>  <Assay (EC50)>


>  <Article DOI>
10.1038/s41589-021-00765-y

>  <Molecular Weight>
409.943

>  <Exact Mass>
409.133923688

>  <XLogP3>
3.74

>  <Heavy Atom Count>
27

>  <Ring Count>
3

>  <Hydrogen Bond Acceptor Count>
7

>  <Hydrogen Bond Donor Count>
3

>  <Rotatable Bond Count>
6

>  <Topological Polar Surface Area>
96.01

>  <Molecular Formula>
C18H24ClN5O2S

>  <InChI>
InChI=1S/C18H24ClN5O2S/c1-12(2)27(25,26)16-8-4-3-7-15(16)23-17-14(19)11-21-18(24-17)22-13-6-5-9-20-10-13/h3-4,7-8,11-13,20H,5-6,9-10H2,1-2H3,(H2,21,22,23,24)/t13-/m1/s1

>  <InChI Key>
FPZZWAVDOQUIAK-CYBMUJFWSA-N

>  <BindingDB>


>  <PubChem>
155235850

>  <ChEMBL>


$$$$
Compound 988
Actelion Java MolfileCreator 2.0

  0  0  0  0  0  0              0 V3000
M  V30 BEGIN CTAB
M  V30 COUNTS 29 33 0 0 0
M  V30 BEGIN ATOM
M  V30 1 F 0.0 0.0 0.0 0
M  V30 2 C 0.3638 1.4552 0.0 0
M  V30 3 C -0.7159 2.5115 0.0 0
M  V30 4 C 1.7956 1.866 0.0 0
M  V30 5 C -2.1711 2.1242 0.0 0
M  V30 6 C -0.352 3.9668 0.0 0
M  V30 7 C 2.1594 3.3213 0.0 0
M  V30 8 N -2.5584 0.6924 0.0 0
M  V30 9 C -3.2509 3.1805 0.0 0
M  V30 10 N -1.4318 5.023 0.0 0
M  V30 11 C 1.0797 4.3776 0.0 0
M  V30 12 C -2.8871 4.6358 0.0 0
M  V30 13 C -4.7062 2.7932 0.0 0
M  V30 14 O -3.9668 5.692 0.0 0
M  V30 15 N -5.246 1.4083 0.0 0
M  V30 16 N -5.8798 3.7321 0.0 0
M  V30 17 C -6.7483 1.4904 0.0 0
M  V30 18 C -7.1356 2.9223 0.0 0
M  V30 19 C -7.8045 0.4342 0.0 0
M  V30 20 C -8.5909 3.3096 0.0 0
M  V30 21 C -9.2598 0.8215 0.0 0
M  V30 22 C -9.6471 2.2533 0.0 0
M  V30 23 N -11.1024 2.6406 0.0 0
M  V30 24 C -11.5132 4.0842 0.0 0
M  V30 25 C -12.1587 1.5843 0.0 0
M  V30 26 C -12.9685 4.4714 0.0 0
M  V30 27 C -13.614 1.9716 0.0 0
M  V30 28 N -14.0247 3.4152 0.0 0
M  V30 29 C -15.48 3.8025 0.0 0
M  V30 END ATOM
M  V30 BEGIN BOND
M  V30 1 1 1 2
M  V30 2 2 2 3
M  V30 3 1 2 4
M  V30 4 1 3 5
M  V30 5 1 3 6
M  V30 6 2 4 7
M  V30 7 1 5 8
M  V30 8 2 5 9
M  V30 9 1 6 10
M  V30 10 2 6 11
M  V30 11 1 9 12
M  V30 12 1 9 13
M  V30 13 2 12 14
M  V30 14 2 13 15
M  V30 15 1 13 16
M  V30 16 1 15 17
M  V30 17 1 16 18
M  V30 18 1 17 19
M  V30 19 1 18 20
M  V30 20 2 19 21
M  V30 21 2 20 22
M  V30 22 1 22 23
M  V30 23 1 23 24
M  V30 24 1 23 25
M  V30 25 1 24 26
M  V30 26 1 25 27
M  V30 27 1 26 28
M  V30 28 1 28 29
M  V30 29 1 7 11
M  V30 30 1 10 12
M  V30 31 2 17 18
M  V30 32 1 21 22
M  V30 33 1 27 28
M  V30 END BOND
M  V30 END CTAB
M  END
>  <Compound ID>
276

>  <Name>
Dovitinib

>  <Uniprot>
P36888

>  <Target>
FLT3-ITD

>  <Smiles>
CN1CCN(C2=CC=C3N=C(C4=C(N)C5=C(F)C=CC=C5[NH]C4=O)[NH]C3=C2)CC1

>  <Kd (nM)>


>  <Assay (Kd)>


>  <Ki (nM)>


>  <Assay (Ki)>


>  <IC50 (nM)>


>  <Assay (IC50)>


>  <EC50 (nM)>
13

>  <Assay (EC50)>
Inhibit proliferation of MV4;11 (FLT3 ITD) cells

>  <Article DOI>
10.1158/1078-0432.CCR-05-0358

>  <Molecular Weight>
392.438

>  <Exact Mass>
392.176087512

>  <XLogP3>
1.64

>  <Heavy Atom Count>
29

>  <Ring Count>
5

>  <Hydrogen Bond Acceptor Count>
5

>  <Hydrogen Bond Donor Count>
3

>  <Rotatable Bond Count>
2

>  <Topological Polar Surface Area>
94.04

>  <Molecular Formula>
C21H21FN6O

>  <InChI>
InChI=1S/C21H21FN6O/c1-27-7-9-28(10-8-27)12-5-6-14-16(11-12)25-20(24-14)18-19(23)17-13(22)3-2-4-15(17)26-21(18)29/h2-6,11H,7-10H2,1H3,(H,24,25)(H3,23,26,29)

>  <InChI Key>
PIQCTGMSNWUMAF-UHFFFAOYSA-N

>  <BindingDB>
25118

>  <PubChem>
135398510

>  <ChEMBL>
CHEMBL522892

$$$$
Compound 989
Actelion Java MolfileCreator 2.0

  0  0  0  0  0  0              0 V3000
M  V30 BEGIN CTAB
M  V30 COUNTS 29 33 0 0 0
M  V30 BEGIN ATOM
M  V30 1 F 0.0 0.0 0.0 0
M  V30 2 C 0.3638 1.4552 0.0 0
M  V30 3 C -0.7159 2.5115 0.0 0
M  V30 4 C 1.7956 1.866 0.0 0
M  V30 5 C -2.1711 2.1242 0.0 0
M  V30 6 C -0.352 3.9668 0.0 0
M  V30 7 C 2.1594 3.3213 0.0 0
M  V30 8 N -2.5584 0.6924 0.0 0
M  V30 9 C -3.2509 3.1805 0.0 0
M  V30 10 N -1.4318 5.023 0.0 0
M  V30 11 C 1.0797 4.3776 0.0 0
M  V30 12 C -2.8871 4.6358 0.0 0
M  V30 13 C -4.7062 2.7932 0.0 0
M  V30 14 O -3.9668 5.692 0.0 0
M  V30 15 N -5.246 1.4083 0.0 0
M  V30 16 N -5.8798 3.7321 0.0 0
M  V30 17 C -6.7483 1.4904 0.0 0
M  V30 18 C -7.1356 2.9223 0.0 0
M  V30 19 C -7.8045 0.4342 0.0 0
M  V30 20 C -8.5909 3.3096 0.0 0
M  V30 21 C -9.2598 0.8215 0.0 0
M  V30 22 C -9.6471 2.2533 0.0 0
M  V30 23 N -11.1024 2.6406 0.0 0
M  V30 24 C -11.5132 4.0842 0.0 0
M  V30 25 C -12.1587 1.5843 0.0 0
M  V30 26 C -12.9685 4.4714 0.0 0
M  V30 27 C -13.614 1.9716 0.0 0
M  V30 28 N -14.0247 3.4152 0.0 0
M  V30 29 C -15.48 3.8025 0.0 0
M  V30 END ATOM
M  V30 BEGIN BOND
M  V30 1 1 1 2
M  V30 2 2 2 3
M  V30 3 1 2 4
M  V30 4 1 3 5
M  V30 5 1 3 6
M  V30 6 2 4 7
M  V30 7 1 5 8
M  V30 8 2 5 9
M  V30 9 1 6 10
M  V30 10 2 6 11
M  V30 11 1 9 12
M  V30 12 1 9 13
M  V30 13 2 12 14
M  V30 14 2 13 15
M  V30 15 1 13 16
M  V30 16 1 15 17
M  V30 17 1 16 18
M  V30 18 1 17 19
M  V30 19 1 18 20
M  V30 20 2 19 21
M  V30 21 2 20 22
M  V30 22 1 22 23
M  V30 23 1 23 24
M  V30 24 1 23 25
M  V30 25 1 24 26
M  V30 26 1 25 27
M  V30 27 1 26 28
M  V30 28 1 28 29
M  V30 29 1 7 11
M  V30 30 1 10 12
M  V30 31 2 17 18
M  V30 32 1 21 22
M  V30 33 1 27 28
M  V30 END BOND
M  V30 END CTAB
M  END
>  <Compound ID>
276

>  <Name>
Dovitinib

>  <Uniprot>
P36888

>  <Target>
FLT3

>  <Smiles>
CN1CCN(C2=CC=C3N=C(C4=C(N)C5=C(F)C=CC=C5[NH]C4=O)[NH]C3=C2)CC1

>  <Kd (nM)>


>  <Assay (Kd)>


>  <Ki (nM)>


>  <Assay (Ki)>


>  <IC50 (nM)>
1

>  <Assay (IC50)>
IC50 was assessed by ATP-competitive binding assays

>  <EC50 (nM)>


>  <Assay (EC50)>


>  <Article DOI>
10.1158/1078-0432.CCR-05-0358

>  <Molecular Weight>
392.438

>  <Exact Mass>
392.176087512

>  <XLogP3>
1.64

>  <Heavy Atom Count>
29

>  <Ring Count>
5

>  <Hydrogen Bond Acceptor Count>
5

>  <Hydrogen Bond Donor Count>
3

>  <Rotatable Bond Count>
2

>  <Topological Polar Surface Area>
94.04

>  <Molecular Formula>
C21H21FN6O

>  <InChI>
InChI=1S/C21H21FN6O/c1-27-7-9-28(10-8-27)12-5-6-14-16(11-12)25-20(24-14)18-19(23)17-13(22)3-2-4-15(17)26-21(18)29/h2-6,11H,7-10H2,1H3,(H,24,25)(H3,23,26,29)

>  <InChI Key>
PIQCTGMSNWUMAF-UHFFFAOYSA-N

>  <BindingDB>
25118

>  <PubChem>
135398510

>  <ChEMBL>
CHEMBL522892

$$$$
Compound 990
Actelion Java MolfileCreator 2.0

  0  0  0  0  0  0              0 V3000
M  V30 BEGIN CTAB
M  V30 COUNTS 40 44 0 0 0
M  V30 BEGIN ATOM
M  V30 1 F 0.0 0.0 0.0 0
M  V30 2 C 0.6013 1.3796 0.0 0
M  V30 3 F -0.7782 2.0046 0.0 0
M  V30 4 F 1.9574 0.7782 0.0 0
M  V30 5 C 1.2027 2.7593 0.0 0
M  V30 6 C 2.6885 2.9244 0.0 0
M  V30 7 C 0.3065 3.9856 0.0 0
M  V30 8 C 3.5611 1.7216 0.0 0
M  V30 9 C 3.2899 4.304 0.0 0
M  V30 10 C 0.9079 5.3653 0.0 0
M  V30 11 O 5.0469 1.8867 0.0 0
M  V30 12 N 2.9362 0.3655 0.0 0
M  V30 13 N 2.3937 5.5304 0.0 0
M  V30 14 O 0.0117 6.5917 0.0 0
M  V30 15 C 3.8088 -0.8372 0.0 0
M  V30 16 C 3.1838 -2.1933 0.0 0
M  V30 17 C 5.2946 -0.6721 0.0 0
M  V30 18 N 1.6744 -2.3348 0.0 0
M  V30 19 C 4.0564 -3.396 0.0 0
M  V30 20 C 6.1672 -1.8749 0.0 0
M  V30 21 C 0.7782 -1.1084 0.0 0
M  V30 22 C 1.0494 -3.6908 0.0 0
M  V30 23 C 5.5422 -3.231 0.0 0
M  V30 24 C 7.653 -1.7098 0.0 0
M  V30 25 C -0.7311 -1.2499 0.0 0
M  V30 26 C -0.4598 -3.8324 0.0 0
M  V30 27 C 8.2544 -0.3301 0.0 0
M  V30 28 C 8.5256 -2.9126 0.0 0
M  V30 29 N -1.356 -2.606 0.0 0
M  V30 30 C 9.7401 -0.165 0.0 0
M  V30 31 C 10.0114 -2.7475 0.0 0
M  V30 32 C -2.8654 -2.7475 0.0 0
M  V30 33 C 10.6128 -1.3678 0.0 0
M  V30 34 C 10.3415 1.2145 0.0 0
M  V30 35 N 11.8273 1.3796 0.0 0
M  V30 36 C 12.6999 0.1768 0.0 0
M  V30 37 C 12.4287 2.7593 0.0 0
M  V30 38 C 14.1857 0.3419 0.0 0
M  V30 39 C 13.9145 2.9244 0.0 0
M  V30 40 O 14.7871 1.7216 0.0 0
M  V30 END ATOM
M  V30 BEGIN BOND
M  V30 1 1 1 2
M  V30 2 1 2 3
M  V30 3 1 2 4
M  V30 4 1 2 5
M  V30 5 1 5 6
M  V30 6 2 5 7
M  V30 7 1 6 8
M  V30 8 2 6 9
M  V30 9 1 7 10
M  V30 10 2 8 11
M  V30 11 1 8 12
M  V30 12 1 9 13
M  V30 13 2 10 14
M  V30 14 1 12 15
M  V30 15 2 15 16
M  V30 16 1 15 17
M  V30 17 1 16 18
M  V30 18 1 16 19
M  V30 19 2 17 20
M  V30 20 1 18 21
M  V30 21 1 18 22
M  V30 22 2 19 23
M  V30 23 1 20 24
M  V30 24 1 21 25
M  V30 25 1 22 26
M  V30 26 2 24 27
M  V30 27 1 24 28
M  V30 28 1 25 29
M  V30 29 1 27 30
M  V30 30 2 28 31
M  V30 31 1 29 32
M  V30 32 2 30 33
M  V30 33 1 30 34
M  V30 34 1 34 35
M  V30 35 1 35 36
M  V30 36 1 35 37
M  V30 37 1 36 38
M  V30 38 1 37 39
M  V30 39 1 38 40
M  V30 40 1 10 13
M  V30 41 1 20 23
M  V30 42 1 26 29
M  V30 43 1 31 33
M  V30 44 1 39 40
M  V30 END BOND
M  V30 END CTAB
M  END
>  <Compound ID>
277

>  <Name>
OICR-9429

>  <Uniprot>
P61964

>  <Target>
WDR5

>  <Smiles>
CN1CCN(C2=CC=C(C3=CC=CC(CN4CCOCC4)=C3)C=C2NC(=O)C2=C[NH]C(=O)C=C2C(F)(F)F)CC1

>  <Kd (nM)>
30

>  <Assay (Kd)>
Kd was assessed by surface plasmon resonance analysis

>  <Ki (nM)>


>  <Assay (Ki)>


>  <IC50 (nM)>


>  <Assay (IC50)>


>  <EC50 (nM)>


>  <Assay (EC50)>


>  <Article DOI>
10.1021/acs.jmedchem.5b01630

>  <Molecular Weight>
555.601

>  <Exact Mass>
555.245724544

>  <XLogP3>
2.22

>  <Heavy Atom Count>
40

>  <Ring Count>
5

>  <Hydrogen Bond Acceptor Count>
6

>  <Hydrogen Bond Donor Count>
2

>  <Rotatable Bond Count>
6

>  <Topological Polar Surface Area>
80.91

>  <Molecular Formula>
C29H32F3N5O3

>  <InChI>
InChI=1S/C29H32F3N5O3/c1-35-7-9-37(10-8-35)26-6-5-22(21-4-2-3-20(15-21)19-36-11-13-40-14-12-36)16-25(26)34-28(39)23-18-33-27(38)17-24(23)29(30,31)32/h2-6,15-18H,7-14,19H2,1H3,(H,33,38)(H,34,39)

>  <InChI Key>
DJOVLOYCGXNVPI-UHFFFAOYSA-N

>  <BindingDB>
50164794

>  <PubChem>
91623360

>  <ChEMBL>
CHEMBL3798846

$$$$
Compound 991
Actelion Java MolfileCreator 2.0

  0  0  0  0  0  0              0 V3000
M  V30 BEGIN CTAB
M  V30 COUNTS 27 30 0 0 0
M  V30 BEGIN ATOM
M  V30 1 Cl 0.0 0.0 0.0 0
M  V30 2 C -0.9286 -1.1755 0.0 0
M  V30 3 C -0.3761 -2.5509 0.0 0
M  V30 4 C -2.4216 -0.9639 0.0 0
M  V30 5 Cl 1.0932 -2.739 0.0 0
M  V30 6 C -1.3048 -3.7265 0.0 0
M  V30 7 C -3.3503 -2.1395 0.0 0
M  V30 8 C -2.7978 -3.5149 0.0 0
M  V30 9 C -4.8433 -1.9279 0.0 0
M  V30 10 C -5.4193 -0.529 0.0 0
M  V30 11 O -4.5141 0.67 0.0 0
M  V30 12 N -6.9123 -0.3174 0.0 0
M  V30 13 C -7.4883 1.0815 0.0 0
M  V30 14 C -8.9813 1.2931 0.0 0
M  V30 15 C -9.91 0.1175 0.0 0
M  V30 16 C -9.5573 2.692 0.0 0
M  V30 17 C -11.403 0.3291 0.0 0
M  V30 18 C -11.0503 2.9036 0.0 0
M  V30 19 C -12.3317 -0.8464 0.0 0
M  V30 20 C -11.979 1.728 0.0 0
M  V30 21 N -13.8364 -0.7876 0.0 0
M  V30 22 C -11.9202 -2.2688 0.0 0
M  V30 23 C -14.3536 -2.1865 0.0 0
M  V30 24 N -13.1663 -3.1035 0.0 0
M  V30 25 C -15.5997 -3.0212 0.0 0
M  V30 26 C -13.6836 -4.5024 0.0 0
M  V30 27 C -15.1883 -4.4436 0.0 0
M  V30 END ATOM
M  V30 BEGIN BOND
M  V30 1 1 1 2
M  V30 2 2 2 3
M  V30 3 1 2 4
M  V30 4 1 3 5
M  V30 5 1 3 6
M  V30 6 2 4 7
M  V30 7 2 6 8
M  V30 8 1 7 9
M  V30 9 1 9 10
M  V30 10 2 10 11
M  V30 11 1 10 12
M  V30 12 1 12 13
M  V30 13 1 13 14
M  V30 14 2 14 15
M  V30 15 1 14 16
M  V30 16 1 15 17
M  V30 17 2 16 18
M  V30 18 1 17 19
M  V30 19 2 17 20
M  V30 20 1 19 21
M  V30 21 2 19 22
M  V30 22 2 21 23
M  V30 23 1 22 24
M  V30 24 1 23 25
M  V30 25 1 24 26
M  V30 26 1 25 27
M  V30 27 1 7 8
M  V30 28 1 18 20
M  V30 29 1 23 24
M  V30 30 1 26 27
M  V30 END BOND
M  V30 END CTAB
M  END
>  <Compound ID>
278

>  <Name>


>  <Uniprot>
P61964

>  <Target>
WDR5

>  <Smiles>
O=C(CC1=CC=C(Cl)C(Cl)=C1)NCC1=CC=CC(C2=CN3CCCC3=N2)=C1

>  <Kd (nM)>


>  <Assay (Kd)>


>  <Ki (nM)>
118

>  <Assay (Ki)>
Ki was assessed by fluorescence-polarization anisotropy

>  <IC50 (nM)>


>  <Assay (IC50)>


>  <EC50 (nM)>


>  <Assay (EC50)>


>  <Article DOI>
10.1021/acs.jmedchem.8b00375

>  <Molecular Weight>
400.309

>  <Exact Mass>
399.090517588

>  <XLogP3>
4.0

>  <Heavy Atom Count>
27

>  <Ring Count>
4

>  <Hydrogen Bond Acceptor Count>
3

>  <Hydrogen Bond Donor Count>
1

>  <Rotatable Bond Count>
5

>  <Topological Polar Surface Area>
46.92

>  <Molecular Formula>
C21H19Cl2N3O

>  <InChI>
InChI=1S/C21H19Cl2N3O/c22-17-7-6-14(10-18(17)23)11-21(27)24-12-15-3-1-4-16(9-15)19-13-26-8-2-5-20(26)25-19/h1,3-4,6-7,9-10,13H,2,5,8,11-12H2,(H,24,27)

>  <InChI Key>
QOIRVBBMKNKETR-UHFFFAOYSA-N

>  <BindingDB>
50465599

>  <PubChem>
134369623

>  <ChEMBL>
CHEMBL4288724

$$$$
Compound 992
Actelion Java MolfileCreator 2.0

  0  0  0  0  0  0              0 V3000
M  V30 BEGIN CTAB
M  V30 COUNTS 39 43 0 0 0
M  V30 BEGIN ATOM
M  V30 1 O 0.0 0.0 0.0 0
M  V30 2 C 1.4901 0.0354 0.0 0
M  V30 3 N 2.2115 1.36 0.0 0
M  V30 4 C 2.2469 -1.2417 0.0 0
M  V30 5 C 3.7016 1.3955 0.0 0
M  V30 6 C 1.4309 2.6609 0.0 0 CFG=1
M  V30 7 C 3.7371 -1.2062 0.0 0
M  V30 8 N 4.423 2.72 0.0 0
M  V30 9 C 4.4585 0.1182 0.0 0
M  V30 10 C 2.1523 3.9854 0.0 0
M  V30 11 C -0.0827 2.649 0.0 0
M  V30 12 C 4.4939 -2.4835 0.0 0
M  V30 13 C 5.9131 2.7555 0.0 0
M  V30 14 C 5.9486 0.1537 0.0 0
M  V30 15 C 1.3718 5.2863 0.0 0
M  V30 16 C -0.8633 3.9499 0.0 0
M  V30 17 N 6.67 1.4782 0.0 0
M  V30 18 N 6.6345 4.08 0.0 0
M  V30 19 C -0.1419 5.2745 0.0 0 CFG=2
M  V30 20 C 8.1246 4.1155 0.0 0
M  V30 21 N -0.9224 6.5754 0.0 0
M  V30 22 C 8.846 5.44 0.0 0
M  V30 23 C 8.8815 2.8383 0.0 0
M  V30 24 C -0.201 7.8999 0.0 0
M  V30 25 O 8.0655 6.7409 0.0 0
M  V30 26 C 10.3361 5.4755 0.0 0
M  V30 27 C 10.3716 2.8737 0.0 0
M  V30 28 O 1.289 7.9354 0.0 0
M  V30 29 C -0.9815 9.2008 0.0 0
M  V30 30 C 8.7869 8.0655 0.0 0
M  V30 31 C 11.093 4.1983 0.0 0
M  V30 32 C -0.2601 10.5254 0.0 0
M  V30 33 N 12.5831 4.2338 0.0 0
M  V30 34 C 13.34 2.9565 0.0 0
M  V30 35 C 13.3045 5.5583 0.0 0
M  V30 36 C 14.8301 2.992 0.0 0
M  V30 37 C 14.7946 5.5938 0.0 0
M  V30 38 N 15.5515 4.3165 0.0 0
M  V30 39 C 17.0416 4.352 0.0 0
M  V30 END ATOM
M  V30 BEGIN BOND
M  V30 1 2 1 2
M  V30 2 1 2 3
M  V30 3 1 2 4
M  V30 4 1 3 5
M  V30 5 1 6 3 CFG=3
M  V30 6 2 4 7
M  V30 7 2 5 8
M  V30 8 1 5 9
M  V30 9 1 6 10
M  V30 10 1 6 11
M  V30 11 1 7 12
M  V30 12 1 8 13
M  V30 13 2 9 14
M  V30 14 1 10 15
M  V30 15 1 11 16
M  V30 16 2 13 17
M  V30 17 1 13 18
M  V30 18 1 15 19
M  V30 19 1 18 20
M  V30 20 1 19 21 CFG=3
M  V30 21 2 20 22
M  V30 22 1 20 23
M  V30 23 1 21 24
M  V30 24 1 22 25
M  V30 25 1 22 26
M  V30 26 2 23 27
M  V30 27 2 24 28
M  V30 28 1 24 29
M  V30 29 1 25 30
M  V30 30 2 26 31
M  V30 31 1 29 32
M  V30 32 1 31 33
M  V30 33 1 33 34
M  V30 34 1 33 35
M  V30 35 1 34 36
M  V30 36 1 35 37
M  V30 37 1 36 38
M  V30 38 1 38 39
M  V30 39 1 7 9
M  V30 40 1 14 17
M  V30 41 1 16 19
M  V30 42 1 27 31
M  V30 43 1 37 38
M  V30 END BOND
M  V30 BEGIN COLLECTION
M  V30 MDLV30/STEABS ATOMS=(2 6 19)
M  V30 END COLLECTION
M  V30 END CTAB
M  END
>  <Compound ID>
279

>  <Name>


>  <Uniprot>
P33981

>  <Target>
TTK

>  <Smiles>
CCC(=O)N[C@H]1CC[C@@H](N2C(=O)C=C(C)C3=CN=C(NC4=CC=C(N5CCN(C)CC5)C=C4OC)N=C32)CC1

>  <Kd (nM)>
0.7

>  <Assay (Kd)>
Kd of TTK

>  <Ki (nM)>


>  <Assay (Ki)>


>  <IC50 (nM)>


>  <Assay (IC50)>


>  <EC50 (nM)>


>  <Assay (EC50)>


>  <Article DOI>
10.1021/acs.jmedchem.1c01768

>  <Molecular Weight>
533.677

>  <Exact Mass>
533.311438108

>  <XLogP3>
2.95

>  <Heavy Atom Count>
39

>  <Ring Count>
5

>  <Hydrogen Bond Acceptor Count>
9

>  <Hydrogen Bond Donor Count>
2

>  <Rotatable Bond Count>
7

>  <Topological Polar Surface Area>
104.62

>  <Molecular Formula>
C29H39N7O3

>  <InChI>
InChI=1S/C29H39N7O3/c1-5-26(37)31-20-6-8-21(9-7-20)36-27(38)16-19(2)23-18-30-29(33-28(23)36)32-24-11-10-22(17-25(24)39-4)35-14-12-34(3)13-15-35/h10-11,16-18,20-21H,5-9,12-15H2,1-4H3,(H,31,37)(H,30,32,33)/t20-,21+

>  <InChI Key>
BZFRLXSVKCBWHB-OYRHEFFESA-N

>  <BindingDB>


>  <PubChem>


>  <ChEMBL>


$$$$
Compound 993
Actelion Java MolfileCreator 2.0

  0  0  0  0  0  0              0 V3000
M  V30 BEGIN CTAB
M  V30 COUNTS 27 29 0 0 0
M  V30 BEGIN ATOM
M  V30 1 S 0.0 0.0 0.0 0
M  V30 2 O -1.0881 -1.0408 0.0 0
M  V30 3 O 1.0644 1.0644 0.0 0
M  V30 4 C 1.0408 -1.0644 0.0 0
M  V30 5 C -1.0644 1.0881 0.0 0
M  V30 6 C 0.6268 -2.5074 0.0 0
M  V30 7 C 2.4837 -0.6859 0.0 0
M  V30 8 C 0.0 2.1525 0.0 0
M  V30 9 C -2.1525 0.0473 0.0 0
M  V30 10 C -2.1289 2.1762 0.0 0
M  V30 11 O -0.8397 -2.8622 0.0 0
M  V30 12 C 1.6676 -3.5718 0.0 0
M  V30 13 C 3.5245 -1.7504 0.0 0
M  V30 14 C -1.9042 -1.7741 0.0 0
M  V30 15 C 3.1106 -3.1933 0.0 0
M  V30 16 C 4.9675 -1.3719 0.0 0
M  V30 17 N 4.1514 -4.2578 0.0 0
M  V30 18 N 6.0083 -2.4364 0.0 0
M  V30 19 N 5.3578 0.0946 0.0 0
M  V30 20 C 5.5943 -3.8793 0.0 0
M  V30 21 C 6.8007 0.473 0.0 0
M  V30 22 N 7.3448 1.8805 0.0 0
M  V30 23 C 7.948 -0.473 0.0 0
M  V30 24 N 8.835 1.7977 0.0 0
M  V30 25 C 9.2135 0.3429 0.0 0
M  V30 26 C 7.8415 -1.9633 0.0 0
M  V30 27 C 10.5973 -0.201 0.0 0
M  V30 END ATOM
M  V30 BEGIN BOND
M  V30 1 2 1 2
M  V30 2 2 1 3
M  V30 3 1 1 4
M  V30 4 1 1 5
M  V30 5 1 4 6
M  V30 6 2 4 7
M  V30 7 1 5 8
M  V30 8 1 5 9
M  V30 9 1 5 10
M  V30 10 1 6 11
M  V30 11 2 6 12
M  V30 12 1 7 13
M  V30 13 1 11 14
M  V30 14 1 12 15
M  V30 15 2 13 16
M  V30 16 2 15 17
M  V30 17 1 16 18
M  V30 18 1 16 19
M  V30 19 1 17 20
M  V30 20 1 19 21
M  V30 21 2 21 22
M  V30 22 1 21 23
M  V30 23 1 22 24
M  V30 24 2 23 25
M  V30 25 1 23 26
M  V30 26 1 25 27
M  V30 27 1 13 15
M  V30 28 2 18 20
M  V30 29 1 24 25
M  V30 END BOND
M  V30 END CTAB
M  END
>  <Compound ID>
280

>  <Name>


>  <Uniprot>
O43353

>  <Target>
RIPK2

>  <Smiles>
COC1=CC2=NC=NC(NC3=N[NH]C(C)=C3C)=C2C=C1S(=O)(=O)C(C)(C)C

>  <Kd (nM)>


>  <Assay (Kd)>


>  <Ki (nM)>


>  <Assay (Ki)>


>  <IC50 (nM)>
1

>  <Assay (IC50)>
IC50 was assessed by fluorescence polarization assay

>  <EC50 (nM)>


>  <Assay (EC50)>


>  <Article DOI>
10.1021/acsmedchemlett.8b00344

>  <Molecular Weight>
389.481

>  <Exact Mass>
389.152160596

>  <XLogP3>
3.0

>  <Heavy Atom Count>
27

>  <Ring Count>
3

>  <Hydrogen Bond Acceptor Count>
7

>  <Hydrogen Bond Donor Count>
2

>  <Rotatable Bond Count>
4

>  <Topological Polar Surface Area>
109.86

>  <Molecular Formula>
C18H23N5O3S

>  <InChI>
InChI=1S/C18H23N5O3S/c1-10-11(2)22-23-16(10)21-17-12-7-15(27(24,25)18(3,4)5)14(26-6)8-13(12)19-9-20-17/h7-9H,1-6H3,(H2,19,20,21,22,23)

>  <InChI Key>
LLJFMVIGBWDCOB-UHFFFAOYSA-N

>  <BindingDB>


>  <PubChem>
71259213

>  <ChEMBL>


$$$$
Compound 994
Actelion Java MolfileCreator 2.0

  0  0  0  0  0  0              0 V3000
M  V30 BEGIN CTAB
M  V30 COUNTS 33 36 0 0 0
M  V30 BEGIN ATOM
M  V30 1 Cl 0.0 0.0 0.0 0
M  V30 2 C 0.7795 -1.2638 0.0 0
M  V30 3 C 2.2677 -1.2047 0.0 0
M  V30 4 C 0.059 -2.5748 0.0 0
M  V30 5 F 2.9646 0.1299 0.0 0
M  V30 6 C 3.0473 -2.4685 0.0 0
M  V30 7 C 0.8386 -3.8386 0.0 0
M  V30 8 C 2.3268 -3.7796 0.0 0
M  V30 9 N 0.1181 -5.1497 0.0 0
M  V30 10 C 0.8976 -6.4135 0.0 0
M  V30 11 N 2.3858 -6.3544 0.0 0
M  V30 12 C 0.1771 -7.7245 0.0 0
M  V30 13 C 3.1654 -7.6182 0.0 0
M  V30 14 C 0.9567 -8.9883 0.0 0
M  V30 15 C -1.3346 -7.76 0.0 0
M  V30 16 N 2.4449 -8.9293 0.0 0
M  V30 17 C 0.2362 -10.2994 0.0 0
M  V30 18 C -2.0551 -9.071 0.0 0
M  V30 19 C -1.2756 -10.3348 0.0 0
M  V30 20 N -3.567 -9.1064 0.0 0
M  V30 21 O -1.9961 -11.6459 0.0 0
M  V30 22 C -4.3701 -7.819 0.0 0
M  V30 23 C -1.2165 -12.9097 0.0 0
M  V30 24 O -3.6733 -6.4843 0.0 0
M  V30 25 C -5.882 -7.8544 0.0 0
M  V30 26 C -6.6851 -6.567 0.0 0
M  V30 27 C -8.197 -6.6025 0.0 0
M  V30 28 N -9.0001 -5.315 0.0 0
M  V30 29 C -8.3033 -3.9803 0.0 0
M  V30 30 C -10.512 -5.3505 0.0 0
M  V30 31 C -9.1064 -2.6929 0.0 0
M  V30 32 C -11.3152 -4.063 0.0 0
M  V30 33 C -10.6183 -2.7284 0.0 0
M  V30 END ATOM
M  V30 BEGIN BOND
M  V30 1 1 1 2
M  V30 2 2 2 3
M  V30 3 1 2 4
M  V30 4 1 3 5
M  V30 5 1 3 6
M  V30 6 2 4 7
M  V30 7 2 6 8
M  V30 8 1 7 9
M  V30 9 1 9 10
M  V30 10 2 10 11
M  V30 11 1 10 12
M  V30 12 1 11 13
M  V30 13 1 12 14
M  V30 14 2 12 15
M  V30 15 2 13 16
M  V30 16 2 14 17
M  V30 17 1 15 18
M  V30 18 1 17 19
M  V30 19 1 18 20
M  V30 20 1 19 21
M  V30 21 1 20 22
M  V30 22 1 21 23
M  V30 23 2 22 24
M  V30 24 1 22 25
M  V30 25 2 25 26
M  V30 26 1 26 27
M  V30 27 1 27 28
M  V30 28 1 28 29
M  V30 29 1 28 30
M  V30 30 1 29 31
M  V30 31 1 30 32
M  V30 32 1 31 33
M  V30 33 1 7 8
M  V30 34 1 14 16
M  V30 35 2 18 19
M  V30 36 1 32 33
M  V30 END BOND
M  V30 END CTAB
M  END
>  <Compound ID>
281

>  <Name>
Dacomitinib

>  <Uniprot>
P00533

>  <Target>
EGFR e19d

>  <Smiles>
COC1=CC2=NC=NC(NC3=CC=C(F)C(Cl)=C3)=C2C=C1NC(=O)/C=C/CN1CCCCC1

>  <Kd (nM)>


>  <Assay (Kd)>


>  <Ki (nM)>


>  <Assay (Ki)>


>  <IC50 (nM)>
7

>  <Assay (IC50)>
Inhibit proliferation of HCC-827 (EGFRdel19) cells

>  <EC50 (nM)>


>  <Assay (EC50)>


>  <Article DOI>
10.1016/j.bioorg.2022.105605

>  <Molecular Weight>
469.948

>  <Exact Mass>
469.16808094

>  <XLogP3>
4.43

>  <Heavy Atom Count>
33

>  <Ring Count>
4

>  <Hydrogen Bond Acceptor Count>
6

>  <Hydrogen Bond Donor Count>
2

>  <Rotatable Bond Count>
7

>  <Topological Polar Surface Area>
79.38

>  <Molecular Formula>
C24H25ClFN5O2

>  <InChI>
InChI=1S/C24H25ClFN5O2/c1-33-22-14-20-17(24(28-15-27-20)29-16-7-8-19(26)18(25)12-16)13-21(22)30-23(32)6-5-11-31-9-3-2-4-10-31/h5-8,12-15H,2-4,9-11H2,1H3,(H,30,32)(H,27,28,29)/b6-5+

>  <InChI Key>
LVXJQMNHJWSHET-AATRIKPKSA-N

>  <BindingDB>
112499

>  <PubChem>
11511120

>  <ChEMBL>
CHEMBL2110732

$$$$
Compound 995
Actelion Java MolfileCreator 2.0

  0  0  0  0  0  0              0 V3000
M  V30 BEGIN CTAB
M  V30 COUNTS 33 36 0 0 0
M  V30 BEGIN ATOM
M  V30 1 Cl 0.0 0.0 0.0 0
M  V30 2 C 0.7795 -1.2638 0.0 0
M  V30 3 C 2.2677 -1.2047 0.0 0
M  V30 4 C 0.059 -2.5748 0.0 0
M  V30 5 F 2.9646 0.1299 0.0 0
M  V30 6 C 3.0473 -2.4685 0.0 0
M  V30 7 C 0.8386 -3.8386 0.0 0
M  V30 8 C 2.3268 -3.7796 0.0 0
M  V30 9 N 0.1181 -5.1497 0.0 0
M  V30 10 C 0.8976 -6.4135 0.0 0
M  V30 11 N 2.3858 -6.3544 0.0 0
M  V30 12 C 0.1771 -7.7245 0.0 0
M  V30 13 C 3.1654 -7.6182 0.0 0
M  V30 14 C 0.9567 -8.9883 0.0 0
M  V30 15 C -1.3346 -7.76 0.0 0
M  V30 16 N 2.4449 -8.9293 0.0 0
M  V30 17 C 0.2362 -10.2994 0.0 0
M  V30 18 C -2.0551 -9.071 0.0 0
M  V30 19 C -1.2756 -10.3348 0.0 0
M  V30 20 N -3.567 -9.1064 0.0 0
M  V30 21 O -1.9961 -11.6459 0.0 0
M  V30 22 C -4.3701 -7.819 0.0 0
M  V30 23 C -1.2165 -12.9097 0.0 0
M  V30 24 O -3.6733 -6.4843 0.0 0
M  V30 25 C -5.882 -7.8544 0.0 0
M  V30 26 C -6.6851 -6.567 0.0 0
M  V30 27 C -8.197 -6.6025 0.0 0
M  V30 28 N -9.0001 -5.315 0.0 0
M  V30 29 C -8.3033 -3.9803 0.0 0
M  V30 30 C -10.512 -5.3505 0.0 0
M  V30 31 C -9.1064 -2.6929 0.0 0
M  V30 32 C -11.3152 -4.063 0.0 0
M  V30 33 C -10.6183 -2.7284 0.0 0
M  V30 END ATOM
M  V30 BEGIN BOND
M  V30 1 1 1 2
M  V30 2 2 2 3
M  V30 3 1 2 4
M  V30 4 1 3 5
M  V30 5 1 3 6
M  V30 6 2 4 7
M  V30 7 2 6 8
M  V30 8 1 7 9
M  V30 9 1 9 10
M  V30 10 2 10 11
M  V30 11 1 10 12
M  V30 12 1 11 13
M  V30 13 1 12 14
M  V30 14 2 12 15
M  V30 15 2 13 16
M  V30 16 2 14 17
M  V30 17 1 15 18
M  V30 18 1 17 19
M  V30 19 1 18 20
M  V30 20 1 19 21
M  V30 21 1 20 22
M  V30 22 1 21 23
M  V30 23 2 22 24
M  V30 24 1 22 25
M  V30 25 2 25 26
M  V30 26 1 26 27
M  V30 27 1 27 28
M  V30 28 1 28 29
M  V30 29 1 28 30
M  V30 30 1 29 31
M  V30 31 1 30 32
M  V30 32 1 31 33
M  V30 33 1 7 8
M  V30 34 1 14 16
M  V30 35 2 18 19
M  V30 36 1 32 33
M  V30 END BOND
M  V30 END CTAB
M  END
>  <Compound ID>
281

>  <Name>
Dacomitinib

>  <Uniprot>
P00533

>  <Target>
EGFR

>  <Smiles>
COC1=CC2=NC=NC(NC3=CC=C(F)C(Cl)=C3)=C2C=C1NC(=O)/C=C/CN1CCCCC1

>  <Kd (nM)>


>  <Assay (Kd)>


>  <Ki (nM)>


>  <Assay (Ki)>


>  <IC50 (nM)>
1.8

>  <Assay (IC50)>
IC50 was assessed by ELISA method

>  <EC50 (nM)>


>  <Assay (EC50)>


>  <Article DOI>
10.1016/j.ejmech.2015.08.026

>  <Molecular Weight>
469.948

>  <Exact Mass>
469.16808094

>  <XLogP3>
4.43

>  <Heavy Atom Count>
33

>  <Ring Count>
4

>  <Hydrogen Bond Acceptor Count>
6

>  <Hydrogen Bond Donor Count>
2

>  <Rotatable Bond Count>
7

>  <Topological Polar Surface Area>
79.38

>  <Molecular Formula>
C24H25ClFN5O2

>  <InChI>
InChI=1S/C24H25ClFN5O2/c1-33-22-14-20-17(24(28-15-27-20)29-16-7-8-19(26)18(25)12-16)13-21(22)30-23(32)6-5-11-31-9-3-2-4-10-31/h5-8,12-15H,2-4,9-11H2,1H3,(H,30,32)(H,27,28,29)/b6-5+

>  <InChI Key>
LVXJQMNHJWSHET-AATRIKPKSA-N

>  <BindingDB>
112499

>  <PubChem>
11511120

>  <ChEMBL>
CHEMBL2110732

$$$$
Compound 996
Actelion Java MolfileCreator 2.0

  0  0  0  0  0  0              0 V3000
M  V30 BEGIN CTAB
M  V30 COUNTS 25 27 0 0 0
M  V30 BEGIN ATOM
M  V30 1 S 0.0 0.0 0.0 0
M  V30 2 C 0.0117 1.5033 0.0 0
M  V30 3 C 1.3976 -0.4698 0.0 0
M  V30 4 C -1.1979 2.4077 0.0 0
M  V30 5 C 1.4211 1.9614 0.0 0
M  V30 6 C 2.2785 0.7399 0.0 0
M  V30 7 C -2.5839 1.8322 0.0 0
M  V30 8 C -1.0335 3.8993 0.0 0
M  V30 9 C -3.7936 2.7365 0.0 0
M  V30 10 C -2.2432 4.8037 0.0 0
M  V30 11 N -5.1795 2.161 0.0 0
M  V30 12 C -3.6292 4.2282 0.0 0
M  V30 13 C -6.3892 3.0654 0.0 0
M  V30 14 N -4.8389 5.1325 0.0 0
M  V30 15 O -6.2248 4.557 0.0 0
M  V30 16 C -7.7751 2.4899 0.0 0
M  V30 17 C -8.9849 3.3943 0.0 0
M  V30 18 C -7.9631 1.0218 0.0 0
M  V30 19 C -10.3708 2.8188 0.0 0
M  V30 20 C -9.349 0.4463 0.0 0
M  V30 21 C -10.5587 1.3506 0.0 0
M  V30 22 N -11.9446 0.7751 0.0 0
M  V30 23 C -13.1544 1.6795 0.0 0
M  V30 24 O -12.9899 3.1711 0.0 0
M  V30 25 C -14.5403 1.104 0.0 0
M  V30 END ATOM
M  V30 BEGIN BOND
M  V30 1 1 1 2
M  V30 2 1 1 3
M  V30 3 1 2 4
M  V30 4 2 2 5
M  V30 5 2 3 6
M  V30 6 2 4 7
M  V30 7 1 4 8
M  V30 8 1 7 9
M  V30 9 2 8 10
M  V30 10 1 9 11
M  V30 11 2 9 12
M  V30 12 1 11 13
M  V30 13 1 12 14
M  V30 14 2 13 15
M  V30 15 1 13 16
M  V30 16 2 16 17
M  V30 17 1 16 18
M  V30 18 1 17 19
M  V30 19 2 18 20
M  V30 20 2 19 21
M  V30 21 1 21 22
M  V30 22 1 22 23
M  V30 23 2 23 24
M  V30 24 1 23 25
M  V30 25 1 5 6
M  V30 26 1 10 12
M  V30 27 1 20 21
M  V30 END BOND
M  V30 END CTAB
M  END
>  <Compound ID>
282

>  <Name>
BRD-6929

>  <Uniprot>
Q13547

>  <Target>
HDAC1

>  <Smiles>
CC(=O)NC1=CC=C(C(=O)NC2=CC(C3=CC=CS3)=CC=C2N)C=C1

>  <Kd (nM)>


>  <Assay (Kd)>


>  <Ki (nM)>


>  <Assay (Ki)>


>  <IC50 (nM)>
7

>  <Assay (IC50)>
IC50 was assessed by biochemical activity assay

>  <EC50 (nM)>


>  <Assay (EC50)>


>  <Article DOI>
10.1016/j.bmcl.2007.12.031

>  <Molecular Weight>
351.431

>  <Exact Mass>
351.104147784

>  <XLogP3>
2.59

>  <Heavy Atom Count>
25

>  <Ring Count>
3

>  <Hydrogen Bond Acceptor Count>
4

>  <Hydrogen Bond Donor Count>
3

>  <Rotatable Bond Count>
4

>  <Topological Polar Surface Area>
84.22

>  <Molecular Formula>
C19H17N3O2S

>  <InChI>
InChI=1S/C19H17N3O2S/c1-12(23)21-15-7-4-13(5-8-15)19(24)22-17-11-14(6-9-16(17)20)18-3-2-10-25-18/h2-11H,20H2,1H3,(H,21,23)(H,22,24)

>  <InChI Key>
ABZSPJVXTTUFAA-UHFFFAOYSA-N

>  <BindingDB>
19423

>  <PubChem>
6918878

>  <ChEMBL>
CHEMBL235842

$$$$
Compound 997
Actelion Java MolfileCreator 2.0

  0  0  0  0  0  0              0 V3000
M  V30 BEGIN CTAB
M  V30 COUNTS 25 27 0 0 0
M  V30 BEGIN ATOM
M  V30 1 S 0.0 0.0 0.0 0
M  V30 2 C 0.0117 1.5033 0.0 0
M  V30 3 C 1.3976 -0.4698 0.0 0
M  V30 4 C -1.1979 2.4077 0.0 0
M  V30 5 C 1.4211 1.9614 0.0 0
M  V30 6 C 2.2785 0.7399 0.0 0
M  V30 7 C -2.5839 1.8322 0.0 0
M  V30 8 C -1.0335 3.8993 0.0 0
M  V30 9 C -3.7936 2.7365 0.0 0
M  V30 10 C -2.2432 4.8037 0.0 0
M  V30 11 N -5.1795 2.161 0.0 0
M  V30 12 C -3.6292 4.2282 0.0 0
M  V30 13 C -6.3892 3.0654 0.0 0
M  V30 14 N -4.8389 5.1325 0.0 0
M  V30 15 O -6.2248 4.557 0.0 0
M  V30 16 C -7.7751 2.4899 0.0 0
M  V30 17 C -8.9849 3.3943 0.0 0
M  V30 18 C -7.9631 1.0218 0.0 0
M  V30 19 C -10.3708 2.8188 0.0 0
M  V30 20 C -9.349 0.4463 0.0 0
M  V30 21 C -10.5587 1.3506 0.0 0
M  V30 22 N -11.9446 0.7751 0.0 0
M  V30 23 C -13.1544 1.6795 0.0 0
M  V30 24 O -12.9899 3.1711 0.0 0
M  V30 25 C -14.5403 1.104 0.0 0
M  V30 END ATOM
M  V30 BEGIN BOND
M  V30 1 1 1 2
M  V30 2 1 1 3
M  V30 3 1 2 4
M  V30 4 2 2 5
M  V30 5 2 3 6
M  V30 6 2 4 7
M  V30 7 1 4 8
M  V30 8 1 7 9
M  V30 9 2 8 10
M  V30 10 1 9 11
M  V30 11 2 9 12
M  V30 12 1 11 13
M  V30 13 1 12 14
M  V30 14 2 13 15
M  V30 15 1 13 16
M  V30 16 2 16 17
M  V30 17 1 16 18
M  V30 18 1 17 19
M  V30 19 2 18 20
M  V30 20 2 19 21
M  V30 21 1 21 22
M  V30 22 1 22 23
M  V30 23 2 23 24
M  V30 24 1 23 25
M  V30 25 1 5 6
M  V30 26 1 10 12
M  V30 27 1 20 21
M  V30 END BOND
M  V30 END CTAB
M  END
>  <Compound ID>
282

>  <Name>
BRD-6929

>  <Uniprot>
Q92769

>  <Target>
HDAC2

>  <Smiles>
CC(=O)NC1=CC=C(C(=O)NC2=CC(C3=CC=CS3)=CC=C2N)C=C1

>  <Kd (nM)>


>  <Assay (Kd)>


>  <Ki (nM)>


>  <Assay (Ki)>


>  <IC50 (nM)>
49

>  <Assay (IC50)>
IC50 was assessed by biochemical activity assay

>  <EC50 (nM)>


>  <Assay (EC50)>


>  <Article DOI>
10.1016/j.bmcl.2007.12.031

>  <Molecular Weight>
351.431

>  <Exact Mass>
351.104147784

>  <XLogP3>
2.59

>  <Heavy Atom Count>
25

>  <Ring Count>
3

>  <Hydrogen Bond Acceptor Count>
4

>  <Hydrogen Bond Donor Count>
3

>  <Rotatable Bond Count>
4

>  <Topological Polar Surface Area>
84.22

>  <Molecular Formula>
C19H17N3O2S

>  <InChI>
InChI=1S/C19H17N3O2S/c1-12(23)21-15-7-4-13(5-8-15)19(24)22-17-11-14(6-9-16(17)20)18-3-2-10-25-18/h2-11H,20H2,1H3,(H,21,23)(H,22,24)

>  <InChI Key>
ABZSPJVXTTUFAA-UHFFFAOYSA-N

>  <BindingDB>
19423

>  <PubChem>
6918878

>  <ChEMBL>
CHEMBL235842

$$$$
Compound 998
Actelion Java MolfileCreator 2.0

  0  0  0  0  0  0              0 V3000
M  V30 BEGIN CTAB
M  V30 COUNTS 25 27 0 0 0
M  V30 BEGIN ATOM
M  V30 1 S 0.0 0.0 0.0 0
M  V30 2 C 0.0117 1.5033 0.0 0
M  V30 3 C 1.3976 -0.4698 0.0 0
M  V30 4 C -1.1979 2.4077 0.0 0
M  V30 5 C 1.4211 1.9614 0.0 0
M  V30 6 C 2.2785 0.7399 0.0 0
M  V30 7 C -2.5839 1.8322 0.0 0
M  V30 8 C -1.0335 3.8993 0.0 0
M  V30 9 C -3.7936 2.7365 0.0 0
M  V30 10 C -2.2432 4.8037 0.0 0
M  V30 11 N -5.1795 2.161 0.0 0
M  V30 12 C -3.6292 4.2282 0.0 0
M  V30 13 C -6.3892 3.0654 0.0 0
M  V30 14 N -4.8389 5.1325 0.0 0
M  V30 15 O -6.2248 4.557 0.0 0
M  V30 16 C -7.7751 2.4899 0.0 0
M  V30 17 C -8.9849 3.3943 0.0 0
M  V30 18 C -7.9631 1.0218 0.0 0
M  V30 19 C -10.3708 2.8188 0.0 0
M  V30 20 C -9.349 0.4463 0.0 0
M  V30 21 C -10.5587 1.3506 0.0 0
M  V30 22 N -11.9446 0.7751 0.0 0
M  V30 23 C -13.1544 1.6795 0.0 0
M  V30 24 O -12.9899 3.1711 0.0 0
M  V30 25 C -14.5403 1.104 0.0 0
M  V30 END ATOM
M  V30 BEGIN BOND
M  V30 1 1 1 2
M  V30 2 1 1 3
M  V30 3 1 2 4
M  V30 4 2 2 5
M  V30 5 2 3 6
M  V30 6 2 4 7
M  V30 7 1 4 8
M  V30 8 1 7 9
M  V30 9 2 8 10
M  V30 10 1 9 11
M  V30 11 2 9 12
M  V30 12 1 11 13
M  V30 13 1 12 14
M  V30 14 2 13 15
M  V30 15 1 13 16
M  V30 16 2 16 17
M  V30 17 1 16 18
M  V30 18 1 17 19
M  V30 19 2 18 20
M  V30 20 2 19 21
M  V30 21 1 21 22
M  V30 22 1 22 23
M  V30 23 2 23 24
M  V30 24 1 23 25
M  V30 25 1 5 6
M  V30 26 1 10 12
M  V30 27 1 20 21
M  V30 END BOND
M  V30 END CTAB
M  END
>  <Compound ID>
282

>  <Name>
BRD-6929

>  <Uniprot>
O15379

>  <Target>
HDAC3

>  <Smiles>
CC(=O)NC1=CC=C(C(=O)NC2=CC(C3=CC=CS3)=CC=C2N)C=C1

>  <Kd (nM)>


>  <Assay (Kd)>


>  <Ki (nM)>


>  <Assay (Ki)>


>  <IC50 (nM)>
10000

>  <Assay (IC50)>
IC50 was assessed by biochemical activity assay

>  <EC50 (nM)>


>  <Assay (EC50)>


>  <Article DOI>
10.1016/j.bmcl.2007.12.031

>  <Molecular Weight>
351.431

>  <Exact Mass>
351.104147784

>  <XLogP3>
2.59

>  <Heavy Atom Count>
25

>  <Ring Count>
3

>  <Hydrogen Bond Acceptor Count>
4

>  <Hydrogen Bond Donor Count>
3

>  <Rotatable Bond Count>
4

>  <Topological Polar Surface Area>
84.22

>  <Molecular Formula>
C19H17N3O2S

>  <InChI>
InChI=1S/C19H17N3O2S/c1-12(23)21-15-7-4-13(5-8-15)19(24)22-17-11-14(6-9-16(17)20)18-3-2-10-25-18/h2-11H,20H2,1H3,(H,21,23)(H,22,24)

>  <InChI Key>
ABZSPJVXTTUFAA-UHFFFAOYSA-N

>  <BindingDB>
19423

>  <PubChem>
6918878

>  <ChEMBL>
CHEMBL235842

$$$$
Compound 999
Actelion Java MolfileCreator 2.0

  0  0  0  0  0  0              0 V3000
M  V30 BEGIN CTAB
M  V30 COUNTS 28 30 0 0 0
M  V30 BEGIN ATOM
M  V30 1 N 0.0 0.0 0.0 0
M  V30 2 C -0.3423 1.4756 0.0 0
M  V30 3 C -1.1096 -1.0034 0.0 0
M  V30 4 N 0.7437 2.5026 0.0 0
M  V30 5 C -1.7825 1.936 0.0 0
M  V30 6 N -2.5498 -0.543 0.0 0
M  V30 7 C -1.1096 -2.4908 0.0 0
M  V30 8 C 2.1603 2.0658 0.0 0
M  V30 9 C -2.8922 0.9326 0.0 0
M  V30 10 N -3.4352 -1.7589 0.0 0
M  V30 11 C -2.538 -2.963 0.0 0
M  V30 12 C 0.1062 -3.3526 0.0 0
M  V30 13 C 3.2463 3.0929 0.0 0
M  V30 14 N -4.3324 1.3929 0.0 0
M  V30 15 C -0.0472 -4.8282 0.0 0
M  V30 16 C 1.452 -2.7151 0.0 0
M  V30 17 C 4.663 2.6561 0.0 0
M  V30 18 C -4.6748 2.8686 0.0 0
M  V30 19 C 5.749 3.6831 0.0 0
M  V30 20 C -6.115 3.329 0.0 0
M  V30 21 C 7.1656 3.2463 0.0 0
M  V30 22 C -6.4573 4.8046 0.0 0
M  V30 23 C -7.2247 2.3255 0.0 0
M  V30 24 C 8.2517 4.2734 0.0 0
M  V30 25 C -7.8975 5.265 0.0 0
M  V30 26 C -8.6649 2.7859 0.0 0
M  V30 27 N 9.6683 3.8366 0.0 0
M  V30 28 C -9.0072 4.2616 0.0 0
M  V30 END ATOM
M  V30 BEGIN BOND
M  V30 1 2 1 2
M  V30 2 1 1 3
M  V30 3 1 2 4
M  V30 4 1 2 5
M  V30 5 1 3 6
M  V30 6 2 3 7
M  V30 7 1 4 8
M  V30 8 2 5 9
M  V30 9 1 6 10
M  V30 10 1 7 11
M  V30 11 1 7 12
M  V30 12 1 8 13
M  V30 13 1 9 14
M  V30 14 1 12 15
M  V30 15 1 12 16
M  V30 16 1 13 17
M  V30 17 1 14 18
M  V30 18 1 17 19
M  V30 19 1 18 20
M  V30 20 1 19 21
M  V30 21 2 20 22
M  V30 22 1 20 23
M  V30 23 1 21 24
M  V30 24 1 22 25
M  V30 25 2 23 26
M  V30 26 1 24 27
M  V30 27 2 25 28
M  V30 28 1 6 9
M  V30 29 2 10 11
M  V30 30 1 26 28
M  V30 END BOND
M  V30 END CTAB
M  END
>  <Compound ID>
283

>  <Name>
BS-181

>  <Uniprot>
P50750

>  <Target>
CDK9

>  <Smiles>
CC(C)C1=C2N=C(NCCCCCCN)C=C(NCC3=CC=CC=C3)N2N=C1

>  <Kd (nM)>


>  <Assay (Kd)>


>  <Ki (nM)>


>  <Assay (Ki)>


>  <IC50 (nM)>
2180

>  <Assay (IC50)>
Inhibition of CDK9

>  <EC50 (nM)>


>  <Assay (EC50)>


>  <Article DOI>
10.1016/j.ejmech.2016.01.011

>  <Molecular Weight>
380.54

>  <Exact Mass>
380.268845024

>  <XLogP3>
4.07

>  <Heavy Atom Count>
28

>  <Ring Count>
3

>  <Hydrogen Bond Acceptor Count>
6

>  <Hydrogen Bond Donor Count>
3

>  <Rotatable Bond Count>
11

>  <Topological Polar Surface Area>
80.27

>  <Molecular Formula>
C22H32N6

>  <InChI>
InChI=1S/C22H32N6/c1-17(2)19-16-26-28-21(25-15-18-10-6-5-7-11-18)14-20(27-22(19)28)24-13-9-4-3-8-12-23/h5-7,10-11,14,16-17,25H,3-4,8-9,12-13,15,23H2,1-2H3,(H,24,27)

>  <InChI Key>
DNYBIOICMDTDAP-UHFFFAOYSA-N

>  <BindingDB>
50347389

>  <PubChem>
49867929

>  <ChEMBL>
CHEMBL1801932

$$$$
Compound 1000
Actelion Java MolfileCreator 2.0

  0  0  0  0  0  0              0 V3000
M  V30 BEGIN CTAB
M  V30 COUNTS 33 37 0 0 0
M  V30 BEGIN ATOM
M  V30 1 O 0.0 0.0 0.0 0
M  V30 2 C -0.9322 -1.1801 0.0 0
M  V30 3 C 1.4751 -0.1888 0.0 0
M  V30 4 N -2.431 -0.9676 0.0 0
M  V30 5 N -0.3776 -2.5608 0.0 0
M  V30 6 C 2.0297 -1.5695 0.0 0
M  V30 7 C 2.3838 1.0148 0.0 0
M  V30 8 C -3.3632 -2.1477 0.0 0
M  V30 9 C -1.3099 -3.7409 0.0 0
M  V30 10 C 3.5049 -1.7583 0.0 0
M  V30 11 C 3.8589 0.826 0.0 0
M  V30 12 N -2.8086 -3.5285 0.0 0
M  V30 13 N -4.862 -1.9353 0.0 0
M  V30 14 C -1.0502 -5.2042 0.0 0
M  V30 15 N 4.4135 -0.5546 0.0 0
M  V30 16 N -3.4695 -4.8738 0.0 0
M  V30 17 C -5.4402 -0.531 0.0 0
M  V30 18 C -2.3838 -5.9005 0.0 0
M  V30 19 C 0.295 -5.8415 0.0 0
M  V30 20 C 5.8887 -0.7434 0.0 0
M  V30 21 C -6.939 -0.3186 0.0 0
M  V30 22 C 0.4012 -7.3284 0.0 0
M  V30 23 C 1.5223 -4.98 0.0 0
M  V30 24 C -7.8712 -1.4987 0.0 0
M  V30 25 C -7.5172 1.0856 0.0 0
M  V30 26 N -7.3166 -2.8794 0.0 0
M  V30 27 C -9.37 -1.2863 0.0 0
M  V30 28 C -9.0159 1.2981 0.0 0
M  V30 29 C -8.1191 -4.1421 0.0 0
M  V30 30 C -5.8651 -3.2216 0.0 0
M  V30 31 C -9.9482 0.118 0.0 0
M  V30 32 N -7.1632 -5.275 0.0 0
M  V30 33 C -5.7589 -4.7086 0.0 0
M  V30 END ATOM
M  V30 BEGIN BOND
M  V30 1 1 1 2
M  V30 2 1 1 3
M  V30 3 1 2 4
M  V30 4 2 2 5
M  V30 5 1 3 6
M  V30 6 1 3 7
M  V30 7 2 4 8
M  V30 8 1 5 9
M  V30 9 1 6 10
M  V30 10 1 7 11
M  V30 11 1 8 12
M  V30 12 1 8 13
M  V30 13 2 9 14
M  V30 14 1 10 15
M  V30 15 1 12 16
M  V30 16 1 13 17
M  V30 17 1 14 18
M  V30 18 1 14 19
M  V30 19 1 15 20
M  V30 20 1 17 21
M  V30 21 1 19 22
M  V30 22 1 19 23
M  V30 23 2 21 24
M  V30 24 1 21 25
M  V30 25 1 24 26
M  V30 26 1 24 27
M  V30 27 2 25 28
M  V30 28 1 26 29
M  V30 29 1 26 30
M  V30 30 2 27 31
M  V30 31 2 29 32
M  V30 32 2 30 33
M  V30 33 1 9 12
M  V30 34 1 11 15
M  V30 35 2 16 18
M  V30 36 1 28 31
M  V30 37 1 32 33
M  V30 END BOND
M  V30 END CTAB
M  END
>  <Compound ID>
284

>  <Name>
LDC59

>  <Uniprot>
P50750

>  <Target>
CDK9

>  <Smiles>
CC(C)C1=C2N=C(OC3CCN(C)CC3)N=C(NCC3=CC=CC=C3N3C=CN=C3)N2N=C1

>  <Kd (nM)>


>  <Assay (Kd)>


>  <Ki (nM)>


>  <Assay (Ki)>


>  <IC50 (nM)>
3920

>  <Assay (IC50)>
Inhibit growth of MDA-MB-468 cells

>  <EC50 (nM)>


>  <Assay (EC50)>


>  <Article DOI>
10.1021/acs.jmedchem.1c01350

>  <Molecular Weight>
446.559

>  <Exact Mass>
446.25425758

>  <XLogP3>
3.68

>  <Heavy Atom Count>
33

>  <Ring Count>
5

>  <Hydrogen Bond Acceptor Count>
9

>  <Hydrogen Bond Donor Count>
1

>  <Rotatable Bond Count>
7

>  <Topological Polar Surface Area>
85.4

>  <Molecular Formula>
C24H30N8O

>  <InChI>
InChI=1S/C24H30N8O/c1-17(2)20-15-27-32-22(20)28-24(33-19-8-11-30(3)12-9-19)29-23(32)26-14-18-6-4-5-7-21(18)31-13-10-25-16-31/h4-7,10,13,15-17,19H,8-9,11-12,14H2,1-3H3,(H,26,28,29)

>  <InChI Key>
KLTSWTPLJGXFTH-UHFFFAOYSA-N

>  <BindingDB>


>  <PubChem>
71731909

>  <ChEMBL>


$$$$
Compound 1001
Actelion Java MolfileCreator 2.0

  0  0  0  0  0  0              0 V3000
M  V30 BEGIN CTAB
M  V30 COUNTS 31 34 0 0 0
M  V30 BEGIN ATOM
M  V30 1 O 0.0 0.0 0.0 0
M  V30 2 C -0.861 -1.2267 0.0 0
M  V30 3 C 1.4862 -0.1061 0.0 0
M  V30 4 N -2.3708 -1.0969 0.0 0
M  V30 5 N -0.2241 -2.5714 0.0 0
M  V30 6 C 2.1231 -1.4508 0.0 0
M  V30 7 C 2.3236 1.1441 0.0 0
M  V30 8 C -3.2319 -2.3236 0.0 0
M  V30 9 C -1.0851 -3.7981 0.0 0
M  V30 10 C 3.6094 -1.5569 0.0 0
M  V30 11 C 3.8099 1.0379 0.0 0
M  V30 12 N -2.5949 -3.6683 0.0 0
M  V30 13 N -4.7417 -2.1939 0.0 0
M  V30 14 C -0.7549 -5.2489 0.0 0
M  V30 15 N 4.4468 -0.3066 0.0 0
M  V30 16 N -3.1847 -5.0484 0.0 0
M  V30 17 C -5.4023 -0.8256 0.0 0
M  V30 18 C -2.0524 -6.0156 0.0 0
M  V30 19 C 0.6251 -5.8151 0.0 0
M  V30 20 C 5.9331 -0.4128 0.0 0
M  V30 21 C -6.9121 -0.6959 0.0 0
M  V30 22 C 0.802 -7.2895 0.0 0
M  V30 23 C 1.8047 -4.8951 0.0 0
M  V30 24 C -7.7731 -1.9226 0.0 0
M  V30 25 C -7.5726 0.6723 0.0 0
M  V30 26 N -7.1362 -3.2673 0.0 0
M  V30 27 C -9.283 -1.7929 0.0 0
M  V30 28 C -9.0824 0.802 0.0 0
M  V30 29 C -7.9973 -4.494 0.0 0
M  V30 30 C -5.65 -3.3734 0.0 0
M  V30 31 C -9.9435 -0.4246 0.0 0
M  V30 END ATOM
M  V30 BEGIN BOND
M  V30 1 1 1 2
M  V30 2 1 1 3
M  V30 3 1 2 4
M  V30 4 2 2 5
M  V30 5 1 3 6
M  V30 6 1 3 7
M  V30 7 2 4 8
M  V30 8 1 5 9
M  V30 9 1 6 10
M  V30 10 1 7 11
M  V30 11 1 8 12
M  V30 12 1 8 13
M  V30 13 2 9 14
M  V30 14 1 10 15
M  V30 15 1 12 16
M  V30 16 1 13 17
M  V30 17 1 14 18
M  V30 18 1 14 19
M  V30 19 1 15 20
M  V30 20 1 17 21
M  V30 21 1 19 22
M  V30 22 1 19 23
M  V30 23 2 21 24
M  V30 24 1 21 25
M  V30 25 1 24 26
M  V30 26 1 24 27
M  V30 27 2 25 28
M  V30 28 1 26 29
M  V30 29 1 26 30
M  V30 30 2 27 31
M  V30 31 1 9 12
M  V30 32 1 11 15
M  V30 33 2 16 18
M  V30 34 1 28 31
M  V30 END BOND
M  V30 END CTAB
M  END
>  <Compound ID>
285

>  <Name>
LDC3140

>  <Uniprot>
P50750

>  <Target>
CDK9

>  <Smiles>
CC(C)C1=C2N=C(OC3CCN(C)CC3)N=C(NCC3=CC=CC=C3N(C)C)N2N=C1

>  <Kd (nM)>


>  <Assay (Kd)>


>  <Ki (nM)>


>  <Assay (Ki)>


>  <IC50 (nM)>
7450

>  <Assay (IC50)>
Inhibition of CDK9

>  <EC50 (nM)>


>  <Assay (EC50)>


>  <Article DOI>
10.1016/j.ejmech.2019.111641

>  <Molecular Weight>
423.565

>  <Exact Mass>
423.274658676

>  <XLogP3>
4.05

>  <Heavy Atom Count>
31

>  <Ring Count>
4

>  <Hydrogen Bond Acceptor Count>
8

>  <Hydrogen Bond Donor Count>
1

>  <Rotatable Bond Count>
7

>  <Topological Polar Surface Area>
70.82

>  <Molecular Formula>
C23H33N7O

>  <InChI>
InChI=1S/C23H33N7O/c1-16(2)19-15-25-30-21(19)26-23(31-18-10-12-29(5)13-11-18)27-22(30)24-14-17-8-6-7-9-20(17)28(3)4/h6-9,15-16,18H,10-14H2,1-5H3,(H,24,26,27)

>  <InChI Key>
JYPAWUMVEPMZMD-UHFFFAOYSA-N

>  <BindingDB>
50526792

>  <PubChem>
71731769

>  <ChEMBL>
CHEMBL4454044

$$$$
Compound 1002
Actelion Java MolfileCreator 2.0

  0  0  0  0  0  0              0 V3000
M  V30 BEGIN CTAB
M  V30 COUNTS 28 31 0 0 0
M  V30 BEGIN ATOM
M  V30 1 O 0.0 0.0 0.0 0
M  V30 2 C -0.7805 -1.2772 0.0 0
M  V30 3 C 1.4901 -0.0118 0.0 0
M  V30 4 N -2.2943 -1.2417 0.0 0
M  V30 5 N -0.0591 -2.5781 0.0 0
M  V30 6 C 2.2115 -1.3127 0.0 0
M  V30 7 C 2.247 1.289 0.0 0
M  V30 8 C -3.0748 -2.519 0.0 0
M  V30 9 C -0.8396 -3.8553 0.0 0
M  V30 10 C 3.7016 -1.3245 0.0 0
M  V30 11 C 3.7371 1.2772 0.0 0
M  V30 12 N -2.3534 -3.8199 0.0 0
M  V30 13 N -4.5886 -2.4835 0.0 0
M  V30 14 C -0.4139 -5.2745 0.0 0
M  V30 15 N 4.4585 -0.0236 0.0 0
M  V30 16 N -2.8501 -5.2272 0.0 0
M  V30 17 C -5.3336 -1.1589 0.0 0
M  V30 18 C -1.6556 -6.126 0.0 0
M  V30 19 C 0.9934 -5.7476 0.0 0
M  V30 20 C 5.9486 -0.0354 0.0 0
M  V30 21 C -6.8474 -1.1235 0.0 0
M  V30 22 C 1.2654 -7.214 0.0 0
M  V30 23 C 2.1169 -4.7541 0.0 0
M  V30 24 C -7.5925 0.201 0.0 0
M  V30 25 C -7.6279 -2.4007 0.0 0
M  V30 26 C -9.1062 0.2365 0.0 0
M  V30 27 C -9.1417 -2.3652 0.0 0
M  V30 28 C -9.8868 -1.0407 0.0 0
M  V30 END ATOM
M  V30 BEGIN BOND
M  V30 1 1 1 2
M  V30 2 1 1 3
M  V30 3 1 2 4
M  V30 4 2 2 5
M  V30 5 1 3 6
M  V30 6 1 3 7
M  V30 7 2 4 8
M  V30 8 1 5 9
M  V30 9 1 6 10
M  V30 10 1 7 11
M  V30 11 1 8 12
M  V30 12 1 8 13
M  V30 13 2 9 14
M  V30 14 1 10 15
M  V30 15 1 12 16
M  V30 16 1 13 17
M  V30 17 1 14 18
M  V30 18 1 14 19
M  V30 19 1 15 20
M  V30 20 1 17 21
M  V30 21 1 19 22
M  V30 22 1 19 23
M  V30 23 2 21 24
M  V30 24 1 21 25
M  V30 25 1 24 26
M  V30 26 2 25 27
M  V30 27 2 26 28
M  V30 28 1 9 12
M  V30 29 1 11 15
M  V30 30 2 16 18
M  V30 31 1 27 28
M  V30 END BOND
M  V30 END CTAB
M  END
>  <Compound ID>
286

>  <Name>


>  <Uniprot>
P50750

>  <Target>
CDK9

>  <Smiles>
CC(C)C1=C2N=C(OC3CCN(C)CC3)N=C(NCC3=CC=CC=C3)N2N=C1

>  <Kd (nM)>


>  <Assay (Kd)>


>  <Ki (nM)>


>  <Assay (Ki)>


>  <IC50 (nM)>
3070

>  <Assay (IC50)>
Inhibit growth of MDA-MB-468 cells

>  <EC50 (nM)>


>  <Assay (EC50)>


>  <Article DOI>
10.1021/acs.jmedchem.1c01350

>  <Molecular Weight>
380.496

>  <Exact Mass>
380.232459516

>  <XLogP3>
3.93

>  <Heavy Atom Count>
28

>  <Ring Count>
4

>  <Hydrogen Bond Acceptor Count>
7

>  <Hydrogen Bond Donor Count>
1

>  <Rotatable Bond Count>
6

>  <Topological Polar Surface Area>
67.58

>  <Molecular Formula>
C21H28N6O

>  <InChI>
InChI=1S/C21H28N6O/c1-15(2)18-14-23-27-19(18)24-21(28-17-9-11-26(3)12-10-17)25-20(27)22-13-16-7-5-4-6-8-16/h4-8,14-15,17H,9-13H2,1-3H3,(H,22,24,25)

>  <InChI Key>
BWJDMRPMFRWAOP-UHFFFAOYSA-N

>  <BindingDB>


>  <PubChem>
89789681

>  <ChEMBL>


$$$$
Compound 1003
Actelion Java MolfileCreator 2.0

  0  0  0  0  0  0              0 V3000
M  V30 BEGIN CTAB
M  V30 COUNTS 25 27 0 0 0
M  V30 BEGIN ATOM
M  V30 1 Cl 0.0 0.0 0.0 0
M  V30 2 C -0.4622 1.4445 0.0 0
M  V30 3 C -1.9414 1.7796 0.0 0
M  V30 4 C 0.5431 2.5655 0.0 0
M  V30 5 C -2.9699 0.6818 0.0 0
M  V30 6 C -2.4037 3.2242 0.0 0
M  V30 7 C 0.0808 4.01 0.0 0
M  V30 8 N -3.9985 -0.416 0.0 0
M  V30 9 C -1.3983 4.3452 0.0 0
M  V30 10 O 1.0863 5.131 0.0 0
M  V30 11 C 2.5424 4.819 0.0 0 CFG=1
M  V30 12 C 2.9815 3.3975 0.0 0
M  V30 13 C 3.5478 5.9399 0.0 0
M  V30 14 C 4.4376 3.0855 0.0 0
M  V30 15 C 5.0039 5.6279 0.0 0
M  V30 16 C 5.443 4.2065 0.0 0 CFG=1
M  V30 17 N 6.8991 3.8945 0.0 0
M  V30 18 C 7.3383 2.473 0.0 0
M  V30 19 O 6.3097 1.3752 0.0 0
M  V30 20 C 8.7944 2.161 0.0 0
M  V30 21 C 9.2335 0.7396 0.0 0
M  V30 22 C 9.7998 3.282 0.0 0
M  V30 23 C 10.6896 0.4275 0.0 0
M  V30 24 C 11.2559 2.9699 0.0 0
M  V30 25 C 11.695 1.5485 0.0 0
M  V30 END ATOM
M  V30 BEGIN BOND
M  V30 1 1 1 2
M  V30 2 2 2 3
M  V30 3 1 2 4
M  V30 4 1 3 5
M  V30 5 1 3 6
M  V30 6 2 4 7
M  V30 7 3 5 8
M  V30 8 2 6 9
M  V30 9 1 7 10
M  V30 10 1 11 10 CFG=3
M  V30 11 1 11 12
M  V30 12 1 11 13
M  V30 13 1 12 14
M  V30 14 1 13 15
M  V30 15 1 14 16
M  V30 16 1 16 17 CFG=1
M  V30 17 1 17 18
M  V30 18 2 18 19
M  V30 19 1 18 20
M  V30 20 2 20 21
M  V30 21 1 20 22
M  V30 22 1 21 23
M  V30 23 2 22 24
M  V30 24 2 23 25
M  V30 25 1 7 9
M  V30 26 1 15 16
M  V30 27 1 24 25
M  V30 END BOND
M  V30 BEGIN COLLECTION
M  V30 MDLV30/STEABS ATOMS=(2 11 16)
M  V30 END COLLECTION
M  V30 END CTAB
M  END
>  <Compound ID>
287

>  <Name>


>  <Uniprot>
P10275

>  <Target>
AR

>  <Smiles>
N#CC1=CC=C(O[C@H]2CC[C@H](NC(=O)C3=CC=CC=C3)CC2)C=C1Cl

>  <Kd (nM)>


>  <Assay (Kd)>


>  <Ki (nM)>


>  <Assay (Ki)>


>  <IC50 (nM)>


>  <Assay (IC50)>


>  <EC50 (nM)>


>  <Assay (EC50)>


>  <Article DOI>


>  <Molecular Weight>
354.837

>  <Exact Mass>
354.113505528

>  <XLogP3>
4.55

>  <Heavy Atom Count>
25

>  <Ring Count>
3

>  <Hydrogen Bond Acceptor Count>
3

>  <Hydrogen Bond Donor Count>
1

>  <Rotatable Bond Count>
4

>  <Topological Polar Surface Area>
62.12

>  <Molecular Formula>
C20H19ClN2O2

>  <InChI>
InChI=1S/C20H19ClN2O2/c21-19-12-18(9-6-15(19)13-22)25-17-10-7-16(8-11-17)23-20(24)14-4-2-1-3-5-14/h1-6,9,12,16-17H,7-8,10-11H2,(H,23,24)/t16-,17-

>  <InChI Key>
CHIRYVXGOIAKBG-QAQDUYKDSA-N

>  <BindingDB>


>  <PubChem>
155218484

>  <ChEMBL>


$$$$
Compound 1004
Actelion Java MolfileCreator 2.0

  0  0  0  0  0  0              0 V3000
M  V30 BEGIN CTAB
M  V30 COUNTS 24 26 0 0 0
M  V30 BEGIN ATOM
M  V30 1 Cl 0.0 0.0 0.0 0
M  V30 2 C -0.9004 1.2203 0.0 0
M  V30 3 C -2.405 1.0662 0.0 0
M  V30 4 C -0.308 2.6064 0.0 0
M  V30 5 C -3.0211 -0.2961 0.0 0
M  V30 6 C -3.3054 2.2865 0.0 0
M  V30 7 C -1.2084 3.8267 0.0 0
M  V30 8 N -3.6372 -1.6586 0.0 0
M  V30 9 C -2.7131 3.6727 0.0 0
M  V30 10 O -0.616 5.2129 0.0 0
M  V30 11 C 0.8648 5.3906 0.0 0 CFG=2
M  V30 12 C 1.86 4.2888 0.0 0
M  V30 13 C 1.5994 6.7057 0.0 0
M  V30 14 C 3.2225 4.9167 0.0 0 CFG=2
M  V30 15 C 3.0566 6.4095 0.0 0
M  V30 16 N 4.5139 4.1822 0.0 0
M  V30 17 C 4.502 2.6894 0.0 0
M  V30 18 O 3.187 1.943 0.0 0
M  V30 19 C 5.7934 1.9548 0.0 0
M  V30 20 C 5.7816 0.462 0.0 0
M  V30 21 C 7.0848 2.7249 0.0 0
M  V30 22 C 7.073 -0.2724 0.0 0
M  V30 23 C 8.3762 1.9903 0.0 0
M  V30 24 C 8.3644 0.4975 0.0 0
M  V30 END ATOM
M  V30 BEGIN BOND
M  V30 1 1 1 2
M  V30 2 2 2 3
M  V30 3 1 2 4
M  V30 4 1 3 5
M  V30 5 1 3 6
M  V30 6 2 4 7
M  V30 7 3 5 8
M  V30 8 2 6 9
M  V30 9 1 7 10
M  V30 10 1 11 10 CFG=1
M  V30 11 1 11 12
M  V30 12 1 11 13
M  V30 13 1 12 14
M  V30 14 1 13 15
M  V30 15 1 14 16 CFG=3
M  V30 16 1 16 17
M  V30 17 2 17 18
M  V30 18 1 17 19
M  V30 19 2 19 20
M  V30 20 1 19 21
M  V30 21 1 20 22
M  V30 22 2 21 23
M  V30 23 2 22 24
M  V30 24 1 7 9
M  V30 25 1 14 15
M  V30 26 1 23 24
M  V30 END BOND
M  V30 BEGIN COLLECTION
M  V30 MDLV30/STEABS ATOMS=(2 11 14)
M  V30 END COLLECTION
M  V30 END CTAB
M  END
>  <Compound ID>
288

>  <Name>


>  <Uniprot>
P10275

>  <Target>
AR

>  <Smiles>
N#CC1=CC=C(O[C@H]2CC[C@H](NC(=O)C3=CC=CC=C3)C2)C=C1Cl

>  <Kd (nM)>


>  <Assay (Kd)>


>  <Ki (nM)>


>  <Assay (Ki)>


>  <IC50 (nM)>


>  <Assay (IC50)>


>  <EC50 (nM)>


>  <Assay (EC50)>


>  <Article DOI>
10.1021/acs.jmedchem.1c00900

>  <Molecular Weight>
340.81

>  <Exact Mass>
340.097855464

>  <XLogP3>
4.19

>  <Heavy Atom Count>
24

>  <Ring Count>
3

>  <Hydrogen Bond Acceptor Count>
3

>  <Hydrogen Bond Donor Count>
1

>  <Rotatable Bond Count>
4

>  <Topological Polar Surface Area>
62.12

>  <Molecular Formula>
C19H17ClN2O2

>  <InChI>
InChI=1S/C19H17ClN2O2/c20-18-11-17(8-6-14(18)12-21)24-16-9-7-15(10-16)22-19(23)13-4-2-1-3-5-13/h1-6,8,11,15-16H,7,9-10H2,(H,22,23)/t15-,16-/m0/s1

>  <InChI Key>
KGDRGLOJHBSFBJ-HOTGVXAUSA-N

>  <BindingDB>


>  <PubChem>


>  <ChEMBL>


$$$$
Compound 1005
Actelion Java MolfileCreator 2.0

  0  0  0  0  0  0              0 V3000
M  V30 BEGIN CTAB
M  V30 COUNTS 26 28 0 0 0
M  V30 BEGIN ATOM
M  V30 1 Cl 0.0 0.0 0.0 0
M  V30 2 C -1.2455 -0.8342 0.0 0
M  V30 3 C -1.1397 -2.3148 0.0 0
M  V30 4 C -2.6085 -0.1762 0.0 0
M  V30 5 C 0.1997 -2.9493 0.0 0
M  V30 6 C -2.3853 -3.1491 0.0 0
M  V30 7 C -3.8541 -1.0105 0.0 0
M  V30 8 N 1.5393 -3.5838 0.0 0
M  V30 9 C -3.7483 -2.491 0.0 0
M  V30 10 O -5.2171 -0.3525 0.0 0
M  V30 11 C -6.4627 -1.1867 0.0 0 CFG=1
M  V30 12 C -7.767 -0.4347 0.0 0
M  V30 13 C -6.2512 -2.6555 0.0 0
M  V30 14 C -9.1653 -0.9752 0.0 0
M  V30 15 C -7.2735 -3.7483 0.0 0
M  V30 16 C -9.6118 -2.397 0.0 0 CFG=1
M  V30 17 C -8.7775 -3.6308 0.0 0
M  V30 18 N -11.1041 -2.6085 0.0 0
M  V30 19 C -12.0559 -1.4335 0.0 0
M  V30 20 O -11.5271 -0.0235 0.0 0
M  V30 21 C -13.5482 -1.645 0.0 0
M  V30 22 C -14.5 -0.47 0.0 0
M  V30 23 C -14.1005 -3.0316 0.0 0
M  V30 24 C -15.9923 -0.6815 0.0 0
M  V30 25 C -15.5928 -3.2431 0.0 0
M  V30 26 C -16.5446 -2.068 0.0 0
M  V30 END ATOM
M  V30 BEGIN BOND
M  V30 1 1 1 2
M  V30 2 2 2 3
M  V30 3 1 2 4
M  V30 4 1 3 5
M  V30 5 1 3 6
M  V30 6 2 4 7
M  V30 7 3 5 8
M  V30 8 2 6 9
M  V30 9 1 7 10
M  V30 10 1 11 10 CFG=3
M  V30 11 1 11 12
M  V30 12 1 11 13
M  V30 13 1 12 14
M  V30 14 1 13 15
M  V30 15 1 14 16
M  V30 16 1 15 17
M  V30 17 1 16 18 CFG=1
M  V30 18 1 18 19
M  V30 19 2 19 20
M  V30 20 1 19 21
M  V30 21 2 21 22
M  V30 22 1 21 23
M  V30 23 1 22 24
M  V30 24 2 23 25
M  V30 25 2 24 26
M  V30 26 1 7 9
M  V30 27 1 16 17
M  V30 28 1 25 26
M  V30 END BOND
M  V30 BEGIN COLLECTION
M  V30 MDLV30/STEABS ATOMS=(2 11 16)
M  V30 END COLLECTION
M  V30 END CTAB
M  END
>  <Compound ID>
289

>  <Name>


>  <Uniprot>
P10275

>  <Target>
AR

>  <Smiles>
N#CC1=CC=C(O[C@@H]2CCC[C@@H](NC(=O)C3=CC=CC=C3)CC2)C=C1Cl

>  <Kd (nM)>


>  <Assay (Kd)>


>  <Ki (nM)>


>  <Assay (Ki)>


>  <IC50 (nM)>


>  <Assay (IC50)>


>  <EC50 (nM)>


>  <Assay (EC50)>


>  <Article DOI>
10.1021/acs.jmedchem.1c00900

>  <Molecular Weight>
368.864

>  <Exact Mass>
368.129155592

>  <XLogP3>
4.9

>  <Heavy Atom Count>
26

>  <Ring Count>
3

>  <Hydrogen Bond Acceptor Count>
3

>  <Hydrogen Bond Donor Count>
1

>  <Rotatable Bond Count>
4

>  <Topological Polar Surface Area>
62.12

>  <Molecular Formula>
C21H21ClN2O2

>  <InChI>
InChI=1S/C21H21ClN2O2/c22-20-13-19(11-9-16(20)14-23)26-18-8-4-7-17(10-12-18)24-21(25)15-5-2-1-3-6-15/h1-3,5-6,9,11,13,17-18H,4,7-8,10,12H2,(H,24,25)/t17-,18-/m1/s1

>  <InChI Key>
FYHDSERYTSYVJO-QZTJIDSGSA-N

>  <BindingDB>


>  <PubChem>


>  <ChEMBL>


$$$$
Compound 1006
Actelion Java MolfileCreator 2.0

  0  0  0  0  0  0              0 V3000
M  V30 BEGIN CTAB
M  V30 COUNTS 27 29 0 0 0
M  V30 BEGIN ATOM
M  V30 1 Cl 0.0 0.0 0.0 0
M  V30 2 C 1.3844 0.5561 0.0 0
M  V30 3 C 1.6092 2.0589 0.0 0
M  V30 4 C 2.544 -0.3786 0.0 0
M  V30 5 C 0.4259 3.0174 0.0 0
M  V30 6 C 2.9937 2.615 0.0 0
M  V30 7 C 3.9285 0.1774 0.0 0
M  V30 8 N -0.7573 3.9758 0.0 0
M  V30 9 C 4.1533 1.6802 0.0 0
M  V30 10 O 5.0881 -0.7573 0.0 0
M  V30 11 C 6.4726 -0.2011 0.0 0 CFG=1
M  V30 12 C 7.502 -1.2779 0.0 0
M  V30 13 C 6.4962 1.3134 0.0 0
M  V30 14 C 8.993 -1.3016 0.0 0
M  V30 15 C 7.573 2.3665 0.0 0
M  V30 16 C 10.0698 -0.2484 0.0 0
M  V30 17 C 9.064 2.3429 0.0 0
M  V30 18 C 10.0935 1.2661 0.0 0 CFG=2
M  V30 19 N 11.4779 1.8222 0.0 0
M  V30 20 C 12.6375 0.8874 0.0 0
M  V30 21 O 12.3891 -0.5916 0.0 0
M  V30 22 C 14.022 1.4436 0.0 0
M  V30 23 C 15.1816 0.5088 0.0 0
M  V30 24 C 14.2468 2.9464 0.0 0
M  V30 25 C 16.5661 1.0649 0.0 0
M  V30 26 C 15.6313 3.5025 0.0 0
M  V30 27 C 16.7909 2.5677 0.0 0
M  V30 END ATOM
M  V30 BEGIN BOND
M  V30 1 1 1 2
M  V30 2 2 2 3
M  V30 3 1 2 4
M  V30 4 1 3 5
M  V30 5 1 3 6
M  V30 6 2 4 7
M  V30 7 3 5 8
M  V30 8 2 6 9
M  V30 9 1 7 10
M  V30 10 1 11 10 CFG=3
M  V30 11 1 11 12
M  V30 12 1 11 13
M  V30 13 1 12 14
M  V30 14 1 13 15
M  V30 15 1 14 16
M  V30 16 1 15 17
M  V30 17 1 16 18
M  V30 18 1 18 19 CFG=3
M  V30 19 1 19 20
M  V30 20 2 20 21
M  V30 21 1 20 22
M  V30 22 2 22 23
M  V30 23 1 22 24
M  V30 24 1 23 25
M  V30 25 2 24 26
M  V30 26 2 25 27
M  V30 27 1 7 9
M  V30 28 1 17 18
M  V30 29 1 26 27
M  V30 END BOND
M  V30 BEGIN COLLECTION
M  V30 MDLV30/STEABS ATOMS=(2 11 18)
M  V30 END COLLECTION
M  V30 END CTAB
M  END
>  <Compound ID>
290

>  <Name>


>  <Uniprot>
P10275

>  <Target>
AR

>  <Smiles>
N#CC1=CC=C(O[C@H]2CCC[C@@H](NC(=O)C3=CC=CC=C3)CCC2)C=C1Cl

>  <Kd (nM)>


>  <Assay (Kd)>


>  <Ki (nM)>


>  <Assay (Ki)>


>  <IC50 (nM)>


>  <Assay (IC50)>


>  <EC50 (nM)>


>  <Assay (EC50)>


>  <Article DOI>
10.1021/acs.jmedchem.1c00900

>  <Molecular Weight>
382.891

>  <Exact Mass>
382.144805656

>  <XLogP3>
5.26

>  <Heavy Atom Count>
27

>  <Ring Count>
3

>  <Hydrogen Bond Acceptor Count>
3

>  <Hydrogen Bond Donor Count>
1

>  <Rotatable Bond Count>
4

>  <Topological Polar Surface Area>
62.12

>  <Molecular Formula>
C22H23ClN2O2

>  <InChI>
InChI=1S/C22H23ClN2O2/c23-21-14-20(13-12-17(21)15-24)27-19-10-4-8-18(9-5-11-19)25-22(26)16-6-2-1-3-7-16/h1-3,6-7,12-14,18-19H,4-5,8-11H2,(H,25,26)/t18-,19+

>  <InChI Key>
SUGSIUUWCADAIP-KDURUIRLSA-N

>  <BindingDB>


>  <PubChem>


>  <ChEMBL>


$$$$
Compound 1007
Actelion Java MolfileCreator 2.0

  0  0  0  0  0  0              0 V3000
M  V30 BEGIN CTAB
M  V30 COUNTS 24 26 0 0 0
M  V30 BEGIN ATOM
M  V30 1 Cl 0.0 0.0 0.0 0
M  V30 2 C -0.4247 1.4579 0.0 0
M  V30 3 C -1.8941 1.8367 0.0 0
M  V30 4 C 0.6084 2.5485 0.0 0
M  V30 5 C -2.9503 0.7691 0.0 0
M  V30 6 C -2.3189 3.2947 0.0 0
M  V30 7 C 0.1836 4.0064 0.0 0
M  V30 8 N -4.0064 -0.2984 0.0 0
M  V30 9 C -1.2857 4.3853 0.0 0
M  V30 10 O 1.2168 5.097 0.0 0
M  V30 11 C 2.6633 4.7412 0.0 0
M  V30 12 C 3.0651 3.3062 0.0 0
M  V30 13 C 3.6965 5.8318 0.0 0
M  V30 14 C 4.5116 2.9503 0.0 0
M  V30 15 C 5.143 5.4759 0.0 0
M  V30 16 N 5.5448 4.0409 0.0 0
M  V30 17 C 6.9912 3.685 0.0 0
M  V30 18 O 8.0244 4.7756 0.0 0
M  V30 19 C 7.393 2.25 0.0 0
M  V30 20 C 6.3369 1.1824 0.0 0
M  V30 21 C 8.8395 1.8941 0.0 0
M  V30 22 C 6.7387 -0.2525 0.0 0
M  V30 23 C 9.2413 0.4591 0.0 0
M  V30 24 C 8.1851 -0.6084 0.0 0
M  V30 END ATOM
M  V30 BEGIN BOND
M  V30 1 1 1 2
M  V30 2 2 2 3
M  V30 3 1 2 4
M  V30 4 1 3 5
M  V30 5 1 3 6
M  V30 6 2 4 7
M  V30 7 3 5 8
M  V30 8 2 6 9
M  V30 9 1 7 10
M  V30 10 1 10 11
M  V30 11 1 11 12
M  V30 12 1 11 13
M  V30 13 1 12 14
M  V30 14 1 13 15
M  V30 15 1 14 16
M  V30 16 1 16 17
M  V30 17 2 17 18
M  V30 18 1 17 19
M  V30 19 2 19 20
M  V30 20 1 19 21
M  V30 21 1 20 22
M  V30 22 2 21 23
M  V30 23 2 22 24
M  V30 24 1 7 9
M  V30 25 1 15 16
M  V30 26 1 23 24
M  V30 END BOND
M  V30 END CTAB
M  END
>  <Compound ID>
291

>  <Name>


>  <Uniprot>
P10275

>  <Target>
AR

>  <Smiles>
N#CC1=CC=C(OC2CCN(C(=O)C3=CC=CC=C3)CC2)C=C1Cl

>  <Kd (nM)>


>  <Assay (Kd)>


>  <Ki (nM)>


>  <Assay (Ki)>


>  <IC50 (nM)>


>  <Assay (IC50)>


>  <EC50 (nM)>


>  <Assay (EC50)>


>  <Article DOI>


>  <Molecular Weight>
340.81

>  <Exact Mass>
340.097855464

>  <XLogP3>
3.95

>  <Heavy Atom Count>
24

>  <Ring Count>
3

>  <Hydrogen Bond Acceptor Count>
3

>  <Hydrogen Bond Donor Count>
0

>  <Rotatable Bond Count>
3

>  <Topological Polar Surface Area>
53.33

>  <Molecular Formula>
C19H17ClN2O2

>  <InChI>
InChI=1S/C19H17ClN2O2/c20-18-12-17(7-6-15(18)13-21)24-16-8-10-22(11-9-16)19(23)14-4-2-1-3-5-14/h1-7,12,16H,8-11H2

>  <InChI Key>
NVHHEOAEMWKXDL-UHFFFAOYSA-N

>  <BindingDB>


>  <PubChem>
155219071

>  <ChEMBL>


$$$$
Compound 1008
Actelion Java MolfileCreator 2.0

  0  0  0  0  0  0              0 V3000
M  V30 BEGIN CTAB
M  V30 COUNTS 25 27 0 0 0
M  V30 BEGIN ATOM
M  V30 1 Cl 0.0 0.0 0.0 0
M  V30 2 C -1.1763 -0.9293 0.0 0
M  V30 3 C -0.9646 -2.3998 0.0 0
M  V30 4 C -2.5762 -0.3764 0.0 0
M  V30 5 C 0.4117 -2.9291 0.0 0
M  V30 6 C -2.141 -3.3291 0.0 0
M  V30 7 C -3.7526 -1.3057 0.0 0
M  V30 8 N 1.788 -3.4585 0.0 0
M  V30 9 C -3.5409 -2.7762 0.0 0
M  V30 10 O -5.1525 -0.7528 0.0 0
M  V30 11 C -6.3289 -1.6822 0.0 0 CFG=2
M  V30 12 C -7.6935 -1.0234 0.0 0
M  V30 13 C -5.9995 -3.1291 0.0 0
M  V30 14 C -9.0463 -1.6704 0.0 0
M  V30 15 C -6.9406 -4.2937 0.0 0
M  V30 16 N -9.3875 -3.1174 0.0 0
M  V30 17 C -8.4464 -4.2937 0.0 0
M  V30 18 C -10.8579 -3.4467 0.0 0
M  V30 19 O -11.305 -4.8702 0.0 0
M  V30 20 C -11.8931 -2.3409 0.0 0
M  V30 21 C -11.4697 -0.894 0.0 0
M  V30 22 C -13.3636 -2.6703 0.0 0
M  V30 23 C -12.5049 0.2117 0.0 0
M  V30 24 C -14.3988 -1.5645 0.0 0
M  V30 25 C -13.9753 -0.1176 0.0 0
M  V30 END ATOM
M  V30 BEGIN BOND
M  V30 1 1 1 2
M  V30 2 2 2 3
M  V30 3 1 2 4
M  V30 4 1 3 5
M  V30 5 1 3 6
M  V30 6 2 4 7
M  V30 7 3 5 8
M  V30 8 2 6 9
M  V30 9 1 7 10
M  V30 10 1 11 10 CFG=1
M  V30 11 1 11 12
M  V30 12 1 11 13
M  V30 13 1 12 14
M  V30 14 1 13 15
M  V30 15 1 14 16
M  V30 16 1 15 17
M  V30 17 1 16 18
M  V30 18 2 18 19
M  V30 19 1 18 20
M  V30 20 2 20 21
M  V30 21 1 20 22
M  V30 22 1 21 23
M  V30 23 2 22 24
M  V30 24 2 23 25
M  V30 25 1 7 9
M  V30 26 1 16 17
M  V30 27 1 24 25
M  V30 END BOND
M  V30 BEGIN COLLECTION
M  V30 MDLV30/STERAC1 ATOMS=(1 11)
M  V30 END COLLECTION
M  V30 END CTAB
M  END
>  <Compound ID>
292

>  <Name>


>  <Uniprot>
P10275

>  <Target>
AR

>  <Smiles>
N#CC1=CC=C(OC2CCCN(C(=O)C3=CC=CC=C3)CC2)C=C1Cl

>  <Kd (nM)>


>  <Assay (Kd)>


>  <Ki (nM)>


>  <Assay (Ki)>


>  <IC50 (nM)>


>  <Assay (IC50)>


>  <EC50 (nM)>


>  <Assay (EC50)>


>  <Article DOI>
10.1021/acs.jmedchem.1c00900

>  <Molecular Weight>
354.837

>  <Exact Mass>
354.113505528

>  <XLogP3>
4.31

>  <Heavy Atom Count>
25

>  <Ring Count>
3

>  <Hydrogen Bond Acceptor Count>
3

>  <Hydrogen Bond Donor Count>
0

>  <Rotatable Bond Count>
3

>  <Topological Polar Surface Area>
53.33

>  <Molecular Formula>
C20H19ClN2O2

>  <InChI>
InChI=1S/C20H19ClN2O2/c21-19-13-18(9-8-16(19)14-22)25-17-7-4-11-23(12-10-17)20(24)15-5-2-1-3-6-15/h1-3,5-6,8-9,13,17H,4,7,10-12H2

>  <InChI Key>
WSJZBWUHTJLDKU-UHFFFAOYSA-N

>  <BindingDB>


>  <PubChem>


>  <ChEMBL>


$$$$
Compound 1009
Actelion Java MolfileCreator 2.0

  0  0  0  0  0  0              0 V3000
M  V30 BEGIN CTAB
M  V30 COUNTS 25 27 0 0 0
M  V30 BEGIN ATOM
M  V30 1 Cl 0.0 0.0 0.0 0
M  V30 2 C -0.4622 1.4445 0.0 0
M  V30 3 C -1.9414 1.7796 0.0 0
M  V30 4 C 0.5431 2.5655 0.0 0
M  V30 5 C -2.9699 0.6818 0.0 0
M  V30 6 C -2.4037 3.2242 0.0 0
M  V30 7 C 0.0808 4.01 0.0 0
M  V30 8 N -3.9985 -0.416 0.0 0
M  V30 9 C -1.3983 4.3452 0.0 0
M  V30 10 N 1.0863 5.131 0.0 0
M  V30 11 C 2.5424 4.819 0.0 0 CFG=1
M  V30 12 C 2.9815 3.3975 0.0 0
M  V30 13 C 3.5478 5.9399 0.0 0
M  V30 14 C 4.4376 3.0855 0.0 0
M  V30 15 C 5.0039 5.6279 0.0 0
M  V30 16 C 5.443 4.2065 0.0 0 CFG=1
M  V30 17 N 6.8991 3.8945 0.0 0
M  V30 18 C 7.3383 2.473 0.0 0
M  V30 19 O 6.3097 1.3752 0.0 0
M  V30 20 C 8.7944 2.161 0.0 0
M  V30 21 C 9.2335 0.7396 0.0 0
M  V30 22 C 9.7998 3.282 0.0 0
M  V30 23 C 10.6896 0.4275 0.0 0
M  V30 24 C 11.2559 2.9699 0.0 0
M  V30 25 C 11.695 1.5485 0.0 0
M  V30 END ATOM
M  V30 BEGIN BOND
M  V30 1 1 1 2
M  V30 2 2 2 3
M  V30 3 1 2 4
M  V30 4 1 3 5
M  V30 5 1 3 6
M  V30 6 2 4 7
M  V30 7 3 5 8
M  V30 8 2 6 9
M  V30 9 1 7 10
M  V30 10 1 11 10 CFG=3
M  V30 11 1 11 12
M  V30 12 1 11 13
M  V30 13 1 12 14
M  V30 14 1 13 15
M  V30 15 1 14 16
M  V30 16 1 16 17 CFG=1
M  V30 17 1 17 18
M  V30 18 2 18 19
M  V30 19 1 18 20
M  V30 20 2 20 21
M  V30 21 1 20 22
M  V30 22 1 21 23
M  V30 23 2 22 24
M  V30 24 2 23 25
M  V30 25 1 7 9
M  V30 26 1 15 16
M  V30 27 1 24 25
M  V30 END BOND
M  V30 BEGIN COLLECTION
M  V30 MDLV30/STEABS ATOMS=(2 11 16)
M  V30 END COLLECTION
M  V30 END CTAB
M  END
>  <Compound ID>
293

>  <Name>


>  <Uniprot>
P10275

>  <Target>
AR

>  <Smiles>
N#CC1=CC=C(N[C@H]2CC[C@H](NC(=O)C3=CC=CC=C3)CC2)C=C1Cl

>  <Kd (nM)>


>  <Assay (Kd)>


>  <Ki (nM)>


>  <Assay (Ki)>


>  <IC50 (nM)>


>  <Assay (IC50)>


>  <EC50 (nM)>


>  <Assay (EC50)>


>  <Article DOI>
10.1021/acs.jmedchem.1c00900

>  <Molecular Weight>
353.853

>  <Exact Mass>
353.12948994

>  <XLogP3>
4.56

>  <Heavy Atom Count>
25

>  <Ring Count>
3

>  <Hydrogen Bond Acceptor Count>
3

>  <Hydrogen Bond Donor Count>
2

>  <Rotatable Bond Count>
4

>  <Topological Polar Surface Area>
64.92

>  <Molecular Formula>
C20H20ClN3O

>  <InChI>
InChI=1S/C20H20ClN3O/c21-19-12-18(7-6-15(19)13-22)23-16-8-10-17(11-9-16)24-20(25)14-4-2-1-3-5-14/h1-7,12,16-17,23H,8-11H2,(H,24,25)/t16-,17-

>  <InChI Key>
OOOICALKEYTKBS-QAQDUYKDSA-N

>  <BindingDB>


>  <PubChem>


>  <ChEMBL>


$$$$
Compound 1010
Actelion Java MolfileCreator 2.0

  0  0  0  0  0  0              0 V3000
M  V30 BEGIN CTAB
M  V30 COUNTS 26 28 0 0 0
M  V30 BEGIN ATOM
M  V30 1 Cl 0.0 0.0 0.0 0
M  V30 2 C -1.3991 -0.5479 0.0 0
M  V30 3 C -1.6206 -2.017 0.0 0
M  V30 4 C -2.5883 0.3847 0.0 0
M  V30 5 C -0.4547 -2.9265 0.0 0
M  V30 6 C -3.0197 -2.565 0.0 0
M  V30 7 C -3.9875 -0.1632 0.0 0
M  V30 8 N 0.7112 -3.8359 0.0 0
M  V30 9 C -4.209 -1.6323 0.0 0
M  V30 10 N -5.1767 0.7695 0.0 0
M  V30 11 C -6.5759 0.2215 0.0 0 CFG=1
M  V30 12 C -4.9785 2.2619 0.0 0
M  V30 13 C -7.7651 1.1542 0.0 0
M  V30 14 C -6.7974 -1.2475 0.0 0
M  V30 15 C -9.1642 0.6062 0.0 0
M  V30 16 C -8.1965 -1.7955 0.0 0
M  V30 17 C -9.3858 -0.8627 0.0 0 CFG=1
M  V30 18 N -10.7849 -1.4107 0.0 0
M  V30 19 C -11.9742 -0.478 0.0 0
M  V30 20 O -11.776 1.0143 0.0 0
M  V30 21 C -13.3733 -1.026 0.0 0
M  V30 22 C -14.5626 -0.0932 0.0 0
M  V30 23 C -13.5948 -2.4951 0.0 0
M  V30 24 C -15.9617 -0.6412 0.0 0
M  V30 25 C -14.9939 -3.0431 0.0 0
M  V30 26 C -16.1832 -2.1103 0.0 0
M  V30 END ATOM
M  V30 BEGIN BOND
M  V30 1 1 1 2
M  V30 2 2 2 3
M  V30 3 1 2 4
M  V30 4 1 3 5
M  V30 5 1 3 6
M  V30 6 2 4 7
M  V30 7 3 5 8
M  V30 8 2 6 9
M  V30 9 1 7 10
M  V30 10 1 11 10 CFG=3
M  V30 11 1 10 12
M  V30 12 1 11 13
M  V30 13 1 11 14
M  V30 14 1 13 15
M  V30 15 1 14 16
M  V30 16 1 15 17
M  V30 17 1 17 18 CFG=1
M  V30 18 1 18 19
M  V30 19 2 19 20
M  V30 20 1 19 21
M  V30 21 2 21 22
M  V30 22 1 21 23
M  V30 23 1 22 24
M  V30 24 2 23 25
M  V30 25 2 24 26
M  V30 26 1 7 9
M  V30 27 1 16 17
M  V30 28 1 25 26
M  V30 END BOND
M  V30 BEGIN COLLECTION
M  V30 MDLV30/STEABS ATOMS=(2 11 17)
M  V30 END COLLECTION
M  V30 END CTAB
M  END
>  <Compound ID>
294

>  <Name>


>  <Uniprot>
P10275

>  <Target>
AR

>  <Smiles>
CN(C1=CC=C(C#N)C(Cl)=C1)[C@H]1CC[C@H](NC(=O)C2=CC=CC=C2)CC1

>  <Kd (nM)>


>  <Assay (Kd)>


>  <Ki (nM)>


>  <Assay (Ki)>


>  <IC50 (nM)>


>  <Assay (IC50)>


>  <EC50 (nM)>


>  <Assay (EC50)>


>  <Article DOI>
10.1021/acs.jmedchem.1c00900

>  <Molecular Weight>
367.88

>  <Exact Mass>
367.145140004

>  <XLogP3>
4.7

>  <Heavy Atom Count>
26

>  <Ring Count>
3

>  <Hydrogen Bond Acceptor Count>
3

>  <Hydrogen Bond Donor Count>
1

>  <Rotatable Bond Count>
4

>  <Topological Polar Surface Area>
56.13

>  <Molecular Formula>
C21H22ClN3O

>  <InChI>
InChI=1S/C21H22ClN3O/c1-25(19-10-7-16(14-23)20(22)13-19)18-11-8-17(9-12-18)24-21(26)15-5-3-2-4-6-15/h2-7,10,13,17-18H,8-9,11-12H2,1H3,(H,24,26)/t17-,18-

>  <InChI Key>
HQZJNJQEXHRPDV-IYARVYRRSA-N

>  <BindingDB>


>  <PubChem>


>  <ChEMBL>


$$$$
Compound 1011
Actelion Java MolfileCreator 2.0

  0  0  0  0  0  0              0 V3000
M  V30 BEGIN CTAB
M  V30 COUNTS 27 29 0 0 0
M  V30 BEGIN ATOM
M  V30 1 Cl 0.0 0.0 0.0 0
M  V30 2 C -1.4084 -0.5354 0.0 0
M  V30 3 C -1.6412 -2.0021 0.0 0
M  V30 4 C -2.5841 0.4074 0.0 0
M  V30 5 C -0.4888 -2.9217 0.0 0
M  V30 6 C -3.0497 -2.5375 0.0 0
M  V30 7 C -3.9926 -0.128 0.0 0
M  V30 8 N 0.6635 -3.8413 0.0 0
M  V30 9 C -4.2254 -1.5947 0.0 0
M  V30 10 N -5.1683 0.8148 0.0 0
M  V30 11 C -6.5768 0.2793 0.0 0 CFG=1
M  V30 12 C -4.9587 2.3047 0.0 0
M  V30 13 C -7.7524 1.2222 0.0 0
M  V30 14 C -6.8096 -1.1873 0.0 0
M  V30 15 C -6.1344 3.2476 0.0 0
M  V30 16 C -9.1609 0.6867 0.0 0
M  V30 17 C -8.218 -1.7227 0.0 0
M  V30 18 C -9.3937 -0.7799 0.0 0 CFG=1
M  V30 19 N -10.8022 -1.3153 0.0 0
M  V30 20 C -11.9779 -0.3724 0.0 0
M  V30 21 O -11.7684 1.1174 0.0 0
M  V30 22 C -13.3864 -0.9079 0.0 0
M  V30 23 C -14.562 0.0349 0.0 0
M  V30 24 C -13.6192 -2.3746 0.0 0
M  V30 25 C -15.9705 -0.5005 0.0 0
M  V30 26 C -15.0276 -2.91 0.0 0
M  V30 27 C -16.2033 -1.9672 0.0 0
M  V30 END ATOM
M  V30 BEGIN BOND
M  V30 1 1 1 2
M  V30 2 2 2 3
M  V30 3 1 2 4
M  V30 4 1 3 5
M  V30 5 1 3 6
M  V30 6 2 4 7
M  V30 7 3 5 8
M  V30 8 2 6 9
M  V30 9 1 7 10
M  V30 10 1 11 10 CFG=3
M  V30 11 1 10 12
M  V30 12 1 11 13
M  V30 13 1 11 14
M  V30 14 1 12 15
M  V30 15 1 13 16
M  V30 16 1 14 17
M  V30 17 1 16 18
M  V30 18 1 18 19 CFG=1
M  V30 19 1 19 20
M  V30 20 2 20 21
M  V30 21 1 20 22
M  V30 22 2 22 23
M  V30 23 1 22 24
M  V30 24 1 23 25
M  V30 25 2 24 26
M  V30 26 2 25 27
M  V30 27 1 7 9
M  V30 28 1 17 18
M  V30 29 1 26 27
M  V30 END BOND
M  V30 BEGIN COLLECTION
M  V30 MDLV30/STEABS ATOMS=(2 11 18)
M  V30 END COLLECTION
M  V30 END CTAB
M  END
>  <Compound ID>
295

>  <Name>


>  <Uniprot>
P10275

>  <Target>
AR

>  <Smiles>
CCN(C1=CC=C(C#N)C(Cl)=C1)[C@H]1CC[C@H](NC(=O)C2=CC=CC=C2)CC1

>  <Kd (nM)>


>  <Assay (Kd)>


>  <Ki (nM)>


>  <Assay (Ki)>


>  <IC50 (nM)>


>  <Assay (IC50)>


>  <EC50 (nM)>


>  <Assay (EC50)>


>  <Article DOI>
10.1021/acs.jmedchem.1c00900

>  <Molecular Weight>
381.907

>  <Exact Mass>
381.160790068

>  <XLogP3>
5.07

>  <Heavy Atom Count>
27

>  <Ring Count>
3

>  <Hydrogen Bond Acceptor Count>
3

>  <Hydrogen Bond Donor Count>
1

>  <Rotatable Bond Count>
5

>  <Topological Polar Surface Area>
56.13

>  <Molecular Formula>
C22H24ClN3O

>  <InChI>
InChI=1S/C22H24ClN3O/c1-2-26(20-11-8-17(15-24)21(23)14-20)19-12-9-18(10-13-19)25-22(27)16-6-4-3-5-7-16/h3-8,11,14,18-19H,2,9-10,12-13H2,1H3,(H,25,27)/t18-,19-

>  <InChI Key>
MJGAWTCPZRAZES-WGSAOQKQSA-N

>  <BindingDB>


>  <PubChem>


>  <ChEMBL>


$$$$
Compound 1012
Actelion Java MolfileCreator 2.0

  0  0  0  0  0  0              0 V3000
M  V30 BEGIN CTAB
M  V30 COUNTS 28 30 0 0 0
M  V30 BEGIN ATOM
M  V30 1 Cl 0.0 0.0 0.0 0
M  V30 2 C -1.4047 -0.5108 0.0 0
M  V30 3 C -1.6602 -1.9736 0.0 0
M  V30 4 C -2.5773 0.4527 0.0 0
M  V30 5 C -0.5108 -2.914 0.0 0
M  V30 6 C -3.065 -2.4845 0.0 0
M  V30 7 C -3.9821 -0.058 0.0 0
M  V30 8 N 0.6385 -3.8544 0.0 0
M  V30 9 C -4.2376 -1.5208 0.0 0
M  V30 10 N -5.1547 0.9055 0.0 0
M  V30 11 C -6.5595 0.3947 0.0 0 CFG=1
M  V30 12 C -4.9226 2.3916 0.0 0
M  V30 13 C -7.7321 1.3583 0.0 0
M  V30 14 C -6.815 -1.0681 0.0 0
M  V30 15 C -6.0952 3.3552 0.0 0
M  V30 16 C -9.1369 0.8475 0.0 0
M  V30 17 C -8.2198 -1.5789 0.0 0
M  V30 18 C -5.863 4.8413 0.0 0
M  V30 19 C -9.3924 -0.6153 0.0 0 CFG=1
M  V30 20 N -10.7972 -1.1261 0.0 0
M  V30 21 C -11.9698 -0.1625 0.0 0
M  V30 22 O -11.7376 1.3235 0.0 0
M  V30 23 C -13.3746 -0.6733 0.0 0
M  V30 24 C -14.5472 0.2902 0.0 0
M  V30 25 C -13.63 -2.1362 0.0 0
M  V30 26 C -15.952 -0.2205 0.0 0
M  V30 27 C -15.0348 -2.647 0.0 0
M  V30 28 C -16.2074 -1.6834 0.0 0
M  V30 END ATOM
M  V30 BEGIN BOND
M  V30 1 1 1 2
M  V30 2 2 2 3
M  V30 3 1 2 4
M  V30 4 1 3 5
M  V30 5 1 3 6
M  V30 6 2 4 7
M  V30 7 3 5 8
M  V30 8 2 6 9
M  V30 9 1 7 10
M  V30 10 1 11 10 CFG=3
M  V30 11 1 10 12
M  V30 12 1 11 13
M  V30 13 1 11 14
M  V30 14 1 12 15
M  V30 15 1 13 16
M  V30 16 1 14 17
M  V30 17 1 15 18
M  V30 18 1 16 19
M  V30 19 1 19 20 CFG=1
M  V30 20 1 20 21
M  V30 21 2 21 22
M  V30 22 1 21 23
M  V30 23 2 23 24
M  V30 24 1 23 25
M  V30 25 1 24 26
M  V30 26 2 25 27
M  V30 27 2 26 28
M  V30 28 1 7 9
M  V30 29 1 17 19
M  V30 30 1 27 28
M  V30 END BOND
M  V30 BEGIN COLLECTION
M  V30 MDLV30/STEABS ATOMS=(2 11 19)
M  V30 END COLLECTION
M  V30 END CTAB
M  END
>  <Compound ID>
296

>  <Name>


>  <Uniprot>
P10275

>  <Target>
AR

>  <Smiles>
CCCN(C1=CC=C(C#N)C(Cl)=C1)[C@H]1CC[C@H](NC(=O)C2=CC=CC=C2)CC1

>  <Kd (nM)>


>  <Assay (Kd)>


>  <Ki (nM)>


>  <Assay (Ki)>


>  <IC50 (nM)>


>  <Assay (IC50)>


>  <EC50 (nM)>


>  <Assay (EC50)>


>  <Article DOI>
10.1021/acs.jmedchem.1c00900

>  <Molecular Weight>
395.934

>  <Exact Mass>
395.176440132

>  <XLogP3>
5.59

>  <Heavy Atom Count>
28

>  <Ring Count>
3

>  <Hydrogen Bond Acceptor Count>
3

>  <Hydrogen Bond Donor Count>
1

>  <Rotatable Bond Count>
6

>  <Topological Polar Surface Area>
56.13

>  <Molecular Formula>
C23H26ClN3O

>  <InChI>
InChI=1S/C23H26ClN3O/c1-2-14-27(21-11-8-18(16-25)22(24)15-21)20-12-9-19(10-13-20)26-23(28)17-6-4-3-5-7-17/h3-8,11,15,19-20H,2,9-10,12-14H2,1H3,(H,26,28)/t19-,20-

>  <InChI Key>
IAOCNRVILUCSSJ-MXVIHJGJSA-N

>  <BindingDB>


>  <PubChem>


>  <ChEMBL>


$$$$
Compound 1013
Actelion Java MolfileCreator 2.0

  0  0  0  0  0  0              0 V3000
M  V30 BEGIN CTAB
M  V30 COUNTS 31 34 0 0 0
M  V30 BEGIN ATOM
M  V30 1 O 0.0 0.0 0.0 0
M  V30 2 N 1.4637 0.3187 0.0 0
M  V30 3 N -0.177 -1.4873 0.0 0
M  V30 4 C 2.1956 -0.9797 0.0 0
M  V30 5 C 1.1804 -2.1011 0.0 0
M  V30 6 N 3.6829 -1.1332 0.0 0
M  V30 7 C 1.4755 -3.5649 0.0 0
M  V30 8 N 0.4485 -4.6745 0.0 0
M  V30 9 N 2.833 -4.1787 0.0 0
M  V30 10 C 1.1804 -5.9729 0.0 0
M  V30 11 C 2.6559 -5.666 0.0 0
M  V30 12 C 4.1315 -3.4232 0.0 0
M  V30 13 C 0.6964 -7.3895 0.0 0
M  V30 14 C 3.6475 -6.7756 0.0 0
M  V30 15 C 5.4181 -4.1669 0.0 0
M  V30 16 N 1.688 -8.4991 0.0 0
M  V30 17 C -0.7908 -7.6846 0.0 0
M  V30 18 O 5.1112 -6.4569 0.0 0
M  V30 19 C 3.1635 -8.1922 0.0 0
M  V30 20 C -2.2782 -7.9797 0.0 0
M  V30 21 C 6.1028 -7.5665 0.0 0
M  V30 22 C -3.7655 -8.2748 0.0 0
M  V30 23 C 7.5665 -7.2478 0.0 0 CFG=2
M  V30 24 O -5.2529 -8.5699 0.0 0
M  V30 25 C -4.0842 -6.7874 0.0 0
M  V30 26 C -3.4704 -9.7385 0.0 0
M  V30 27 C 8.0269 -5.8077 0.0 0
M  V30 28 C 8.5581 -8.3574 0.0 0
M  V30 29 N 9.4906 -5.489 0.0 0
M  V30 30 C 10.0218 -8.0387 0.0 0
M  V30 31 C 10.4822 -6.5986 0.0 0
M  V30 END ATOM
M  V30 BEGIN BOND
M  V30 1 1 1 2
M  V30 2 1 1 3
M  V30 3 2 2 4
M  V30 4 2 3 5
M  V30 5 1 4 6
M  V30 6 1 5 7
M  V30 7 2 7 8
M  V30 8 1 7 9
M  V30 9 1 8 10
M  V30 10 1 9 11
M  V30 11 1 9 12
M  V30 12 1 10 13
M  V30 13 1 11 14
M  V30 14 1 12 15
M  V30 15 2 13 16
M  V30 16 1 13 17
M  V30 17 1 14 18
M  V30 18 2 14 19
M  V30 19 3 17 20
M  V30 20 1 18 21
M  V30 21 1 20 22
M  V30 22 1 23 21 CFG=3
M  V30 23 1 22 24
M  V30 24 1 22 25
M  V30 25 1 22 26
M  V30 26 1 23 27
M  V30 27 1 23 28
M  V30 28 1 27 29
M  V30 29 1 28 30
M  V30 30 1 29 31
M  V30 31 1 4 5
M  V30 32 2 10 11
M  V30 33 1 16 19
M  V30 34 1 30 31
M  V30 END BOND
M  V30 BEGIN COLLECTION
M  V30 MDLV30/STEABS ATOMS=(1 23)
M  V30 END COLLECTION
M  V30 END CTAB
M  END
>  <Compound ID>
297

>  <Name>
GSK690693

>  <Uniprot>
P31749

>  <Target>
AKT1

>  <Smiles>
CCN1C(C2=NON=C2N)=NC2=C(C#CC(C)(C)O)N=CC(OC[C@H]3CCCNC3)=C21

>  <Kd (nM)>


>  <Assay (Kd)>


>  <Ki (nM)>


>  <Assay (Ki)>


>  <IC50 (nM)>
2

>  <Assay (IC50)>
Inhibition of AKT1

>  <EC50 (nM)>


>  <Assay (EC50)>


>  <Article DOI>
10.1016/j.bmcl.2009.01.002

>  <Molecular Weight>
425.493

>  <Exact Mass>
425.217537724

>  <XLogP3>
0.27

>  <Heavy Atom Count>
31

>  <Ring Count>
4

>  <Hydrogen Bond Acceptor Count>
10

>  <Hydrogen Bond Donor Count>
3

>  <Rotatable Bond Count>
5

>  <Topological Polar Surface Area>
137.14

>  <Molecular Formula>
C21H27N7O3

>  <InChI>
InChI=1S/C21H27N7O3/c1-4-28-18-15(30-12-13-6-5-9-23-10-13)11-24-14(7-8-21(2,3)29)16(18)25-20(28)17-19(22)27-31-26-17/h11,13,23,29H,4-6,9-10,12H2,1-3H3,(H2,22,27)/t13-/m0/s1

>  <InChI Key>
KGPGFQWBCSZGEL-ZDUSSCGKSA-N

>  <BindingDB>
25013

>  <PubChem>
16725726

>  <ChEMBL>
CHEMBL494089

$$$$
Compound 1014
Actelion Java MolfileCreator 2.0

  0  0  0  0  0  0              0 V3000
M  V30 BEGIN CTAB
M  V30 COUNTS 31 34 0 0 0
M  V30 BEGIN ATOM
M  V30 1 O 0.0 0.0 0.0 0
M  V30 2 N 1.4637 0.3187 0.0 0
M  V30 3 N -0.177 -1.4873 0.0 0
M  V30 4 C 2.1956 -0.9797 0.0 0
M  V30 5 C 1.1804 -2.1011 0.0 0
M  V30 6 N 3.6829 -1.1332 0.0 0
M  V30 7 C 1.4755 -3.5649 0.0 0
M  V30 8 N 0.4485 -4.6745 0.0 0
M  V30 9 N 2.833 -4.1787 0.0 0
M  V30 10 C 1.1804 -5.9729 0.0 0
M  V30 11 C 2.6559 -5.666 0.0 0
M  V30 12 C 4.1315 -3.4232 0.0 0
M  V30 13 C 0.6964 -7.3895 0.0 0
M  V30 14 C 3.6475 -6.7756 0.0 0
M  V30 15 C 5.4181 -4.1669 0.0 0
M  V30 16 N 1.688 -8.4991 0.0 0
M  V30 17 C -0.7908 -7.6846 0.0 0
M  V30 18 O 5.1112 -6.4569 0.0 0
M  V30 19 C 3.1635 -8.1922 0.0 0
M  V30 20 C -2.2782 -7.9797 0.0 0
M  V30 21 C 6.1028 -7.5665 0.0 0
M  V30 22 C -3.7655 -8.2748 0.0 0
M  V30 23 C 7.5665 -7.2478 0.0 0 CFG=2
M  V30 24 O -5.2529 -8.5699 0.0 0
M  V30 25 C -4.0842 -6.7874 0.0 0
M  V30 26 C -3.4704 -9.7385 0.0 0
M  V30 27 C 8.0269 -5.8077 0.0 0
M  V30 28 C 8.5581 -8.3574 0.0 0
M  V30 29 N 9.4906 -5.489 0.0 0
M  V30 30 C 10.0218 -8.0387 0.0 0
M  V30 31 C 10.4822 -6.5986 0.0 0
M  V30 END ATOM
M  V30 BEGIN BOND
M  V30 1 1 1 2
M  V30 2 1 1 3
M  V30 3 2 2 4
M  V30 4 2 3 5
M  V30 5 1 4 6
M  V30 6 1 5 7
M  V30 7 2 7 8
M  V30 8 1 7 9
M  V30 9 1 8 10
M  V30 10 1 9 11
M  V30 11 1 9 12
M  V30 12 1 10 13
M  V30 13 1 11 14
M  V30 14 1 12 15
M  V30 15 2 13 16
M  V30 16 1 13 17
M  V30 17 1 14 18
M  V30 18 2 14 19
M  V30 19 3 17 20
M  V30 20 1 18 21
M  V30 21 1 20 22
M  V30 22 1 23 21 CFG=3
M  V30 23 1 22 24
M  V30 24 1 22 25
M  V30 25 1 22 26
M  V30 26 1 23 27
M  V30 27 1 23 28
M  V30 28 1 27 29
M  V30 29 1 28 30
M  V30 30 1 29 31
M  V30 31 1 4 5
M  V30 32 2 10 11
M  V30 33 1 16 19
M  V30 34 1 30 31
M  V30 END BOND
M  V30 BEGIN COLLECTION
M  V30 MDLV30/STEABS ATOMS=(1 23)
M  V30 END COLLECTION
M  V30 END CTAB
M  END
>  <Compound ID>
297

>  <Name>
GSK690693

>  <Uniprot>
P31751

>  <Target>
AKT2

>  <Smiles>
CCN1C(C2=NON=C2N)=NC2=C(C#CC(C)(C)O)N=CC(OC[C@H]3CCCNC3)=C21

>  <Kd (nM)>


>  <Assay (Kd)>


>  <Ki (nM)>


>  <Assay (Ki)>


>  <IC50 (nM)>
13

>  <Assay (IC50)>
Inhibition of AKT2

>  <EC50 (nM)>


>  <Assay (EC50)>


>  <Article DOI>
10.1016/j.bmcl.2009.01.002

>  <Molecular Weight>
425.493

>  <Exact Mass>
425.217537724

>  <XLogP3>
0.27

>  <Heavy Atom Count>
31

>  <Ring Count>
4

>  <Hydrogen Bond Acceptor Count>
10

>  <Hydrogen Bond Donor Count>
3

>  <Rotatable Bond Count>
5

>  <Topological Polar Surface Area>
137.14

>  <Molecular Formula>
C21H27N7O3

>  <InChI>
InChI=1S/C21H27N7O3/c1-4-28-18-15(30-12-13-6-5-9-23-10-13)11-24-14(7-8-21(2,3)29)16(18)25-20(28)17-19(22)27-31-26-17/h11,13,23,29H,4-6,9-10,12H2,1-3H3,(H2,22,27)/t13-/m0/s1

>  <InChI Key>
KGPGFQWBCSZGEL-ZDUSSCGKSA-N

>  <BindingDB>
25013

>  <PubChem>
16725726

>  <ChEMBL>
CHEMBL494089

$$$$
Compound 1015
Actelion Java MolfileCreator 2.0

  0  0  0  0  0  0              0 V3000
M  V30 BEGIN CTAB
M  V30 COUNTS 31 34 0 0 0
M  V30 BEGIN ATOM
M  V30 1 O 0.0 0.0 0.0 0
M  V30 2 N 1.4637 0.3187 0.0 0
M  V30 3 N -0.177 -1.4873 0.0 0
M  V30 4 C 2.1956 -0.9797 0.0 0
M  V30 5 C 1.1804 -2.1011 0.0 0
M  V30 6 N 3.6829 -1.1332 0.0 0
M  V30 7 C 1.4755 -3.5649 0.0 0
M  V30 8 N 0.4485 -4.6745 0.0 0
M  V30 9 N 2.833 -4.1787 0.0 0
M  V30 10 C 1.1804 -5.9729 0.0 0
M  V30 11 C 2.6559 -5.666 0.0 0
M  V30 12 C 4.1315 -3.4232 0.0 0
M  V30 13 C 0.6964 -7.3895 0.0 0
M  V30 14 C 3.6475 -6.7756 0.0 0
M  V30 15 C 5.4181 -4.1669 0.0 0
M  V30 16 N 1.688 -8.4991 0.0 0
M  V30 17 C -0.7908 -7.6846 0.0 0
M  V30 18 O 5.1112 -6.4569 0.0 0
M  V30 19 C 3.1635 -8.1922 0.0 0
M  V30 20 C -2.2782 -7.9797 0.0 0
M  V30 21 C 6.1028 -7.5665 0.0 0
M  V30 22 C -3.7655 -8.2748 0.0 0
M  V30 23 C 7.5665 -7.2478 0.0 0 CFG=2
M  V30 24 O -5.2529 -8.5699 0.0 0
M  V30 25 C -4.0842 -6.7874 0.0 0
M  V30 26 C -3.4704 -9.7385 0.0 0
M  V30 27 C 8.0269 -5.8077 0.0 0
M  V30 28 C 8.5581 -8.3574 0.0 0
M  V30 29 N 9.4906 -5.489 0.0 0
M  V30 30 C 10.0218 -8.0387 0.0 0
M  V30 31 C 10.4822 -6.5986 0.0 0
M  V30 END ATOM
M  V30 BEGIN BOND
M  V30 1 1 1 2
M  V30 2 1 1 3
M  V30 3 2 2 4
M  V30 4 2 3 5
M  V30 5 1 4 6
M  V30 6 1 5 7
M  V30 7 2 7 8
M  V30 8 1 7 9
M  V30 9 1 8 10
M  V30 10 1 9 11
M  V30 11 1 9 12
M  V30 12 1 10 13
M  V30 13 1 11 14
M  V30 14 1 12 15
M  V30 15 2 13 16
M  V30 16 1 13 17
M  V30 17 1 14 18
M  V30 18 2 14 19
M  V30 19 3 17 20
M  V30 20 1 18 21
M  V30 21 1 20 22
M  V30 22 1 23 21 CFG=3
M  V30 23 1 22 24
M  V30 24 1 22 25
M  V30 25 1 22 26
M  V30 26 1 23 27
M  V30 27 1 23 28
M  V30 28 1 27 29
M  V30 29 1 28 30
M  V30 30 1 29 31
M  V30 31 1 4 5
M  V30 32 2 10 11
M  V30 33 1 16 19
M  V30 34 1 30 31
M  V30 END BOND
M  V30 BEGIN COLLECTION
M  V30 MDLV30/STEABS ATOMS=(1 23)
M  V30 END COLLECTION
M  V30 END CTAB
M  END
>  <Compound ID>
297

>  <Name>
GSK690693

>  <Uniprot>
Q9Y243

>  <Target>
AKT3

>  <Smiles>
CCN1C(C2=NON=C2N)=NC2=C(C#CC(C)(C)O)N=CC(OC[C@H]3CCCNC3)=C21

>  <Kd (nM)>


>  <Assay (Kd)>


>  <Ki (nM)>


>  <Assay (Ki)>


>  <IC50 (nM)>
9

>  <Assay (IC50)>
Inhibition of AKT3

>  <EC50 (nM)>


>  <Assay (EC50)>


>  <Article DOI>
10.1016/j.bmcl.2009.01.002

>  <Molecular Weight>
425.493

>  <Exact Mass>
425.217537724

>  <XLogP3>
0.27

>  <Heavy Atom Count>
31

>  <Ring Count>
4

>  <Hydrogen Bond Acceptor Count>
10

>  <Hydrogen Bond Donor Count>
3

>  <Rotatable Bond Count>
5

>  <Topological Polar Surface Area>
137.14

>  <Molecular Formula>
C21H27N7O3

>  <InChI>
InChI=1S/C21H27N7O3/c1-4-28-18-15(30-12-13-6-5-9-23-10-13)11-24-14(7-8-21(2,3)29)16(18)25-20(28)17-19(22)27-31-26-17/h11,13,23,29H,4-6,9-10,12H2,1-3H3,(H2,22,27)/t13-/m0/s1

>  <InChI Key>
KGPGFQWBCSZGEL-ZDUSSCGKSA-N

>  <BindingDB>
25013

>  <PubChem>
16725726

>  <ChEMBL>
CHEMBL494089

$$$$
Compound 1016
Actelion Java MolfileCreator 2.0

  0  0  0  0  0  0              0 V3000
M  V30 BEGIN CTAB
M  V30 COUNTS 39 44 0 0 0
M  V30 BEGIN ATOM
M  V30 1 O 0.0 0.0 0.0 0
M  V30 2 C 1.3359 -0.6502 0.0 0
M  V30 3 N 1.4305 -2.1398 0.0 0
M  V30 4 C 2.5772 0.2009 0.0 0
M  V30 5 C 2.6955 -2.9319 0.0 0
M  V30 6 C 0.26 -3.0974 0.0 0
M  V30 7 C 2.459 1.7142 0.0 0
M  V30 8 C 2.3171 -4.3743 0.0 0 CFG=2
M  V30 9 C 0.8039 -4.4807 0.0 0
M  V30 10 N 3.2748 -5.521 0.0 0
M  V30 11 C 2.8964 -6.9634 0.0 0
M  V30 12 C 4.7644 -5.4028 0.0 0
M  V30 13 N 4.1614 -7.7555 0.0 0
M  V30 14 N 1.4896 -7.5072 0.0 0
M  V30 15 N 5.6865 -4.2087 0.0 0
M  V30 16 C 5.3082 -6.786 0.0 0
M  V30 17 C 0.2955 -6.5614 0.0 0
M  V30 18 C 7.1643 -4.4097 0.0 0
M  V30 19 C 6.786 -6.987 0.0 0
M  V30 20 C 0.4965 -5.06 0.0 0
M  V30 21 C -1.1113 -7.1052 0.0 0
M  V30 22 N 7.7082 -5.7929 0.0 0
M  V30 23 N 8.0865 -3.2157 0.0 0
M  V30 24 C -0.6975 -4.1142 0.0 0
M  V30 25 C -2.3053 -6.1594 0.0 0
M  V30 26 C 9.5643 -3.4166 0.0 0
M  V30 27 C -2.1043 -4.658 0.0 0
M  V30 28 C 10.1081 -4.7999 0.0 0
M  V30 29 C 10.4864 -2.2226 0.0 0
M  V30 30 C 11.5859 -5.0008 0.0 0
M  V30 31 C 11.9643 -2.4235 0.0 0
M  V30 32 C 12.5081 -3.8068 0.0 0
M  V30 33 N 13.9859 -4.0078 0.0 0
M  V30 34 C 14.5297 -5.391 0.0 0
M  V30 35 C 14.908 -2.8137 0.0 0
M  V30 36 C 16.0075 -5.592 0.0 0
M  V30 37 C 16.3858 -3.0147 0.0 0
M  V30 38 N 16.9297 -4.3979 0.0 0
M  V30 39 C 18.4075 -4.5989 0.0 0
M  V30 END ATOM
M  V30 BEGIN BOND
M  V30 1 2 1 2
M  V30 2 1 2 3
M  V30 3 1 2 4
M  V30 4 1 3 5
M  V30 5 1 3 6
M  V30 6 2 4 7
M  V30 7 1 5 8
M  V30 8 1 6 9
M  V30 9 1 8 10 CFG=1
M  V30 10 1 10 11
M  V30 11 1 10 12
M  V30 12 2 11 13
M  V30 13 1 11 14
M  V30 14 2 12 15
M  V30 15 1 12 16
M  V30 16 1 14 17
M  V30 17 1 15 18
M  V30 18 2 16 19
M  V30 19 2 17 20
M  V30 20 1 17 21
M  V30 21 2 18 22
M  V30 22 1 18 23
M  V30 23 1 20 24
M  V30 24 2 21 25
M  V30 25 1 23 26
M  V30 26 2 24 27
M  V30 27 2 26 28
M  V30 28 1 26 29
M  V30 29 1 28 30
M  V30 30 2 29 31
M  V30 31 2 30 32
M  V30 32 1 32 33
M  V30 33 1 33 34
M  V30 34 1 33 35
M  V30 35 1 34 36
M  V30 36 1 35 37
M  V30 37 1 36 38
M  V30 38 1 38 39
M  V30 39 1 8 9
M  V30 40 1 13 16
M  V30 41 1 19 22
M  V30 42 1 25 27
M  V30 43 1 31 32
M  V30 44 1 37 38
M  V30 END BOND
M  V30 BEGIN COLLECTION
M  V30 MDLV30/STEABS ATOMS=(1 8)
M  V30 END COLLECTION
M  V30 END CTAB
M  END
>  <Compound ID>
298

>  <Name>


>  <Uniprot>
P00533

>  <Target>
EGFR e19d

>  <Smiles>
C=CC(=O)N1CC[C@H](N2C(NC3=CC=CC=C3)=NC3=CN=C(NC4=CC=C(N5CCN(C)CC5)C=C4)N=C32)C1

>  <Kd (nM)>


>  <Assay (Kd)>


>  <Ki (nM)>


>  <Assay (Ki)>


>  <IC50 (nM)>
0.47

>  <Assay (IC50)>
Inhibit proliferation of HCC827 (EGFR del19) cells

>  <EC50 (nM)>


>  <Assay (EC50)>


>  <Article DOI>
10.1021/acs.jmedchem.1c01827

>  <Molecular Weight>
523.645

>  <Exact Mass>
523.280806676

>  <XLogP3>
3.93

>  <Heavy Atom Count>
39

>  <Ring Count>
6

>  <Hydrogen Bond Acceptor Count>
9

>  <Hydrogen Bond Donor Count>
2

>  <Rotatable Bond Count>
7

>  <Topological Polar Surface Area>
94.45

>  <Molecular Formula>
C29H33N9O

>  <InChI>
InChI=1S/C29H33N9O/c1-3-26(39)37-14-13-24(20-37)38-27-25(33-29(38)32-21-7-5-4-6-8-21)19-30-28(34-27)31-22-9-11-23(12-10-22)36-17-15-35(2)16-18-36/h3-12,19,24H,1,13-18,20H2,2H3,(H,32,33)(H,30,31,34)/t24-/m0/s1

>  <InChI Key>
RGGHJDGRJJWIJE-DEOSSOPVSA-N

>  <BindingDB>


>  <PubChem>
162356161

>  <ChEMBL>


$$$$
Compound 1017
Actelion Java MolfileCreator 2.0

  0  0  0  0  0  0              0 V3000
M  V30 BEGIN CTAB
M  V30 COUNTS 39 44 0 0 0
M  V30 BEGIN ATOM
M  V30 1 O 0.0 0.0 0.0 0
M  V30 2 C 1.3359 -0.6502 0.0 0
M  V30 3 N 1.4305 -2.1398 0.0 0
M  V30 4 C 2.5772 0.2009 0.0 0
M  V30 5 C 2.6955 -2.9319 0.0 0
M  V30 6 C 0.26 -3.0974 0.0 0
M  V30 7 C 2.459 1.7142 0.0 0
M  V30 8 C 2.3171 -4.3743 0.0 0 CFG=2
M  V30 9 C 0.8039 -4.4807 0.0 0
M  V30 10 N 3.2748 -5.521 0.0 0
M  V30 11 C 2.8964 -6.9634 0.0 0
M  V30 12 C 4.7644 -5.4028 0.0 0
M  V30 13 N 4.1614 -7.7555 0.0 0
M  V30 14 N 1.4896 -7.5072 0.0 0
M  V30 15 N 5.6865 -4.2087 0.0 0
M  V30 16 C 5.3082 -6.786 0.0 0
M  V30 17 C 0.2955 -6.5614 0.0 0
M  V30 18 C 7.1643 -4.4097 0.0 0
M  V30 19 C 6.786 -6.987 0.0 0
M  V30 20 C 0.4965 -5.06 0.0 0
M  V30 21 C -1.1113 -7.1052 0.0 0
M  V30 22 N 7.7082 -5.7929 0.0 0
M  V30 23 N 8.0865 -3.2157 0.0 0
M  V30 24 C -0.6975 -4.1142 0.0 0
M  V30 25 C -2.3053 -6.1594 0.0 0
M  V30 26 C 9.5643 -3.4166 0.0 0
M  V30 27 C -2.1043 -4.658 0.0 0
M  V30 28 C 10.1081 -4.7999 0.0 0
M  V30 29 C 10.4864 -2.2226 0.0 0
M  V30 30 C 11.5859 -5.0008 0.0 0
M  V30 31 C 11.9643 -2.4235 0.0 0
M  V30 32 C 12.5081 -3.8068 0.0 0
M  V30 33 N 13.9859 -4.0078 0.0 0
M  V30 34 C 14.5297 -5.391 0.0 0
M  V30 35 C 14.908 -2.8137 0.0 0
M  V30 36 C 16.0075 -5.592 0.0 0
M  V30 37 C 16.3858 -3.0147 0.0 0
M  V30 38 N 16.9297 -4.3979 0.0 0
M  V30 39 C 18.4075 -4.5989 0.0 0
M  V30 END ATOM
M  V30 BEGIN BOND
M  V30 1 2 1 2
M  V30 2 1 2 3
M  V30 3 1 2 4
M  V30 4 1 3 5
M  V30 5 1 3 6
M  V30 6 2 4 7
M  V30 7 1 5 8
M  V30 8 1 6 9
M  V30 9 1 8 10 CFG=1
M  V30 10 1 10 11
M  V30 11 1 10 12
M  V30 12 2 11 13
M  V30 13 1 11 14
M  V30 14 2 12 15
M  V30 15 1 12 16
M  V30 16 1 14 17
M  V30 17 1 15 18
M  V30 18 2 16 19
M  V30 19 2 17 20
M  V30 20 1 17 21
M  V30 21 2 18 22
M  V30 22 1 18 23
M  V30 23 1 20 24
M  V30 24 2 21 25
M  V30 25 1 23 26
M  V30 26 2 24 27
M  V30 27 2 26 28
M  V30 28 1 26 29
M  V30 29 1 28 30
M  V30 30 2 29 31
M  V30 31 2 30 32
M  V30 32 1 32 33
M  V30 33 1 33 34
M  V30 34 1 33 35
M  V30 35 1 34 36
M  V30 36 1 35 37
M  V30 37 1 36 38
M  V30 38 1 38 39
M  V30 39 1 8 9
M  V30 40 1 13 16
M  V30 41 1 19 22
M  V30 42 1 25 27
M  V30 43 1 31 32
M  V30 44 1 37 38
M  V30 END BOND
M  V30 BEGIN COLLECTION
M  V30 MDLV30/STEABS ATOMS=(1 8)
M  V30 END COLLECTION
M  V30 END CTAB
M  END
>  <Compound ID>
298

>  <Name>


>  <Uniprot>
P00533

>  <Target>
EGFR L858R/T790M

>  <Smiles>
C=CC(=O)N1CC[C@H](N2C(NC3=CC=CC=C3)=NC3=CN=C(NC4=CC=C(N5CCN(C)CC5)C=C4)N=C32)C1

>  <Kd (nM)>


>  <Assay (Kd)>


>  <Ki (nM)>


>  <Assay (Ki)>


>  <IC50 (nM)>
23

>  <Assay (IC50)>
Inhibition of EGFR L858R/T790M

>  <EC50 (nM)>


>  <Assay (EC50)>


>  <Article DOI>
10.1021/acs.jmedchem.1c01827

>  <Molecular Weight>
523.645

>  <Exact Mass>
523.280806676

>  <XLogP3>
3.93

>  <Heavy Atom Count>
39

>  <Ring Count>
6

>  <Hydrogen Bond Acceptor Count>
9

>  <Hydrogen Bond Donor Count>
2

>  <Rotatable Bond Count>
7

>  <Topological Polar Surface Area>
94.45

>  <Molecular Formula>
C29H33N9O

>  <InChI>
InChI=1S/C29H33N9O/c1-3-26(39)37-14-13-24(20-37)38-27-25(33-29(38)32-21-7-5-4-6-8-21)19-30-28(34-27)31-22-9-11-23(12-10-22)36-17-15-35(2)16-18-36/h3-12,19,24H,1,13-18,20H2,2H3,(H,32,33)(H,30,31,34)/t24-/m0/s1

>  <InChI Key>
RGGHJDGRJJWIJE-DEOSSOPVSA-N

>  <BindingDB>


>  <PubChem>
162356161

>  <ChEMBL>


$$$$
Compound 1018
Actelion Java MolfileCreator 2.0

  0  0  0  0  0  0              0 V3000
M  V30 BEGIN CTAB
M  V30 COUNTS 39 44 0 0 0
M  V30 BEGIN ATOM
M  V30 1 O 0.0 0.0 0.0 0
M  V30 2 C 1.3359 -0.6502 0.0 0
M  V30 3 N 1.4305 -2.1398 0.0 0
M  V30 4 C 2.5772 0.2009 0.0 0
M  V30 5 C 2.6955 -2.9319 0.0 0
M  V30 6 C 0.26 -3.0974 0.0 0
M  V30 7 C 2.459 1.7142 0.0 0
M  V30 8 C 2.3171 -4.3743 0.0 0 CFG=2
M  V30 9 C 0.8039 -4.4807 0.0 0
M  V30 10 N 3.2748 -5.521 0.0 0
M  V30 11 C 2.8964 -6.9634 0.0 0
M  V30 12 C 4.7644 -5.4028 0.0 0
M  V30 13 N 4.1614 -7.7555 0.0 0
M  V30 14 N 1.4896 -7.5072 0.0 0
M  V30 15 N 5.6865 -4.2087 0.0 0
M  V30 16 C 5.3082 -6.786 0.0 0
M  V30 17 C 0.2955 -6.5614 0.0 0
M  V30 18 C 7.1643 -4.4097 0.0 0
M  V30 19 C 6.786 -6.987 0.0 0
M  V30 20 C 0.4965 -5.06 0.0 0
M  V30 21 C -1.1113 -7.1052 0.0 0
M  V30 22 N 7.7082 -5.7929 0.0 0
M  V30 23 N 8.0865 -3.2157 0.0 0
M  V30 24 C -0.6975 -4.1142 0.0 0
M  V30 25 C -2.3053 -6.1594 0.0 0
M  V30 26 C 9.5643 -3.4166 0.0 0
M  V30 27 C -2.1043 -4.658 0.0 0
M  V30 28 C 10.1081 -4.7999 0.0 0
M  V30 29 C 10.4864 -2.2226 0.0 0
M  V30 30 C 11.5859 -5.0008 0.0 0
M  V30 31 C 11.9643 -2.4235 0.0 0
M  V30 32 C 12.5081 -3.8068 0.0 0
M  V30 33 N 13.9859 -4.0078 0.0 0
M  V30 34 C 14.5297 -5.391 0.0 0
M  V30 35 C 14.908 -2.8137 0.0 0
M  V30 36 C 16.0075 -5.592 0.0 0
M  V30 37 C 16.3858 -3.0147 0.0 0
M  V30 38 N 16.9297 -4.3979 0.0 0
M  V30 39 C 18.4075 -4.5989 0.0 0
M  V30 END ATOM
M  V30 BEGIN BOND
M  V30 1 2 1 2
M  V30 2 1 2 3
M  V30 3 1 2 4
M  V30 4 1 3 5
M  V30 5 1 3 6
M  V30 6 2 4 7
M  V30 7 1 5 8
M  V30 8 1 6 9
M  V30 9 1 8 10 CFG=1
M  V30 10 1 10 11
M  V30 11 1 10 12
M  V30 12 2 11 13
M  V30 13 1 11 14
M  V30 14 2 12 15
M  V30 15 1 12 16
M  V30 16 1 14 17
M  V30 17 1 15 18
M  V30 18 2 16 19
M  V30 19 2 17 20
M  V30 20 1 17 21
M  V30 21 2 18 22
M  V30 22 1 18 23
M  V30 23 1 20 24
M  V30 24 2 21 25
M  V30 25 1 23 26
M  V30 26 2 24 27
M  V30 27 2 26 28
M  V30 28 1 26 29
M  V30 29 1 28 30
M  V30 30 2 29 31
M  V30 31 2 30 32
M  V30 32 1 32 33
M  V30 33 1 33 34
M  V30 34 1 33 35
M  V30 35 1 34 36
M  V30 36 1 35 37
M  V30 37 1 36 38
M  V30 38 1 38 39
M  V30 39 1 8 9
M  V30 40 1 13 16
M  V30 41 1 19 22
M  V30 42 1 25 27
M  V30 43 1 31 32
M  V30 44 1 37 38
M  V30 END BOND
M  V30 BEGIN COLLECTION
M  V30 MDLV30/STEABS ATOMS=(1 8)
M  V30 END COLLECTION
M  V30 END CTAB
M  END
>  <Compound ID>
298

>  <Name>


>  <Uniprot>
P00533

>  <Target>
EGFR

>  <Smiles>
C=CC(=O)N1CC[C@H](N2C(NC3=CC=CC=C3)=NC3=CN=C(NC4=CC=C(N5CCN(C)CC5)C=C4)N=C32)C1

>  <Kd (nM)>


>  <Assay (Kd)>


>  <Ki (nM)>


>  <Assay (Ki)>


>  <IC50 (nM)>
2905

>  <Assay (IC50)>
Inhibit proliferation of A431 cells

>  <EC50 (nM)>


>  <Assay (EC50)>


>  <Article DOI>
10.1021/acs.jmedchem.1c01827

>  <Molecular Weight>
523.645

>  <Exact Mass>
523.280806676

>  <XLogP3>
3.93

>  <Heavy Atom Count>
39

>  <Ring Count>
6

>  <Hydrogen Bond Acceptor Count>
9

>  <Hydrogen Bond Donor Count>
2

>  <Rotatable Bond Count>
7

>  <Topological Polar Surface Area>
94.45

>  <Molecular Formula>
C29H33N9O

>  <InChI>
InChI=1S/C29H33N9O/c1-3-26(39)37-14-13-24(20-37)38-27-25(33-29(38)32-21-7-5-4-6-8-21)19-30-28(34-27)31-22-9-11-23(12-10-22)36-17-15-35(2)16-18-36/h3-12,19,24H,1,13-18,20H2,2H3,(H,32,33)(H,30,31,34)/t24-/m0/s1

>  <InChI Key>
RGGHJDGRJJWIJE-DEOSSOPVSA-N

>  <BindingDB>


>  <PubChem>
162356161

>  <ChEMBL>


$$$$
Compound 1019
Actelion Java MolfileCreator 2.0

  0  0  0  0  0  0              0 V3000
M  V30 BEGIN CTAB
M  V30 COUNTS 40 45 0 0 0
M  V30 BEGIN ATOM
M  V30 1 O 0.0 0.0 0.0 0
M  V30 2 C 0.688 1.3406 0.0 0
M  V30 3 N 2.1829 1.4117 0.0 0
M  V30 4 C -0.1305 2.6337 0.0 0
M  V30 5 C 2.9778 0.1423 0.0 0
M  V30 6 C 2.871 2.7523 0.0 0
M  V30 7 C -1.649 2.5863 0.0 0
M  V30 8 C 4.4726 0.2135 0.0 0 CFG=1
M  V30 9 C 4.3658 2.8235 0.0 0
M  V30 10 N 5.2675 -1.0558 0.0 0
M  V30 11 C 5.1607 1.5541 0.0 0
M  V30 12 C 4.698 -2.4439 0.0 0
M  V30 13 C 6.7623 -1.1389 0.0 0
M  V30 14 N 5.8488 -3.393 0.0 0
M  V30 15 N 3.2269 -2.7998 0.0 0
M  V30 16 N 7.83 -0.0711 0.0 0
M  V30 17 C 7.1182 -2.5863 0.0 0
M  V30 18 C 2.7998 -4.2353 0.0 0
M  V30 19 C 9.2656 -0.4745 0.0 0
M  V30 20 C 8.5537 -2.9896 0.0 0
M  V30 21 C 3.8438 -5.3031 0.0 0
M  V30 22 C 1.3287 -4.5912 0.0 0
M  V30 23 N 9.6215 -1.9219 0.0 0
M  V30 24 N 10.3333 0.5931 0.0 0
M  V30 25 C 3.4167 -6.7386 0.0 0
M  V30 26 C 0.9016 -6.0267 0.0 0
M  V30 27 C 11.7688 0.1898 0.0 0
M  V30 28 C 1.9456 -7.0945 0.0 0
M  V30 29 C 12.1247 -1.2575 0.0 0
M  V30 30 C 12.8366 1.2575 0.0 0
M  V30 31 C 13.5602 -1.6609 0.0 0
M  V30 32 C 14.2721 0.8541 0.0 0
M  V30 33 C 14.628 -0.5931 0.0 0
M  V30 34 N 16.0635 -0.9965 0.0 0
M  V30 35 C 16.4194 -2.4439 0.0 0
M  V30 36 C 17.1312 0.0711 0.0 0
M  V30 37 C 17.8549 -2.8473 0.0 0
M  V30 38 C 18.5668 -0.3321 0.0 0
M  V30 39 N 18.9227 -1.7795 0.0 0
M  V30 40 C 20.3582 -2.1829 0.0 0
M  V30 END ATOM
M  V30 BEGIN BOND
M  V30 1 2 1 2
M  V30 2 1 2 3
M  V30 3 1 2 4
M  V30 4 1 3 5
M  V30 5 1 3 6
M  V30 6 2 4 7
M  V30 7 1 5 8
M  V30 8 1 6 9
M  V30 9 1 8 10 CFG=3
M  V30 10 1 8 11
M  V30 11 1 10 12
M  V30 12 1 10 13
M  V30 13 2 12 14
M  V30 14 1 12 15
M  V30 15 2 13 16
M  V30 16 1 13 17
M  V30 17 1 15 18
M  V30 18 1 16 19
M  V30 19 2 17 20
M  V30 20 2 18 21
M  V30 21 1 18 22
M  V30 22 2 19 23
M  V30 23 1 19 24
M  V30 24 1 21 25
M  V30 25 2 22 26
M  V30 26 1 24 27
M  V30 27 2 25 28
M  V30 28 2 27 29
M  V30 29 1 27 30
M  V30 30 1 29 31
M  V30 31 2 30 32
M  V30 32 2 31 33
M  V30 33 1 33 34
M  V30 34 1 34 35
M  V30 35 1 34 36
M  V30 36 1 35 37
M  V30 37 1 36 38
M  V30 38 1 37 39
M  V30 39 1 39 40
M  V30 40 1 9 11
M  V30 41 1 14 17
M  V30 42 1 20 23
M  V30 43 1 26 28
M  V30 44 1 32 33
M  V30 45 1 38 39
M  V30 END BOND
M  V30 BEGIN COLLECTION
M  V30 MDLV30/STEABS ATOMS=(1 8)
M  V30 END COLLECTION
M  V30 END CTAB
M  END
>  <Compound ID>
299

>  <Name>


>  <Uniprot>
P00533

>  <Target>
EGFR e19d

>  <Smiles>
C=CC(=O)N1CCC[C@H](N2C(NC3=CC=CC=C3)=NC3=CN=C(NC4=CC=C(N5CCN(C)CC5)C=C4)N=C32)C1

>  <Kd (nM)>


>  <Assay (Kd)>


>  <Ki (nM)>


>  <Assay (Ki)>


>  <IC50 (nM)>
0.33

>  <Assay (IC50)>
Inhibit proliferation of HCC827 (EGFR del19) cells

>  <EC50 (nM)>


>  <Assay (EC50)>


>  <Article DOI>
10.1021/acs.jmedchem.1c01827

>  <Molecular Weight>
537.672

>  <Exact Mass>
537.29645674

>  <XLogP3>
4.28

>  <Heavy Atom Count>
40

>  <Ring Count>
6

>  <Hydrogen Bond Acceptor Count>
9

>  <Hydrogen Bond Donor Count>
2

>  <Rotatable Bond Count>
7

>  <Topological Polar Surface Area>
94.45

>  <Molecular Formula>
C30H35N9O

>  <InChI>
InChI=1S/C30H35N9O/c1-3-27(40)38-15-7-10-25(21-38)39-28-26(34-30(39)33-22-8-5-4-6-9-22)20-31-29(35-28)32-23-11-13-24(14-12-23)37-18-16-36(2)17-19-37/h3-6,8-9,11-14,20,25H,1,7,10,15-19,21H2,2H3,(H,33,34)(H,31,32,35)/t25-/m0/s1

>  <InChI Key>
WPMXUVGZCGGVSI-VWLOTQADSA-N

>  <BindingDB>


>  <PubChem>
162356156

>  <ChEMBL>


$$$$
Compound 1020
Actelion Java MolfileCreator 2.0

  0  0  0  0  0  0              0 V3000
M  V30 BEGIN CTAB
M  V30 COUNTS 40 45 0 0 0
M  V30 BEGIN ATOM
M  V30 1 O 0.0 0.0 0.0 0
M  V30 2 C 0.688 1.3406 0.0 0
M  V30 3 N 2.1829 1.4117 0.0 0
M  V30 4 C -0.1305 2.6337 0.0 0
M  V30 5 C 2.9778 0.1423 0.0 0
M  V30 6 C 2.871 2.7523 0.0 0
M  V30 7 C -1.649 2.5863 0.0 0
M  V30 8 C 4.4726 0.2135 0.0 0 CFG=1
M  V30 9 C 4.3658 2.8235 0.0 0
M  V30 10 N 5.2675 -1.0558 0.0 0
M  V30 11 C 5.1607 1.5541 0.0 0
M  V30 12 C 4.698 -2.4439 0.0 0
M  V30 13 C 6.7623 -1.1389 0.0 0
M  V30 14 N 5.8488 -3.393 0.0 0
M  V30 15 N 3.2269 -2.7998 0.0 0
M  V30 16 N 7.83 -0.0711 0.0 0
M  V30 17 C 7.1182 -2.5863 0.0 0
M  V30 18 C 2.7998 -4.2353 0.0 0
M  V30 19 C 9.2656 -0.4745 0.0 0
M  V30 20 C 8.5537 -2.9896 0.0 0
M  V30 21 C 3.8438 -5.3031 0.0 0
M  V30 22 C 1.3287 -4.5912 0.0 0
M  V30 23 N 9.6215 -1.9219 0.0 0
M  V30 24 N 10.3333 0.5931 0.0 0
M  V30 25 C 3.4167 -6.7386 0.0 0
M  V30 26 C 0.9016 -6.0267 0.0 0
M  V30 27 C 11.7688 0.1898 0.0 0
M  V30 28 C 1.9456 -7.0945 0.0 0
M  V30 29 C 12.1247 -1.2575 0.0 0
M  V30 30 C 12.8366 1.2575 0.0 0
M  V30 31 C 13.5602 -1.6609 0.0 0
M  V30 32 C 14.2721 0.8541 0.0 0
M  V30 33 C 14.628 -0.5931 0.0 0
M  V30 34 N 16.0635 -0.9965 0.0 0
M  V30 35 C 16.4194 -2.4439 0.0 0
M  V30 36 C 17.1312 0.0711 0.0 0
M  V30 37 C 17.8549 -2.8473 0.0 0
M  V30 38 C 18.5668 -0.3321 0.0 0
M  V30 39 N 18.9227 -1.7795 0.0 0
M  V30 40 C 20.3582 -2.1829 0.0 0
M  V30 END ATOM
M  V30 BEGIN BOND
M  V30 1 2 1 2
M  V30 2 1 2 3
M  V30 3 1 2 4
M  V30 4 1 3 5
M  V30 5 1 3 6
M  V30 6 2 4 7
M  V30 7 1 5 8
M  V30 8 1 6 9
M  V30 9 1 8 10 CFG=3
M  V30 10 1 8 11
M  V30 11 1 10 12
M  V30 12 1 10 13
M  V30 13 2 12 14
M  V30 14 1 12 15
M  V30 15 2 13 16
M  V30 16 1 13 17
M  V30 17 1 15 18
M  V30 18 1 16 19
M  V30 19 2 17 20
M  V30 20 2 18 21
M  V30 21 1 18 22
M  V30 22 2 19 23
M  V30 23 1 19 24
M  V30 24 1 21 25
M  V30 25 2 22 26
M  V30 26 1 24 27
M  V30 27 2 25 28
M  V30 28 2 27 29
M  V30 29 1 27 30
M  V30 30 1 29 31
M  V30 31 2 30 32
M  V30 32 2 31 33
M  V30 33 1 33 34
M  V30 34 1 34 35
M  V30 35 1 34 36
M  V30 36 1 35 37
M  V30 37 1 36 38
M  V30 38 1 37 39
M  V30 39 1 39 40
M  V30 40 1 9 11
M  V30 41 1 14 17
M  V30 42 1 20 23
M  V30 43 1 26 28
M  V30 44 1 32 33
M  V30 45 1 38 39
M  V30 END BOND
M  V30 BEGIN COLLECTION
M  V30 MDLV30/STEABS ATOMS=(1 8)
M  V30 END COLLECTION
M  V30 END CTAB
M  END
>  <Compound ID>
299

>  <Name>


>  <Uniprot>
P00533

>  <Target>
EGFR L858R/T790M

>  <Smiles>
C=CC(=O)N1CCC[C@H](N2C(NC3=CC=CC=C3)=NC3=CN=C(NC4=CC=C(N5CCN(C)CC5)C=C4)N=C32)C1

>  <Kd (nM)>


>  <Assay (Kd)>


>  <Ki (nM)>


>  <Assay (Ki)>


>  <IC50 (nM)>
38

>  <Assay (IC50)>
Inhibition of EGFR L858R/T790M

>  <EC50 (nM)>


>  <Assay (EC50)>


>  <Article DOI>
10.1021/acs.jmedchem.1c01827

>  <Molecular Weight>
537.672

>  <Exact Mass>
537.29645674

>  <XLogP3>
4.28

>  <Heavy Atom Count>
40

>  <Ring Count>
6

>  <Hydrogen Bond Acceptor Count>
9

>  <Hydrogen Bond Donor Count>
2

>  <Rotatable Bond Count>
7

>  <Topological Polar Surface Area>
94.45

>  <Molecular Formula>
C30H35N9O

>  <InChI>
InChI=1S/C30H35N9O/c1-3-27(40)38-15-7-10-25(21-38)39-28-26(34-30(39)33-22-8-5-4-6-9-22)20-31-29(35-28)32-23-11-13-24(14-12-23)37-18-16-36(2)17-19-37/h3-6,8-9,11-14,20,25H,1,7,10,15-19,21H2,2H3,(H,33,34)(H,31,32,35)/t25-/m0/s1

>  <InChI Key>
WPMXUVGZCGGVSI-VWLOTQADSA-N

>  <BindingDB>


>  <PubChem>
162356156

>  <ChEMBL>


$$$$
Compound 1021
Actelion Java MolfileCreator 2.0

  0  0  0  0  0  0              0 V3000
M  V30 BEGIN CTAB
M  V30 COUNTS 40 45 0 0 0
M  V30 BEGIN ATOM
M  V30 1 O 0.0 0.0 0.0 0
M  V30 2 C 0.688 1.3406 0.0 0
M  V30 3 N 2.1829 1.4117 0.0 0
M  V30 4 C -0.1305 2.6337 0.0 0
M  V30 5 C 2.9778 0.1423 0.0 0
M  V30 6 C 2.871 2.7523 0.0 0
M  V30 7 C -1.649 2.5863 0.0 0
M  V30 8 C 4.4726 0.2135 0.0 0 CFG=1
M  V30 9 C 4.3658 2.8235 0.0 0
M  V30 10 N 5.2675 -1.0558 0.0 0
M  V30 11 C 5.1607 1.5541 0.0 0
M  V30 12 C 4.698 -2.4439 0.0 0
M  V30 13 C 6.7623 -1.1389 0.0 0
M  V30 14 N 5.8488 -3.393 0.0 0
M  V30 15 N 3.2269 -2.7998 0.0 0
M  V30 16 N 7.83 -0.0711 0.0 0
M  V30 17 C 7.1182 -2.5863 0.0 0
M  V30 18 C 2.7998 -4.2353 0.0 0
M  V30 19 C 9.2656 -0.4745 0.0 0
M  V30 20 C 8.5537 -2.9896 0.0 0
M  V30 21 C 3.8438 -5.3031 0.0 0
M  V30 22 C 1.3287 -4.5912 0.0 0
M  V30 23 N 9.6215 -1.9219 0.0 0
M  V30 24 N 10.3333 0.5931 0.0 0
M  V30 25 C 3.4167 -6.7386 0.0 0
M  V30 26 C 0.9016 -6.0267 0.0 0
M  V30 27 C 11.7688 0.1898 0.0 0
M  V30 28 C 1.9456 -7.0945 0.0 0
M  V30 29 C 12.1247 -1.2575 0.0 0
M  V30 30 C 12.8366 1.2575 0.0 0
M  V30 31 C 13.5602 -1.6609 0.0 0
M  V30 32 C 14.2721 0.8541 0.0 0
M  V30 33 C 14.628 -0.5931 0.0 0
M  V30 34 N 16.0635 -0.9965 0.0 0
M  V30 35 C 16.4194 -2.4439 0.0 0
M  V30 36 C 17.1312 0.0711 0.0 0
M  V30 37 C 17.8549 -2.8473 0.0 0
M  V30 38 C 18.5668 -0.3321 0.0 0
M  V30 39 N 18.9227 -1.7795 0.0 0
M  V30 40 C 20.3582 -2.1829 0.0 0
M  V30 END ATOM
M  V30 BEGIN BOND
M  V30 1 2 1 2
M  V30 2 1 2 3
M  V30 3 1 2 4
M  V30 4 1 3 5
M  V30 5 1 3 6
M  V30 6 2 4 7
M  V30 7 1 5 8
M  V30 8 1 6 9
M  V30 9 1 8 10 CFG=3
M  V30 10 1 8 11
M  V30 11 1 10 12
M  V30 12 1 10 13
M  V30 13 2 12 14
M  V30 14 1 12 15
M  V30 15 2 13 16
M  V30 16 1 13 17
M  V30 17 1 15 18
M  V30 18 1 16 19
M  V30 19 2 17 20
M  V30 20 2 18 21
M  V30 21 1 18 22
M  V30 22 2 19 23
M  V30 23 1 19 24
M  V30 24 1 21 25
M  V30 25 2 22 26
M  V30 26 1 24 27
M  V30 27 2 25 28
M  V30 28 2 27 29
M  V30 29 1 27 30
M  V30 30 1 29 31
M  V30 31 2 30 32
M  V30 32 2 31 33
M  V30 33 1 33 34
M  V30 34 1 34 35
M  V30 35 1 34 36
M  V30 36 1 35 37
M  V30 37 1 36 38
M  V30 38 1 37 39
M  V30 39 1 39 40
M  V30 40 1 9 11
M  V30 41 1 14 17
M  V30 42 1 20 23
M  V30 43 1 26 28
M  V30 44 1 32 33
M  V30 45 1 38 39
M  V30 END BOND
M  V30 BEGIN COLLECTION
M  V30 MDLV30/STEABS ATOMS=(1 8)
M  V30 END COLLECTION
M  V30 END CTAB
M  END
>  <Compound ID>
299

>  <Name>


>  <Uniprot>
P00533

>  <Target>
EGFR

>  <Smiles>
C=CC(=O)N1CCC[C@H](N2C(NC3=CC=CC=C3)=NC3=CN=C(NC4=CC=C(N5CCN(C)CC5)C=C4)N=C32)C1

>  <Kd (nM)>


>  <Assay (Kd)>


>  <Ki (nM)>


>  <Assay (Ki)>


>  <IC50 (nM)>
7090

>  <Assay (IC50)>
Inhibit proliferation of A431 cells

>  <EC50 (nM)>


>  <Assay (EC50)>


>  <Article DOI>
10.1021/acs.jmedchem.1c01827

>  <Molecular Weight>
537.672

>  <Exact Mass>
537.29645674

>  <XLogP3>
4.28

>  <Heavy Atom Count>
40

>  <Ring Count>
6

>  <Hydrogen Bond Acceptor Count>
9

>  <Hydrogen Bond Donor Count>
2

>  <Rotatable Bond Count>
7

>  <Topological Polar Surface Area>
94.45

>  <Molecular Formula>
C30H35N9O

>  <InChI>
InChI=1S/C30H35N9O/c1-3-27(40)38-15-7-10-25(21-38)39-28-26(34-30(39)33-22-8-5-4-6-9-22)20-31-29(35-28)32-23-11-13-24(14-12-23)37-18-16-36(2)17-19-37/h3-6,8-9,11-14,20,25H,1,7,10,15-19,21H2,2H3,(H,33,34)(H,31,32,35)/t25-/m0/s1

>  <InChI Key>
WPMXUVGZCGGVSI-VWLOTQADSA-N

>  <BindingDB>


>  <PubChem>
162356156

>  <ChEMBL>


$$$$
Compound 1022
Actelion Java MolfileCreator 2.0

  0  0  0  0  0  0              0 V3000
M  V30 BEGIN CTAB
M  V30 COUNTS 40 45 0 0 0
M  V30 BEGIN ATOM
M  V30 1 O 0.0 0.0 0.0 0
M  V30 2 C 0.688 1.3406 0.0 0
M  V30 3 N 2.1829 1.4117 0.0 0
M  V30 4 C -0.1305 2.6337 0.0 0
M  V30 5 C 2.9778 0.1423 0.0 0
M  V30 6 C 2.871 2.7523 0.0 0
M  V30 7 C -1.649 2.5863 0.0 0
M  V30 8 C 4.4726 0.2135 0.0 0 CFG=1
M  V30 9 C 4.3658 2.8235 0.0 0
M  V30 10 N 5.2675 -1.0558 0.0 0
M  V30 11 C 5.1607 1.5541 0.0 0
M  V30 12 C 4.698 -2.4439 0.0 0
M  V30 13 C 6.7623 -1.1389 0.0 0
M  V30 14 N 5.8488 -3.393 0.0 0
M  V30 15 N 3.2269 -2.7998 0.0 0
M  V30 16 N 7.83 -0.0711 0.0 0
M  V30 17 C 7.1182 -2.5863 0.0 0
M  V30 18 C 2.7998 -4.2353 0.0 0
M  V30 19 C 9.2656 -0.4745 0.0 0
M  V30 20 C 8.5537 -2.9896 0.0 0
M  V30 21 C 3.8438 -5.3031 0.0 0
M  V30 22 C 1.3287 -4.5912 0.0 0
M  V30 23 N 9.6215 -1.9219 0.0 0
M  V30 24 N 10.3333 0.5931 0.0 0
M  V30 25 C 3.4167 -6.7386 0.0 0
M  V30 26 C 0.9016 -6.0267 0.0 0
M  V30 27 C 11.7688 0.1898 0.0 0
M  V30 28 C 1.9456 -7.0945 0.0 0
M  V30 29 C 12.1247 -1.2575 0.0 0
M  V30 30 C 12.8366 1.2575 0.0 0
M  V30 31 C 13.5602 -1.6609 0.0 0
M  V30 32 C 14.2721 0.8541 0.0 0
M  V30 33 C 14.628 -0.5931 0.0 0
M  V30 34 N 16.0635 -0.9965 0.0 0
M  V30 35 C 16.4194 -2.4439 0.0 0
M  V30 36 C 17.1312 0.0711 0.0 0
M  V30 37 C 17.8549 -2.8473 0.0 0
M  V30 38 C 18.5668 -0.3321 0.0 0
M  V30 39 N 18.9227 -1.7795 0.0 0
M  V30 40 C 20.3582 -2.1829 0.0 0
M  V30 END ATOM
M  V30 BEGIN BOND
M  V30 1 2 1 2
M  V30 2 1 2 3
M  V30 3 1 2 4
M  V30 4 1 3 5
M  V30 5 1 3 6
M  V30 6 1 4 7
M  V30 7 1 5 8
M  V30 8 1 6 9
M  V30 9 1 8 10 CFG=3
M  V30 10 1 8 11
M  V30 11 1 10 12
M  V30 12 1 10 13
M  V30 13 2 12 14
M  V30 14 1 12 15
M  V30 15 2 13 16
M  V30 16 1 13 17
M  V30 17 1 15 18
M  V30 18 1 16 19
M  V30 19 2 17 20
M  V30 20 2 18 21
M  V30 21 1 18 22
M  V30 22 2 19 23
M  V30 23 1 19 24
M  V30 24 1 21 25
M  V30 25 2 22 26
M  V30 26 1 24 27
M  V30 27 2 25 28
M  V30 28 2 27 29
M  V30 29 1 27 30
M  V30 30 1 29 31
M  V30 31 2 30 32
M  V30 32 2 31 33
M  V30 33 1 33 34
M  V30 34 1 34 35
M  V30 35 1 34 36
M  V30 36 1 35 37
M  V30 37 1 36 38
M  V30 38 1 37 39
M  V30 39 1 39 40
M  V30 40 1 9 11
M  V30 41 1 14 17
M  V30 42 1 20 23
M  V30 43 1 26 28
M  V30 44 1 32 33
M  V30 45 1 38 39
M  V30 END BOND
M  V30 BEGIN COLLECTION
M  V30 MDLV30/STEABS ATOMS=(1 8)
M  V30 END COLLECTION
M  V30 END CTAB
M  END
>  <Compound ID>
300

>  <Name>


>  <Uniprot>
P00533

>  <Target>
EGFR e19d

>  <Smiles>
CCC(=O)N1CCC[C@H](N2C(NC3=CC=CC=C3)=NC3=CN=C(NC4=CC=C(N5CCN(C)CC5)C=C4)N=C32)C1

>  <Kd (nM)>


>  <Assay (Kd)>


>  <Ki (nM)>


>  <Assay (Ki)>


>  <IC50 (nM)>
2.48

>  <Assay (IC50)>
Inhibit proliferation of HCC827 (EGFR del19) cells

>  <EC50 (nM)>


>  <Assay (EC50)>


>  <Article DOI>
10.1021/acs.jmedchem.1c01827

>  <Molecular Weight>
539.688

>  <Exact Mass>
539.312106804

>  <XLogP3>
4.16

>  <Heavy Atom Count>
40

>  <Ring Count>
6

>  <Hydrogen Bond Acceptor Count>
9

>  <Hydrogen Bond Donor Count>
2

>  <Rotatable Bond Count>
7

>  <Topological Polar Surface Area>
94.45

>  <Molecular Formula>
C30H37N9O

>  <InChI>
InChI=1S/C30H37N9O/c1-3-27(40)38-15-7-10-25(21-38)39-28-26(34-30(39)33-22-8-5-4-6-9-22)20-31-29(35-28)32-23-11-13-24(14-12-23)37-18-16-36(2)17-19-37/h4-6,8-9,11-14,20,25H,3,7,10,15-19,21H2,1-2H3,(H,33,34)(H,31,32,35)/t25-/m0/s1

>  <InChI Key>
SBITVCUIVUXQCX-VWLOTQADSA-N

>  <BindingDB>


>  <PubChem>


>  <ChEMBL>


$$$$
Compound 1023
Actelion Java MolfileCreator 2.0

  0  0  0  0  0  0              0 V3000
M  V30 BEGIN CTAB
M  V30 COUNTS 40 45 0 0 0
M  V30 BEGIN ATOM
M  V30 1 O 0.0 0.0 0.0 0
M  V30 2 C 0.688 1.3406 0.0 0
M  V30 3 N 2.1829 1.4117 0.0 0
M  V30 4 C -0.1305 2.6337 0.0 0
M  V30 5 C 2.9778 0.1423 0.0 0
M  V30 6 C 2.871 2.7523 0.0 0
M  V30 7 C -1.649 2.5863 0.0 0
M  V30 8 C 4.4726 0.2135 0.0 0 CFG=1
M  V30 9 C 4.3658 2.8235 0.0 0
M  V30 10 N 5.2675 -1.0558 0.0 0
M  V30 11 C 5.1607 1.5541 0.0 0
M  V30 12 C 4.698 -2.4439 0.0 0
M  V30 13 C 6.7623 -1.1389 0.0 0
M  V30 14 N 5.8488 -3.393 0.0 0
M  V30 15 N 3.2269 -2.7998 0.0 0
M  V30 16 N 7.83 -0.0711 0.0 0
M  V30 17 C 7.1182 -2.5863 0.0 0
M  V30 18 C 2.7998 -4.2353 0.0 0
M  V30 19 C 9.2656 -0.4745 0.0 0
M  V30 20 C 8.5537 -2.9896 0.0 0
M  V30 21 C 3.8438 -5.3031 0.0 0
M  V30 22 C 1.3287 -4.5912 0.0 0
M  V30 23 N 9.6215 -1.9219 0.0 0
M  V30 24 N 10.3333 0.5931 0.0 0
M  V30 25 C 3.4167 -6.7386 0.0 0
M  V30 26 C 0.9016 -6.0267 0.0 0
M  V30 27 C 11.7688 0.1898 0.0 0
M  V30 28 C 1.9456 -7.0945 0.0 0
M  V30 29 C 12.1247 -1.2575 0.0 0
M  V30 30 C 12.8366 1.2575 0.0 0
M  V30 31 C 13.5602 -1.6609 0.0 0
M  V30 32 C 14.2721 0.8541 0.0 0
M  V30 33 C 14.628 -0.5931 0.0 0
M  V30 34 N 16.0635 -0.9965 0.0 0
M  V30 35 C 16.4194 -2.4439 0.0 0
M  V30 36 C 17.1312 0.0711 0.0 0
M  V30 37 C 17.8549 -2.8473 0.0 0
M  V30 38 C 18.5668 -0.3321 0.0 0
M  V30 39 N 18.9227 -1.7795 0.0 0
M  V30 40 C 20.3582 -2.1829 0.0 0
M  V30 END ATOM
M  V30 BEGIN BOND
M  V30 1 2 1 2
M  V30 2 1 2 3
M  V30 3 1 2 4
M  V30 4 1 3 5
M  V30 5 1 3 6
M  V30 6 1 4 7
M  V30 7 1 5 8
M  V30 8 1 6 9
M  V30 9 1 8 10 CFG=3
M  V30 10 1 8 11
M  V30 11 1 10 12
M  V30 12 1 10 13
M  V30 13 2 12 14
M  V30 14 1 12 15
M  V30 15 2 13 16
M  V30 16 1 13 17
M  V30 17 1 15 18
M  V30 18 1 16 19
M  V30 19 2 17 20
M  V30 20 2 18 21
M  V30 21 1 18 22
M  V30 22 2 19 23
M  V30 23 1 19 24
M  V30 24 1 21 25
M  V30 25 2 22 26
M  V30 26 1 24 27
M  V30 27 2 25 28
M  V30 28 2 27 29
M  V30 29 1 27 30
M  V30 30 1 29 31
M  V30 31 2 30 32
M  V30 32 2 31 33
M  V30 33 1 33 34
M  V30 34 1 34 35
M  V30 35 1 34 36
M  V30 36 1 35 37
M  V30 37 1 36 38
M  V30 38 1 37 39
M  V30 39 1 39 40
M  V30 40 1 9 11
M  V30 41 1 14 17
M  V30 42 1 20 23
M  V30 43 1 26 28
M  V30 44 1 32 33
M  V30 45 1 38 39
M  V30 END BOND
M  V30 BEGIN COLLECTION
M  V30 MDLV30/STEABS ATOMS=(1 8)
M  V30 END COLLECTION
M  V30 END CTAB
M  END
>  <Compound ID>
300

>  <Name>


>  <Uniprot>
P00533

>  <Target>
EGFR L858R/T790M

>  <Smiles>
CCC(=O)N1CCC[C@H](N2C(NC3=CC=CC=C3)=NC3=CN=C(NC4=CC=C(N5CCN(C)CC5)C=C4)N=C32)C1

>  <Kd (nM)>


>  <Assay (Kd)>


>  <Ki (nM)>


>  <Assay (Ki)>


>  <IC50 (nM)>
1173

>  <Assay (IC50)>
Inhibit proliferation of H1975 (EGFR L858R/T790M) cells

>  <EC50 (nM)>


>  <Assay (EC50)>


>  <Article DOI>
10.1021/acs.jmedchem.1c01827

>  <Molecular Weight>
539.688

>  <Exact Mass>
539.312106804

>  <XLogP3>
4.16

>  <Heavy Atom Count>
40

>  <Ring Count>
6

>  <Hydrogen Bond Acceptor Count>
9

>  <Hydrogen Bond Donor Count>
2

>  <Rotatable Bond Count>
7

>  <Topological Polar Surface Area>
94.45

>  <Molecular Formula>
C30H37N9O

>  <InChI>
InChI=1S/C30H37N9O/c1-3-27(40)38-15-7-10-25(21-38)39-28-26(34-30(39)33-22-8-5-4-6-9-22)20-31-29(35-28)32-23-11-13-24(14-12-23)37-18-16-36(2)17-19-37/h4-6,8-9,11-14,20,25H,3,7,10,15-19,21H2,1-2H3,(H,33,34)(H,31,32,35)/t25-/m0/s1

>  <InChI Key>
SBITVCUIVUXQCX-VWLOTQADSA-N

>  <BindingDB>


>  <PubChem>


>  <ChEMBL>


$$$$
Compound 1024
Actelion Java MolfileCreator 2.0

  0  0  0  0  0  0              0 V3000
M  V30 BEGIN CTAB
M  V30 COUNTS 40 45 0 0 0
M  V30 BEGIN ATOM
M  V30 1 O 0.0 0.0 0.0 0
M  V30 2 C 0.688 1.3406 0.0 0
M  V30 3 N 2.1829 1.4117 0.0 0
M  V30 4 C -0.1305 2.6337 0.0 0
M  V30 5 C 2.9778 0.1423 0.0 0
M  V30 6 C 2.871 2.7523 0.0 0
M  V30 7 C -1.649 2.5863 0.0 0
M  V30 8 C 4.4726 0.2135 0.0 0 CFG=1
M  V30 9 C 4.3658 2.8235 0.0 0
M  V30 10 N 5.2675 -1.0558 0.0 0
M  V30 11 C 5.1607 1.5541 0.0 0
M  V30 12 C 4.698 -2.4439 0.0 0
M  V30 13 C 6.7623 -1.1389 0.0 0
M  V30 14 N 5.8488 -3.393 0.0 0
M  V30 15 N 3.2269 -2.7998 0.0 0
M  V30 16 N 7.83 -0.0711 0.0 0
M  V30 17 C 7.1182 -2.5863 0.0 0
M  V30 18 C 2.7998 -4.2353 0.0 0
M  V30 19 C 9.2656 -0.4745 0.0 0
M  V30 20 C 8.5537 -2.9896 0.0 0
M  V30 21 C 3.8438 -5.3031 0.0 0
M  V30 22 C 1.3287 -4.5912 0.0 0
M  V30 23 N 9.6215 -1.9219 0.0 0
M  V30 24 N 10.3333 0.5931 0.0 0
M  V30 25 C 3.4167 -6.7386 0.0 0
M  V30 26 C 0.9016 -6.0267 0.0 0
M  V30 27 C 11.7688 0.1898 0.0 0
M  V30 28 C 1.9456 -7.0945 0.0 0
M  V30 29 C 12.1247 -1.2575 0.0 0
M  V30 30 C 12.8366 1.2575 0.0 0
M  V30 31 C 13.5602 -1.6609 0.0 0
M  V30 32 C 14.2721 0.8541 0.0 0
M  V30 33 C 14.628 -0.5931 0.0 0
M  V30 34 N 16.0635 -0.9965 0.0 0
M  V30 35 C 16.4194 -2.4439 0.0 0
M  V30 36 C 17.1312 0.0711 0.0 0
M  V30 37 C 17.8549 -2.8473 0.0 0
M  V30 38 C 18.5668 -0.3321 0.0 0
M  V30 39 N 18.9227 -1.7795 0.0 0
M  V30 40 C 20.3582 -2.1829 0.0 0
M  V30 END ATOM
M  V30 BEGIN BOND
M  V30 1 2 1 2
M  V30 2 1 2 3
M  V30 3 1 2 4
M  V30 4 1 3 5
M  V30 5 1 3 6
M  V30 6 1 4 7
M  V30 7 1 5 8
M  V30 8 1 6 9
M  V30 9 1 8 10 CFG=3
M  V30 10 1 8 11
M  V30 11 1 10 12
M  V30 12 1 10 13
M  V30 13 2 12 14
M  V30 14 1 12 15
M  V30 15 2 13 16
M  V30 16 1 13 17
M  V30 17 1 15 18
M  V30 18 1 16 19
M  V30 19 2 17 20
M  V30 20 2 18 21
M  V30 21 1 18 22
M  V30 22 2 19 23
M  V30 23 1 19 24
M  V30 24 1 21 25
M  V30 25 2 22 26
M  V30 26 1 24 27
M  V30 27 2 25 28
M  V30 28 2 27 29
M  V30 29 1 27 30
M  V30 30 1 29 31
M  V30 31 2 30 32
M  V30 32 2 31 33
M  V30 33 1 33 34
M  V30 34 1 34 35
M  V30 35 1 34 36
M  V30 36 1 35 37
M  V30 37 1 36 38
M  V30 38 1 37 39
M  V30 39 1 39 40
M  V30 40 1 9 11
M  V30 41 1 14 17
M  V30 42 1 20 23
M  V30 43 1 26 28
M  V30 44 1 32 33
M  V30 45 1 38 39
M  V30 END BOND
M  V30 BEGIN COLLECTION
M  V30 MDLV30/STEABS ATOMS=(1 8)
M  V30 END COLLECTION
M  V30 END CTAB
M  END
>  <Compound ID>
300

>  <Name>


>  <Uniprot>
P00533

>  <Target>
EGFR

>  <Smiles>
CCC(=O)N1CCC[C@H](N2C(NC3=CC=CC=C3)=NC3=CN=C(NC4=CC=C(N5CCN(C)CC5)C=C4)N=C32)C1

>  <Kd (nM)>


>  <Assay (Kd)>


>  <Ki (nM)>


>  <Assay (Ki)>


>  <IC50 (nM)>


>  <Assay (IC50)>


>  <EC50 (nM)>


>  <Assay (EC50)>


>  <Article DOI>
10.1021/acs.jmedchem.1c01827

>  <Molecular Weight>
539.688

>  <Exact Mass>
539.312106804

>  <XLogP3>
4.16

>  <Heavy Atom Count>
40

>  <Ring Count>
6

>  <Hydrogen Bond Acceptor Count>
9

>  <Hydrogen Bond Donor Count>
2

>  <Rotatable Bond Count>
7

>  <Topological Polar Surface Area>
94.45

>  <Molecular Formula>
C30H37N9O

>  <InChI>
InChI=1S/C30H37N9O/c1-3-27(40)38-15-7-10-25(21-38)39-28-26(34-30(39)33-22-8-5-4-6-9-22)20-31-29(35-28)32-23-11-13-24(14-12-23)37-18-16-36(2)17-19-37/h4-6,8-9,11-14,20,25H,3,7,10,15-19,21H2,1-2H3,(H,33,34)(H,31,32,35)/t25-/m0/s1

>  <InChI Key>
SBITVCUIVUXQCX-VWLOTQADSA-N

>  <BindingDB>


>  <PubChem>


>  <ChEMBL>


$$$$
Compound 1025
Actelion Java MolfileCreator 2.0

  0  0  0  0  0  0              0 V3000
M  V30 BEGIN CTAB
M  V30 COUNTS 34 39 0 0 0
M  V30 BEGIN ATOM
M  V30 1 Cl 0.0 0.0 0.0 0
M  V30 2 C -0.6941 1.3411 0.0 0
M  V30 3 C -2.1999 1.4235 0.0 0
M  V30 4 C 0.1058 2.6117 0.0 0
M  V30 5 C -2.894 2.7646 0.0 0
M  V30 6 C -0.5882 3.9529 0.0 0
M  V30 7 N -4.3999 2.847 0.0 0
M  V30 8 C -2.094 4.0352 0.0 0
M  V30 9 N -0.0705 5.3646 0.0 0
M  V30 10 C -5.094 4.1881 0.0 0
M  V30 11 C -5.2234 1.5999 0.0 0
M  V30 12 N -2.5058 5.494 0.0 0
M  V30 13 C -1.247 6.3058 0.0 0
M  V30 14 C 1.3646 5.7764 0.0 0
M  V30 15 C -6.5999 4.2705 0.0 0
M  V30 16 C -6.7293 1.6823 0.0 0
M  V30 17 N -1.1882 7.8116 0.0 0
M  V30 18 C 2.4117 4.7411 0.0 0
M  V30 19 N -7.4234 3.0234 0.0 0
M  V30 20 C -0.0941 8.8352 0.0 0
M  V30 21 C -2.2117 8.9293 0.0 0
M  V30 22 C 2.0235 3.3058 0.0 0
M  V30 23 C 3.847 5.1528 0.0 0
M  V30 24 C -8.9293 3.1058 0.0 0
M  V30 25 C -1.1176 9.9528 0.0 0
M  V30 26 C 3.0705 2.2705 0.0 0
M  V30 27 C 4.894 4.1176 0.0 0
M  V30 28 C -0.0235 10.9763 0.0 0
M  V30 29 C -2.1411 11.0704 0.0 0
M  V30 30 C 4.5058 2.6823 0.0 0
M  V30 31 C 2.6823 0.8352 0.0 0
M  V30 32 C 6.3293 4.5293 0.0 0
M  V30 33 N -1.047 12.0939 0.0 0
M  V30 34 F 5.5528 1.647 0.0 0
M  V30 END ATOM
M  V30 BEGIN BOND
M  V30 1 1 1 2
M  V30 2 2 2 3
M  V30 3 1 2 4
M  V30 4 1 3 5
M  V30 5 2 4 6
M  V30 6 1 5 7
M  V30 7 2 5 8
M  V30 8 1 6 9
M  V30 9 1 7 10
M  V30 10 1 7 11
M  V30 11 1 8 12
M  V30 12 1 9 13
M  V30 13 1 9 14
M  V30 14 1 10 15
M  V30 15 1 11 16
M  V30 16 1 13 17
M  V30 17 1 14 18
M  V30 18 1 15 19
M  V30 19 1 17 20
M  V30 20 1 17 21
M  V30 21 2 18 22
M  V30 22 1 18 23
M  V30 23 1 19 24
M  V30 24 1 20 25
M  V30 25 1 22 26
M  V30 26 2 23 27
M  V30 27 1 25 28
M  V30 28 1 25 29
M  V30 29 2 26 30
M  V30 30 1 26 31
M  V30 31 1 27 32
M  V30 32 1 28 33
M  V30 33 1 30 34
M  V30 34 1 6 8
M  V30 35 2 12 13
M  V30 36 1 16 19
M  V30 37 1 21 25
M  V30 38 1 27 30
M  V30 39 1 29 33
M  V30 END BOND
M  V30 END CTAB
M  END
>  <Compound ID>
301

>  <Name>


>  <Uniprot>
Q07889

>  <Target>
SOS1

>  <Smiles>
CC1=CC(CN2C(N3CC4(CNC4)C3)=NC3=C(N4CCN(C)CC4)C=C(Cl)C=C32)=CC(C)=C1F

>  <Kd (nM)>
44

>  <Assay (Kd)>
Kd was assessed by a fluorescence polarization anisotropy assay

>  <Ki (nM)>


>  <Assay (Ki)>


>  <IC50 (nM)>


>  <Assay (IC50)>


>  <EC50 (nM)>


>  <Assay (EC50)>


>  <Article DOI>
10.1021/acs.jmedchem.8b01108

>  <Molecular Weight>
483.035

>  <Exact Mass>
482.236100924

>  <XLogP3>
4.12

>  <Heavy Atom Count>
34

>  <Ring Count>
6

>  <Hydrogen Bond Acceptor Count>
6

>  <Hydrogen Bond Donor Count>
1

>  <Rotatable Bond Count>
4

>  <Topological Polar Surface Area>
39.57

>  <Molecular Formula>
C26H32ClFN6

>  <InChI>
InChI=1S/C26H32ClFN6/c1-17-8-19(9-18(2)23(17)28)12-34-22-11-20(27)10-21(32-6-4-31(3)5-7-32)24(22)30-25(34)33-15-26(16-33)13-29-14-26/h8-11,29H,4-7,12-16H2,1-3H3

>  <InChI Key>
JWZAQUXBYYOGFA-UHFFFAOYSA-N

>  <BindingDB>
50459449

>  <PubChem>
134814234

>  <ChEMBL>
CHEMBL4213025

$$$$
Compound 1026
Actelion Java MolfileCreator 2.0

  0  0  0  0  0  0              0 V3000
M  V30 BEGIN CTAB
M  V30 COUNTS 36 39 0 0 0
M  V30 BEGIN ATOM
M  V30 1 F 0.0 0.0 0.0 0
M  V30 2 C -1.5044 0.0822 0.0 0
M  V30 3 C -2.3272 -1.1636 0.0 0
M  V30 4 C -2.1979 1.4221 0.0 0
M  V30 5 C -3.8316 -1.0813 0.0 0
M  V30 6 C -3.7023 1.5044 0.0 0
M  V30 7 C -4.5251 0.2585 0.0 0
M  V30 8 C -4.6544 -2.3272 0.0 0
M  V30 9 C -4.3958 2.8443 0.0 0
M  V30 10 O -6.0296 0.3408 0.0 0
M  V30 11 C -6.8523 -0.905 0.0 0
M  V30 12 C -8.3568 -0.8227 0.0 0
M  V30 13 C -6.1824 -2.2214 0.0 0
M  V30 14 C -9.0502 0.5171 0.0 0
M  V30 15 C -9.1795 -2.0686 0.0 0
M  V30 16 C -7.0051 -3.4673 0.0 0
M  V30 17 C -10.5547 0.5994 0.0 0
M  V30 18 C -8.251 1.7865 0.0 0
M  V30 19 C -8.5096 -3.385 0.0 0
M  V30 20 C -11.2482 1.9393 0.0 0
M  V30 21 C -11.6125 -0.4466 0.0 0
M  V30 22 N -8.9445 3.1264 0.0 0
M  V30 23 C -9.3323 -4.6309 0.0 0
M  V30 24 N -12.7291 1.7042 0.0 0
M  V30 25 C -10.4489 3.2087 0.0 0
M  V30 26 C -12.9642 0.235 0.0 0
M  V30 27 C -8.1452 4.3958 0.0 0
M  V30 28 O -10.1551 -5.8768 0.0 0
M  V30 29 C -8.0864 -5.4301 0.0 0
M  V30 30 C -10.6017 -3.8081 0.0 0
M  V30 31 O -11.1424 4.5486 0.0 0
M  V30 32 C -14.3041 -0.4348 0.0 0
M  V30 33 O -14.3864 -1.9158 0.0 0
M  V30 34 N -15.5735 0.3878 0.0 0
M  V30 35 C -16.9134 -0.282 0.0 0
M  V30 36 C -18.1828 0.5406 0.0 0
M  V30 END ATOM
M  V30 BEGIN BOND
M  V30 1 1 1 2
M  V30 2 2 2 3
M  V30 3 1 2 4
M  V30 4 1 3 5
M  V30 5 2 4 6
M  V30 6 2 5 7
M  V30 7 1 5 8
M  V30 8 1 6 9
M  V30 9 1 7 10
M  V30 10 1 10 11
M  V30 11 2 11 12
M  V30 12 1 11 13
M  V30 13 1 12 14
M  V30 14 1 12 15
M  V30 15 2 13 16
M  V30 16 1 14 17
M  V30 17 2 14 18
M  V30 18 2 15 19
M  V30 19 2 17 20
M  V30 20 1 17 21
M  V30 21 1 18 22
M  V30 22 1 19 23
M  V30 23 1 20 24
M  V30 24 1 20 25
M  V30 25 2 21 26
M  V30 26 1 22 27
M  V30 27 1 23 28
M  V30 28 1 23 29
M  V30 29 1 23 30
M  V30 30 2 25 31
M  V30 31 1 26 32
M  V30 32 2 32 33
M  V30 33 1 32 34
M  V30 34 1 34 35
M  V30 35 1 35 36
M  V30 36 1 6 7
M  V30 37 1 16 19
M  V30 38 1 22 25
M  V30 39 1 24 26
M  V30 END BOND
M  V30 END CTAB
M  END
>  <Compound ID>
302

>  <Name>
ABBV-744

>  <Uniprot>
P25440

>  <Target>
BRD2

>  <Smiles>
CCNC(=O)C1=CC2=C([NH]1)C(=O)N(C)C=C2C1=CC(C(C)(C)O)=CC=C1OC1=C(C)C=C(F)C=C1C

>  <Kd (nM)>


>  <Assay (Kd)>


>  <Ki (nM)>
1162/4.6

>  <Assay (Ki)>
Ki of BRD2 BD1/2 was assessed by TR-FRET

>  <IC50 (nM)>


>  <Assay (IC50)>


>  <EC50 (nM)>


>  <Assay (EC50)>


>  <Article DOI>
10.1021/acs.jmedchem.0c00628

>  <Molecular Weight>
491.563

>  <Exact Mass>
491.22203466

>  <XLogP3>
3.86

>  <Heavy Atom Count>
36

>  <Ring Count>
4

>  <Hydrogen Bond Acceptor Count>
5

>  <Hydrogen Bond Donor Count>
3

>  <Rotatable Bond Count>
6

>  <Topological Polar Surface Area>
96.35

>  <Molecular Formula>
C28H30FN3O4

>  <InChI>
InChI=1S/C28H30FN3O4/c1-7-30-26(33)22-13-20-21(14-32(6)27(34)24(20)31-22)19-12-17(28(4,5)35)8-9-23(19)36-25-15(2)10-18(29)11-16(25)3/h8-14,31,35H,7H2,1-6H3,(H,30,33)

>  <InChI Key>
OEDSFMUSNZDJFD-UHFFFAOYSA-N

>  <BindingDB>
439497

>  <PubChem>
132010322

>  <ChEMBL>
CHEMBL4297454

$$$$
Compound 1027
Actelion Java MolfileCreator 2.0

  0  0  0  0  0  0              0 V3000
M  V30 BEGIN CTAB
M  V30 COUNTS 36 39 0 0 0
M  V30 BEGIN ATOM
M  V30 1 F 0.0 0.0 0.0 0
M  V30 2 C -1.5044 0.0822 0.0 0
M  V30 3 C -2.3272 -1.1636 0.0 0
M  V30 4 C -2.1979 1.4221 0.0 0
M  V30 5 C -3.8316 -1.0813 0.0 0
M  V30 6 C -3.7023 1.5044 0.0 0
M  V30 7 C -4.5251 0.2585 0.0 0
M  V30 8 C -4.6544 -2.3272 0.0 0
M  V30 9 C -4.3958 2.8443 0.0 0
M  V30 10 O -6.0296 0.3408 0.0 0
M  V30 11 C -6.8523 -0.905 0.0 0
M  V30 12 C -8.3568 -0.8227 0.0 0
M  V30 13 C -6.1824 -2.2214 0.0 0
M  V30 14 C -9.0502 0.5171 0.0 0
M  V30 15 C -9.1795 -2.0686 0.0 0
M  V30 16 C -7.0051 -3.4673 0.0 0
M  V30 17 C -10.5547 0.5994 0.0 0
M  V30 18 C -8.251 1.7865 0.0 0
M  V30 19 C -8.5096 -3.385 0.0 0
M  V30 20 C -11.2482 1.9393 0.0 0
M  V30 21 C -11.6125 -0.4466 0.0 0
M  V30 22 N -8.9445 3.1264 0.0 0
M  V30 23 C -9.3323 -4.6309 0.0 0
M  V30 24 N -12.7291 1.7042 0.0 0
M  V30 25 C -10.4489 3.2087 0.0 0
M  V30 26 C -12.9642 0.235 0.0 0
M  V30 27 C -8.1452 4.3958 0.0 0
M  V30 28 O -10.1551 -5.8768 0.0 0
M  V30 29 C -8.0864 -5.4301 0.0 0
M  V30 30 C -10.6017 -3.8081 0.0 0
M  V30 31 O -11.1424 4.5486 0.0 0
M  V30 32 C -14.3041 -0.4348 0.0 0
M  V30 33 O -14.3864 -1.9158 0.0 0
M  V30 34 N -15.5735 0.3878 0.0 0
M  V30 35 C -16.9134 -0.282 0.0 0
M  V30 36 C -18.1828 0.5406 0.0 0
M  V30 END ATOM
M  V30 BEGIN BOND
M  V30 1 1 1 2
M  V30 2 2 2 3
M  V30 3 1 2 4
M  V30 4 1 3 5
M  V30 5 2 4 6
M  V30 6 2 5 7
M  V30 7 1 5 8
M  V30 8 1 6 9
M  V30 9 1 7 10
M  V30 10 1 10 11
M  V30 11 2 11 12
M  V30 12 1 11 13
M  V30 13 1 12 14
M  V30 14 1 12 15
M  V30 15 2 13 16
M  V30 16 1 14 17
M  V30 17 2 14 18
M  V30 18 2 15 19
M  V30 19 2 17 20
M  V30 20 1 17 21
M  V30 21 1 18 22
M  V30 22 1 19 23
M  V30 23 1 20 24
M  V30 24 1 20 25
M  V30 25 2 21 26
M  V30 26 1 22 27
M  V30 27 1 23 28
M  V30 28 1 23 29
M  V30 29 1 23 30
M  V30 30 2 25 31
M  V30 31 1 26 32
M  V30 32 2 32 33
M  V30 33 1 32 34
M  V30 34 1 34 35
M  V30 35 1 35 36
M  V30 36 1 6 7
M  V30 37 1 16 19
M  V30 38 1 22 25
M  V30 39 1 24 26
M  V30 END BOND
M  V30 END CTAB
M  END
>  <Compound ID>
302

>  <Name>
ABBV-744

>  <Uniprot>
Q15059

>  <Target>
BRD3

>  <Smiles>
CCNC(=O)C1=CC2=C([NH]1)C(=O)N(C)C=C2C1=CC(C(C)(C)O)=CC=C1OC1=C(C)C=C(F)C=C1C

>  <Kd (nM)>


>  <Assay (Kd)>


>  <Ki (nM)>
3140/8.31

>  <Assay (Ki)>
Ki of BRD3 BD1/2 was assessed by TR-FRET

>  <IC50 (nM)>


>  <Assay (IC50)>


>  <EC50 (nM)>


>  <Assay (EC50)>


>  <Article DOI>
10.1021/acs.jmedchem.0c00628

>  <Molecular Weight>
491.563

>  <Exact Mass>
491.22203466

>  <XLogP3>
3.86

>  <Heavy Atom Count>
36

>  <Ring Count>
4

>  <Hydrogen Bond Acceptor Count>
5

>  <Hydrogen Bond Donor Count>
3

>  <Rotatable Bond Count>
6

>  <Topological Polar Surface Area>
96.35

>  <Molecular Formula>
C28H30FN3O4

>  <InChI>
InChI=1S/C28H30FN3O4/c1-7-30-26(33)22-13-20-21(14-32(6)27(34)24(20)31-22)19-12-17(28(4,5)35)8-9-23(19)36-25-15(2)10-18(29)11-16(25)3/h8-14,31,35H,7H2,1-6H3,(H,30,33)

>  <InChI Key>
OEDSFMUSNZDJFD-UHFFFAOYSA-N

>  <BindingDB>
439497

>  <PubChem>
132010322

>  <ChEMBL>
CHEMBL4297454

$$$$
Compound 1028
Actelion Java MolfileCreator 2.0

  0  0  0  0  0  0              0 V3000
M  V30 BEGIN CTAB
M  V30 COUNTS 36 39 0 0 0
M  V30 BEGIN ATOM
M  V30 1 F 0.0 0.0 0.0 0
M  V30 2 C -1.5044 0.0822 0.0 0
M  V30 3 C -2.3272 -1.1636 0.0 0
M  V30 4 C -2.1979 1.4221 0.0 0
M  V30 5 C -3.8316 -1.0813 0.0 0
M  V30 6 C -3.7023 1.5044 0.0 0
M  V30 7 C -4.5251 0.2585 0.0 0
M  V30 8 C -4.6544 -2.3272 0.0 0
M  V30 9 C -4.3958 2.8443 0.0 0
M  V30 10 O -6.0296 0.3408 0.0 0
M  V30 11 C -6.8523 -0.905 0.0 0
M  V30 12 C -8.3568 -0.8227 0.0 0
M  V30 13 C -6.1824 -2.2214 0.0 0
M  V30 14 C -9.0502 0.5171 0.0 0
M  V30 15 C -9.1795 -2.0686 0.0 0
M  V30 16 C -7.0051 -3.4673 0.0 0
M  V30 17 C -10.5547 0.5994 0.0 0
M  V30 18 C -8.251 1.7865 0.0 0
M  V30 19 C -8.5096 -3.385 0.0 0
M  V30 20 C -11.2482 1.9393 0.0 0
M  V30 21 C -11.6125 -0.4466 0.0 0
M  V30 22 N -8.9445 3.1264 0.0 0
M  V30 23 C -9.3323 -4.6309 0.0 0
M  V30 24 N -12.7291 1.7042 0.0 0
M  V30 25 C -10.4489 3.2087 0.0 0
M  V30 26 C -12.9642 0.235 0.0 0
M  V30 27 C -8.1452 4.3958 0.0 0
M  V30 28 O -10.1551 -5.8768 0.0 0
M  V30 29 C -8.0864 -5.4301 0.0 0
M  V30 30 C -10.6017 -3.8081 0.0 0
M  V30 31 O -11.1424 4.5486 0.0 0
M  V30 32 C -14.3041 -0.4348 0.0 0
M  V30 33 O -14.3864 -1.9158 0.0 0
M  V30 34 N -15.5735 0.3878 0.0 0
M  V30 35 C -16.9134 -0.282 0.0 0
M  V30 36 C -18.1828 0.5406 0.0 0
M  V30 END ATOM
M  V30 BEGIN BOND
M  V30 1 1 1 2
M  V30 2 2 2 3
M  V30 3 1 2 4
M  V30 4 1 3 5
M  V30 5 2 4 6
M  V30 6 2 5 7
M  V30 7 1 5 8
M  V30 8 1 6 9
M  V30 9 1 7 10
M  V30 10 1 10 11
M  V30 11 2 11 12
M  V30 12 1 11 13
M  V30 13 1 12 14
M  V30 14 1 12 15
M  V30 15 2 13 16
M  V30 16 1 14 17
M  V30 17 2 14 18
M  V30 18 2 15 19
M  V30 19 2 17 20
M  V30 20 1 17 21
M  V30 21 1 18 22
M  V30 22 1 19 23
M  V30 23 1 20 24
M  V30 24 1 20 25
M  V30 25 2 21 26
M  V30 26 1 22 27
M  V30 27 1 23 28
M  V30 28 1 23 29
M  V30 29 1 23 30
M  V30 30 2 25 31
M  V30 31 1 26 32
M  V30 32 2 32 33
M  V30 33 1 32 34
M  V30 34 1 34 35
M  V30 35 1 35 36
M  V30 36 1 6 7
M  V30 37 1 16 19
M  V30 38 1 22 25
M  V30 39 1 24 26
M  V30 END BOND
M  V30 END CTAB
M  END
>  <Compound ID>
302

>  <Name>
ABBV-744

>  <Uniprot>
O60885

>  <Target>
BRD4

>  <Smiles>
CCNC(=O)C1=CC2=C([NH]1)C(=O)N(C)C=C2C1=CC(C(C)(C)O)=CC=C1OC1=C(C)C=C(F)C=C1C

>  <Kd (nM)>


>  <Assay (Kd)>


>  <Ki (nM)>


>  <Assay (Ki)>


>  <IC50 (nM)>
311.5/1.78

>  <Assay (IC50)>
IC50 of BRD4 BD1/2 was assessed by HTRF

>  <EC50 (nM)>


>  <Assay (EC50)>


>  <Article DOI>
10.1016/j.ejmech.2022.114259

>  <Molecular Weight>
491.563

>  <Exact Mass>
491.22203466

>  <XLogP3>
3.86

>  <Heavy Atom Count>
36

>  <Ring Count>
4

>  <Hydrogen Bond Acceptor Count>
5

>  <Hydrogen Bond Donor Count>
3

>  <Rotatable Bond Count>
6

>  <Topological Polar Surface Area>
96.35

>  <Molecular Formula>
C28H30FN3O4

>  <InChI>
InChI=1S/C28H30FN3O4/c1-7-30-26(33)22-13-20-21(14-32(6)27(34)24(20)31-22)19-12-17(28(4,5)35)8-9-23(19)36-25-15(2)10-18(29)11-16(25)3/h8-14,31,35H,7H2,1-6H3,(H,30,33)

>  <InChI Key>
OEDSFMUSNZDJFD-UHFFFAOYSA-N

>  <BindingDB>
439497

>  <PubChem>
132010322

>  <ChEMBL>
CHEMBL4297454

$$$$
Compound 1029
Actelion Java MolfileCreator 2.0

  0  0  0  0  0  0              0 V3000
M  V30 BEGIN CTAB
M  V30 COUNTS 29 31 0 0 0
M  V30 BEGIN ATOM
M  V30 1 Cl 0.0 0.0 0.0 0
M  V30 2 C 0.201 1.5016 0.0 0
M  V30 3 C -0.9932 2.4476 0.0 0
M  V30 4 C 1.5844 2.0692 0.0 0
M  V30 5 Cl -2.4003 1.9036 0.0 0
M  V30 6 C -0.7922 3.9492 0.0 0
M  V30 7 C 1.7854 3.5708 0.0 0
M  V30 8 C 0.5912 4.5168 0.0 0
M  V30 9 C 3.1688 4.1384 0.0 0
M  V30 10 N 4.434 3.3462 0.0 0
M  V30 11 C 3.5235 5.6046 0.0 0
M  V30 12 C 5.581 4.3276 0.0 0
M  V30 13 S 5.0134 5.711 0.0 0
M  V30 14 N 7.0235 3.9729 0.0 0
M  V30 15 N 8.064 5.0607 0.0 0
M  V30 16 C 9.5066 4.706 0.0 0
M  V30 17 C 10.5471 5.7938 0.0 0
M  V30 18 C 9.9086 3.2752 0.0 0
M  V30 19 O 11.9896 5.4391 0.0 0
M  V30 20 O 10.1214 7.2482 0.0 0
M  V30 21 C 11.3511 2.9205 0.0 0
M  V30 22 C 11.7532 1.4898 0.0 0
M  V30 23 C 12.3917 4.0083 0.0 0
M  V30 24 N 10.689 0.4256 0.0 0 CHG=1
M  V30 25 C 13.1957 1.1351 0.0 0
M  V30 26 C 13.8342 3.6536 0.0 0
M  V30 27 O 9.2228 0.804 0.0 0
M  V30 28 O 11.091 -1.005 0.0 0 CHG=-1
M  V30 29 C 14.2362 2.2229 0.0 0
M  V30 END ATOM
M  V30 BEGIN BOND
M  V30 1 1 1 2
M  V30 2 2 2 3
M  V30 3 1 2 4
M  V30 4 1 3 5
M  V30 5 1 3 6
M  V30 6 2 4 7
M  V30 7 2 6 8
M  V30 8 1 7 9
M  V30 9 1 9 10
M  V30 10 2 9 11
M  V30 11 2 10 12
M  V30 12 1 11 13
M  V30 13 1 12 14
M  V30 14 1 14 15
M  V30 15 2 15 16
M  V30 16 1 16 17
M  V30 17 1 16 18
M  V30 18 2 17 19
M  V30 19 1 17 20
M  V30 20 1 18 21
M  V30 21 2 21 22
M  V30 22 1 21 23
M  V30 23 1 22 24
M  V30 24 1 22 25
M  V30 25 2 23 26
M  V30 26 2 24 27
M  V30 27 1 24 28
M  V30 28 2 25 29
M  V30 29 1 7 8
M  V30 30 1 12 13
M  V30 31 1 26 29
M  V30 END BOND
M  V30 END CTAB
M  END
>  <Compound ID>
303

>  <Name>
4EGI-1

>  <Uniprot>
P06730

>  <Target>
eIF4E

>  <Smiles>
O=C(O)/C(CC1=CC=CC=C1[N+](=O)[O-])=N/NC1=NC(C2=CC=C(Cl)C(Cl)=C2)=CS1

>  <Kd (nM)>


>  <Assay (Kd)>


>  <Ki (nM)>


>  <Assay (Ki)>


>  <IC50 (nM)>
56800

>  <Assay (IC50)>
IC50 was assessed by FP

>  <EC50 (nM)>


>  <Assay (EC50)>


>  <Article DOI>
10.1016/j.ejmech.2021.113435

>  <Molecular Weight>
451.291

>  <Exact Mass>
449.995631224

>  <XLogP3>
6.08

>  <Heavy Atom Count>
29

>  <Ring Count>
3

>  <Hydrogen Bond Acceptor Count>
7

>  <Hydrogen Bond Donor Count>
2

>  <Rotatable Bond Count>
7

>  <Topological Polar Surface Area>
117.72

>  <Molecular Formula>
C18H12Cl2N4O4S

>  <InChI>
InChI=1S/C18H12Cl2N4O4S/c19-12-6-5-10(7-13(12)20)15-9-29-18(21-15)23-22-14(17(25)26)8-11-3-1-2-4-16(11)24(27)28/h1-7,9H,8H2,(H,21,23)(H,25,26)/b22-14+

>  <InChI Key>
KFRKRECSIYXARE-HYARGMPZSA-N

>  <BindingDB>


>  <PubChem>
5717952

>  <ChEMBL>
CHEMBL3310197

$$$$
Compound 1030
Actelion Java MolfileCreator 2.0

  0  0  0  0  0  0              0 V3000
M  V30 BEGIN CTAB
M  V30 COUNTS 33 36 0 0 0
M  V30 BEGIN ATOM
M  V30 1 S 0.0 0.0 0.0 0
M  V30 2 C 0.7345 -1.2914 0.0 0
M  V30 3 C -1.481 -0.2962 0.0 0
M  V30 4 N -0.2962 -2.3933 0.0 0
M  V30 5 N 2.2156 -1.4454 0.0 0
M  V30 6 C -1.6587 -1.7772 0.0 0
M  V30 7 N 2.808 -2.808 0.0 0
M  V30 8 C -2.9739 -2.5118 0.0 0
M  V30 9 C 4.289 -2.962 0.0 0
M  V30 10 C -4.289 -1.7417 0.0 0
M  V30 11 C -2.9976 -4.0047 0.0 0
M  V30 12 C 5.1658 -1.7417 0.0 0
M  V30 13 C 4.8815 -4.3246 0.0 0
M  V30 14 C -5.6042 -2.4762 0.0 0
M  V30 15 C -4.3127 -4.7393 0.0 0
M  V30 16 O 6.6469 -1.8957 0.0 0
M  V30 17 O 4.5497 -0.3554 0.0 0
M  V30 18 C 6.3625 -4.4786 0.0 0
M  V30 19 C -5.6279 -3.9691 0.0 0
M  V30 20 C 6.9549 -5.8412 0.0 0
M  V30 21 C 7.2393 -3.2582 0.0 0
M  V30 22 C -6.9431 -4.7037 0.0 0
M  V30 23 N 6.0544 -7.0378 0.0 0 CHG=1
M  V30 24 C 8.436 -5.9952 0.0 0
M  V30 25 C 8.7203 -3.4123 0.0 0
M  V30 26 C -8.2582 -3.9336 0.0 0
M  V30 27 C -6.9668 -6.1966 0.0 0
M  V30 28 O 4.5497 -6.8601 0.0 0
M  V30 29 O 6.6469 -8.4004 0.0 0 CHG=-1
M  V30 30 C 9.3127 -4.7748 0.0 0
M  V30 31 C -9.5734 -4.6682 0.0 0
M  V30 32 C -8.2819 -6.9312 0.0 0
M  V30 33 C -9.5971 -6.1611 0.0 0
M  V30 END ATOM
M  V30 BEGIN BOND
M  V30 1 1 1 2
M  V30 2 1 1 3
M  V30 3 2 2 4
M  V30 4 1 2 5
M  V30 5 2 3 6
M  V30 6 1 5 7
M  V30 7 1 6 8
M  V30 8 2 7 9
M  V30 9 2 8 10
M  V30 10 1 8 11
M  V30 11 1 9 12
M  V30 12 1 9 13
M  V30 13 1 10 14
M  V30 14 2 11 15
M  V30 15 2 12 16
M  V30 16 1 12 17
M  V30 17 1 13 18
M  V30 18 2 14 19
M  V30 19 2 18 20
M  V30 20 1 18 21
M  V30 21 1 19 22
M  V30 22 1 20 23
M  V30 23 1 20 24
M  V30 24 2 21 25
M  V30 25 2 22 26
M  V30 26 1 22 27
M  V30 27 2 23 28
M  V30 28 1 23 29
M  V30 29 2 24 30
M  V30 30 1 26 31
M  V30 31 2 27 32
M  V30 32 2 31 33
M  V30 33 1 4 6
M  V30 34 1 15 19
M  V30 35 1 25 30
M  V30 36 1 32 33
M  V30 END BOND
M  V30 END CTAB
M  END
>  <Compound ID>
304

>  <Name>
i4EG-BiP

>  <Uniprot>
P06730

>  <Target>
eIF4E

>  <Smiles>
O=C(O)/C(CC1=CC=CC=C1[N+](=O)[O-])=N\NC1=NC(C2=CC=C(C3=CC=CC=C3)C=C2)=CS1

>  <Kd (nM)>


>  <Assay (Kd)>


>  <Ki (nM)>


>  <Assay (Ki)>


>  <IC50 (nM)>
67500

>  <Assay (IC50)>
IC50 was assessed by FP

>  <EC50 (nM)>


>  <Assay (EC50)>


>  <Article DOI>
10.1016/j.ejmech.2021.113435

>  <Molecular Weight>
458.499

>  <Exact Mass>
458.104876056

>  <XLogP3>
6.45

>  <Heavy Atom Count>
33

>  <Ring Count>
4

>  <Hydrogen Bond Acceptor Count>
7

>  <Hydrogen Bond Donor Count>
2

>  <Rotatable Bond Count>
8

>  <Topological Polar Surface Area>
117.72

>  <Molecular Formula>
C24H18N4O4S

>  <InChI>
InChI=1S/C24H18N4O4S/c29-23(30)20(14-19-8-4-5-9-22(19)28(31)32)26-27-24-25-21(15-33-24)18-12-10-17(11-13-18)16-6-2-1-3-7-16/h1-13,15H,14H2,(H,25,27)(H,29,30)/b26-20-

>  <InChI Key>
JKEOZOHBIPDTTJ-QOMWVZHYSA-N

>  <BindingDB>


>  <PubChem>


>  <ChEMBL>


$$$$
Compound 1031
Actelion Java MolfileCreator 2.0

  0  0  0  0  0  0              0 V3000
M  V30 BEGIN CTAB
M  V30 COUNTS 10 10 0 0 0
M  V30 BEGIN ATOM
M  V30 1 O 0.0 0.0 0.0 0
M  V30 2 C -1.1111 1.0194 0.0 0
M  V30 3 C -0.8018 2.4856 0.0 0
M  V30 4 C -2.5429 0.5841 0.0 0
M  V30 5 O 0.6071 2.9438 0.0 0
M  V30 6 C -1.9129 3.5051 0.0 0
M  V30 7 C -3.654 1.6036 0.0 0
M  V30 8 O -3.3448 3.0698 0.0 0
M  V30 9 C -5.0859 1.1683 0.0 0
M  V30 10 O -6.197 2.1878 0.0 0
M  V30 END ATOM
M  V30 BEGIN BOND
M  V30 1 2 1 2
M  V30 2 1 2 3
M  V30 3 1 2 4
M  V30 4 1 3 5
M  V30 5 2 3 6
M  V30 6 2 4 7
M  V30 7 1 6 8
M  V30 8 1 7 9
M  V30 9 1 9 10
M  V30 10 1 7 8
M  V30 END BOND
M  V30 END CTAB
M  END
>  <Compound ID>
305

>  <Name>
Kojic acid

>  <Uniprot>
P14679

>  <Target>
TYR

>  <Smiles>
O=C1C=C(CO)OC=C1O

>  <Kd (nM)>


>  <Assay (Kd)>


>  <Ki (nM)>
350000

>  <Assay (Ki)>
Ki was assessed using L-DOPA as substrate by UV-vis spectrophotometry

>  <IC50 (nM)>


>  <Assay (IC50)>


>  <EC50 (nM)>


>  <Assay (EC50)>


>  <Article DOI>
10.1021/acsmedchemlett.6b00369

>  <Molecular Weight>
142.11

>  <Exact Mass>
142.026608672

>  <XLogP3>
-0.64

>  <Heavy Atom Count>
10

>  <Ring Count>
1

>  <Hydrogen Bond Acceptor Count>
4

>  <Hydrogen Bond Donor Count>
2

>  <Rotatable Bond Count>
1

>  <Topological Polar Surface Area>
70.67

>  <Molecular Formula>
C6H6O4

>  <InChI>
InChI=1S/C6H6O4/c7-2-4-1-5(8)6(9)3-10-4/h1,3,7,9H,2H2

>  <InChI Key>
BEJNERDRQOWKJM-UHFFFAOYSA-N

>  <BindingDB>
50031467

>  <PubChem>
3840

>  <ChEMBL>
CHEMBL287556

$$$$
Compound 1032
Actelion Java MolfileCreator 2.0

  0  0  0  0  0  0              0 V3000
M  V30 BEGIN CTAB
M  V30 COUNTS 14 14 0 0 0
M  V30 BEGIN ATOM
M  V30 1 O 0.0 0.0 0.0 0
M  V30 2 C 0.3009 1.4815 0.0 0
M  V30 3 O -0.8218 2.5001 0.0 0
M  V30 4 C 1.7246 1.9561 0.0 0 CFG=1
M  V30 5 N 2.0256 3.4377 0.0 0
M  V30 6 C 2.8242 0.9607 0.0 0
M  V30 7 C 4.2479 1.4352 0.0 0
M  V30 8 C 5.3476 0.4398 0.0 0
M  V30 9 C 4.5489 2.9168 0.0 0
M  V30 10 C 6.7713 0.9144 0.0 0
M  V30 11 C 5.9726 3.3914 0.0 0
M  V30 12 O 7.8709 -0.081 0.0 0
M  V30 13 C 7.0722 2.396 0.0 0
M  V30 14 O 8.4959 2.8705 0.0 0
M  V30 END ATOM
M  V30 BEGIN BOND
M  V30 1 2 1 2
M  V30 2 1 2 3
M  V30 3 1 2 4
M  V30 4 1 4 5 CFG=1
M  V30 5 1 4 6
M  V30 6 1 6 7
M  V30 7 2 7 8
M  V30 8 1 7 9
M  V30 9 1 8 10
M  V30 10 2 9 11
M  V30 11 1 10 12
M  V30 12 2 10 13
M  V30 13 1 13 14
M  V30 14 1 11 13
M  V30 END BOND
M  V30 BEGIN COLLECTION
M  V30 MDLV30/STEABS ATOMS=(1 4)
M  V30 END COLLECTION
M  V30 END CTAB
M  END
>  <Compound ID>
306

>  <Name>
L-Dopa

>  <Uniprot>
P14679

>  <Target>
TYR

>  <Smiles>
N[C@@H](CC1=CC=C(O)C(O)=C1)C(=O)O

>  <Kd (nM)>
19000

>  <Assay (Kd)>
Kd of TYR

>  <Ki (nM)>


>  <Assay (Ki)>


>  <IC50 (nM)>


>  <Assay (IC50)>


>  <EC50 (nM)>


>  <Assay (EC50)>


>  <Article DOI>
10.1016/j.bbapap.2010.02.015

>  <Molecular Weight>
197.19

>  <Exact Mass>
197.068807832

>  <XLogP3>
-2.74

>  <Heavy Atom Count>
14

>  <Ring Count>
1

>  <Hydrogen Bond Acceptor Count>
4

>  <Hydrogen Bond Donor Count>
4

>  <Rotatable Bond Count>
3

>  <Topological Polar Surface Area>
103.78

>  <Molecular Formula>
C9H11NO4

>  <InChI>
InChI=1S/C9H11NO4/c10-6(9(13)14)3-5-1-2-7(11)8(12)4-5/h1-2,4,6,11-12H,3,10H2,(H,13,14)/t6-/m0/s1

>  <InChI Key>
WTDRDQBEARUVNC-LURJTMIESA-N

>  <BindingDB>
50130192

>  <PubChem>
6047

>  <ChEMBL>
CHEMBL1009

$$$$
Compound 1033
Actelion Java MolfileCreator 2.0

  0  0  0  0  0  0              0 V3000
M  V30 BEGIN CTAB
M  V30 COUNTS 26 28 0 0 0
M  V30 BEGIN ATOM
M  V30 1 S 0.0 0.0 0.0 0
M  V30 2 O 0.2354 1.483 0.0 0
M  V30 3 O -0.2589 -1.4594 0.0 0
M  V30 4 C -1.483 0.2589 0.0 0
M  V30 5 C 1.4594 -0.2354 0.0 0
M  V30 6 C -2.4481 -0.8827 0.0 0
M  V30 7 C -2.0244 1.6713 0.0 0
M  V30 8 C -3.9311 -0.6238 0.0 0
M  V30 9 C -3.5074 1.9302 0.0 0
M  V30 10 C -4.4726 0.7885 0.0 0
M  V30 11 N -5.9556 1.0475 0.0 0
M  V30 12 C -6.9207 -0.0941 0.0 0
M  V30 13 N -8.4038 0.1647 0.0 0
M  V30 14 N -6.4029 -1.483 0.0 0
M  V30 15 C -9.3689 -0.9769 0.0 0
M  V30 16 C -7.368 -2.6247 0.0 0
M  V30 17 C -10.8519 -0.7179 0.0 0
M  V30 18 C -8.851 -2.3657 0.0 0
M  V30 19 N -11.5346 0.6355 0.0 0
M  V30 20 C -11.923 -1.7537 0.0 0
M  V30 21 C -13.0294 0.4237 0.0 0
M  V30 22 C -10.8637 1.9773 0.0 0
M  V30 23 N -13.2648 -1.0593 0.0 0
M  V30 24 C -14.0887 1.4947 0.0 0
M  V30 25 C -11.6876 3.2485 0.0 0
M  V30 26 C -9.3807 2.0597 0.0 0
M  V30 END ATOM
M  V30 BEGIN BOND
M  V30 1 2 1 2
M  V30 2 2 1 3
M  V30 3 1 1 4
M  V30 4 1 1 5
M  V30 5 2 4 6
M  V30 6 1 4 7
M  V30 7 1 6 8
M  V30 8 2 7 9
M  V30 9 2 8 10
M  V30 10 1 10 11
M  V30 11 1 11 12
M  V30 12 2 12 13
M  V30 13 1 12 14
M  V30 14 1 13 15
M  V30 15 2 14 16
M  V30 16 1 15 17
M  V30 17 2 15 18
M  V30 18 1 17 19
M  V30 19 2 17 20
M  V30 20 1 19 21
M  V30 21 1 19 22
M  V30 22 1 20 23
M  V30 23 1 21 24
M  V30 24 1 22 25
M  V30 25 1 22 26
M  V30 26 1 9 10
M  V30 27 1 16 18
M  V30 28 2 21 23
M  V30 END BOND
M  V30 END CTAB
M  END
>  <Compound ID>
307

>  <Name>
AZD5438

>  <Uniprot>
P24941

>  <Target>
CDK2

>  <Smiles>
CC1=NC=C(C2=CC=NC(NC3=CC=C(S(C)(=O)=O)C=C3)=N2)N1C(C)C

>  <Kd (nM)>


>  <Assay (Kd)>


>  <Ki (nM)>


>  <Assay (Ki)>


>  <IC50 (nM)>
6

>  <Assay (IC50)>
Inhibition of CDK2

>  <EC50 (nM)>


>  <Assay (EC50)>


>  <Article DOI>
10.1016/j.bmcl.2008.09.024

>  <Molecular Weight>
371.466

>  <Exact Mass>
371.141595912

>  <XLogP3>
2.21

>  <Heavy Atom Count>
26

>  <Ring Count>
3

>  <Hydrogen Bond Acceptor Count>
7

>  <Hydrogen Bond Donor Count>
1

>  <Rotatable Bond Count>
5

>  <Topological Polar Surface Area>
89.77

>  <Molecular Formula>
C18H21N5O2S

>  <InChI>
InChI=1S/C18H21N5O2S/c1-12(2)23-13(3)20-11-17(23)16-9-10-19-18(22-16)21-14-5-7-15(8-6-14)26(4,24)25/h5-12H,1-4H3,(H,19,21,22)

>  <InChI Key>
WJRRGYBTGDJBFX-UHFFFAOYSA-N

>  <BindingDB>
50246253

>  <PubChem>
16747683

>  <ChEMBL>
CHEMBL488436

$$$$
Compound 1034
Actelion Java MolfileCreator 2.0

  0  0  0  0  0  0              0 V3000
M  V30 BEGIN CTAB
M  V30 COUNTS 26 28 0 0 0
M  V30 BEGIN ATOM
M  V30 1 F 0.0 0.0 0.0 0
M  V30 2 C -1.5109 0.0472 0.0 0
M  V30 3 C -2.3018 -1.2276 0.0 0
M  V30 4 C -2.2427 1.3692 0.0 0
M  V30 5 C -3.8127 -1.1804 0.0 0
M  V30 6 C -1.5935 -2.526 0.0 0
M  V30 7 C -3.7537 1.4165 0.0 0
M  V30 8 F -4.6036 -2.4552 0.0 0
M  V30 9 C -4.5446 0.1416 0.0 0
M  V30 10 O -2.3844 -3.8009 0.0 0
M  V30 11 N -0.1062 -2.5497 0.0 0
M  V30 12 C 0.602 -3.8481 0.0 0
M  V30 13 C 2.0775 -4.0252 0.0 0
M  V30 14 C -0.0472 -5.1938 0.0 0
M  V30 15 N 2.349 -5.4889 0.0 0
M  V30 16 C 3.0926 -2.9156 0.0 0
M  V30 17 N 1.0387 -6.2089 0.0 0
M  V30 18 O 2.6441 -1.4637 0.0 0
M  V30 19 N 4.5446 -3.2461 0.0 0
M  V30 20 C 5.5597 -2.1365 0.0 0 CFG=1
M  V30 21 C 7.0116 -2.467 0.0 0
M  V30 22 C 5.1112 -0.6846 0.0 0
M  V30 23 C 8.0268 -1.3574 0.0 0
M  V30 24 C 6.1263 0.4249 0.0 0
M  V30 25 C 7.5782 0.0944 0.0 0 CFG=1
M  V30 26 O 8.5934 1.204 0.0 0
M  V30 END ATOM
M  V30 BEGIN BOND
M  V30 1 1 1 2
M  V30 2 2 2 3
M  V30 3 1 2 4
M  V30 4 1 3 5
M  V30 5 1 3 6
M  V30 6 2 4 7
M  V30 7 1 5 8
M  V30 8 2 5 9
M  V30 9 2 6 10
M  V30 10 1 6 11
M  V30 11 1 11 12
M  V30 12 1 12 13
M  V30 13 2 12 14
M  V30 14 2 13 15
M  V30 15 1 13 16
M  V30 16 1 14 17
M  V30 17 2 16 18
M  V30 18 1 16 19
M  V30 19 1 20 19 CFG=3
M  V30 20 1 20 21
M  V30 21 1 20 22
M  V30 22 1 21 23
M  V30 23 1 22 24
M  V30 24 1 23 25
M  V30 25 1 25 26 CFG=1
M  V30 26 1 7 9
M  V30 27 1 15 17
M  V30 28 1 24 25
M  V30 END BOND
M  V30 BEGIN COLLECTION
M  V30 MDLV30/STEABS ATOMS=(2 20 25)
M  V30 END COLLECTION
M  V30 END CTAB
M  END
>  <Compound ID>
308

>  <Name>
AT7519-7

>  <Uniprot>
P24941

>  <Target>
CDK2

>  <Smiles>
O=C(N[C@H]1CC[C@H](O)CC1)C1=N[NH]C=C1NC(=O)C1=C(F)C=CC=C1F

>  <Kd (nM)>


>  <Assay (Kd)>


>  <Ki (nM)>


>  <Assay (Ki)>


>  <IC50 (nM)>
19

>  <Assay (IC50)>
IC50 of CDK2/cyclin A was tested by a radiometric assay

>  <EC50 (nM)>


>  <Assay (EC50)>


>  <Article DOI>
10.1021/jm800382h

>  <Molecular Weight>
364.352

>  <Exact Mass>
364.134696876

>  <XLogP3>
2.06

>  <Heavy Atom Count>
26

>  <Ring Count>
3

>  <Hydrogen Bond Acceptor Count>
4

>  <Hydrogen Bond Donor Count>
4

>  <Rotatable Bond Count>
4

>  <Topological Polar Surface Area>
107.11

>  <Molecular Formula>
C17H18F2N4O3

>  <InChI>
InChI=1S/C17H18F2N4O3/c18-11-2-1-3-12(19)14(11)16(25)22-13-8-20-23-15(13)17(26)21-9-4-6-10(24)7-5-9/h1-3,8-10,24H,4-7H2,(H,20,23)(H,21,26)(H,22,25)/t9-,10-

>  <InChI Key>
IZIPWCFRXVNDNX-MGCOHNPYSA-N

>  <BindingDB>
24647

>  <PubChem>
24971320

>  <ChEMBL>
CHEMBL457177

$$$$
Compound 1035
Actelion Java MolfileCreator 2.0

  0  0  0  0  0  0              0 V3000
M  V30 BEGIN CTAB
M  V30 COUNTS 42 47 0 0 0
M  V30 BEGIN ATOM
M  V30 1 O 0.0 0.0 0.0 0
M  V30 2 C -0.9714 -1.147 0.0 0
M  V30 3 N -0.4681 -2.5398 0.0 0
M  V30 4 C -2.4579 -0.8778 0.0 0
M  V30 5 C 0.9948 -2.7856 0.0 0
M  V30 6 C -2.9846 0.5384 0.0 0
M  V30 7 C -3.4294 -2.0248 0.0 0
M  V30 8 C 1.4981 -4.1785 0.0 0
M  V30 9 C 1.9429 -1.6152 0.0 0
M  V30 10 C -4.4711 0.8076 0.0 0
M  V30 11 C -4.9159 -1.7556 0.0 0
M  V30 12 C 2.9612 -4.4243 0.0 0
M  V30 13 C 3.406 -1.861 0.0 0
M  V30 14 O -4.9978 2.2238 0.0 0
M  V30 15 C -5.4426 -0.3394 0.0 0
M  V30 16 N 3.9093 -3.2538 0.0 0
M  V30 17 C -4.0497 3.3943 0.0 0
M  V30 18 N -6.929 -0.0702 0.0 0
M  V30 19 C 5.3723 -3.4996 0.0 0
M  V30 20 C -7.9005 -1.2172 0.0 0
M  V30 21 N -9.387 -0.948 0.0 0
M  V30 22 N -7.3972 -2.6101 0.0 0
M  V30 23 C -10.3585 -2.0951 0.0 0
M  V30 24 C -8.3687 -3.7571 0.0 0
M  V30 25 N -11.8449 -1.8259 0.0 0
M  V30 26 C -9.8552 -3.4879 0.0 0
M  V30 27 C -12.8164 -2.9729 0.0 0 CFG=1
M  V30 28 C -12.3716 -0.4096 0.0 0
M  V30 29 N -10.8267 -4.6349 0.0 0
M  V30 30 C -12.3131 -4.3657 0.0 0
M  V30 31 C -14.3029 -2.7037 0.0 0
M  V30 32 C -11.4236 0.7607 0.0 0
M  V30 33 C -10.6277 -6.1097 0.0 0
M  V30 34 N -13.0271 -5.6767 0.0 0
M  V30 35 C -14.8296 -1.2874 0.0 0
M  V30 36 C -9.9605 0.5149 0.0 0
M  V30 37 C -11.9503 2.177 0.0 0
M  V30 38 N -11.9854 -6.7652 0.0 0
M  V30 39 C -9.3168 -6.8003 0.0 0
M  V30 40 C -9.0124 1.6854 0.0 0
M  V30 41 C -11.0022 3.3474 0.0 0
M  V30 42 C -9.5392 3.1017 0.0 0
M  V30 END ATOM
M  V30 BEGIN BOND
M  V30 1 2 1 2
M  V30 2 1 2 3
M  V30 3 1 2 4
M  V30 4 1 3 5
M  V30 5 2 4 6
M  V30 6 1 4 7
M  V30 7 1 5 8
M  V30 8 1 5 9
M  V30 9 1 6 10
M  V30 10 2 7 11
M  V30 11 1 8 12
M  V30 12 1 9 13
M  V30 13 1 10 14
M  V30 14 2 10 15
M  V30 15 1 12 16
M  V30 16 1 14 17
M  V30 17 1 15 18
M  V30 18 1 16 19
M  V30 19 1 18 20
M  V30 20 2 20 21
M  V30 21 1 20 22
M  V30 22 1 21 23
M  V30 23 2 22 24
M  V30 24 1 23 25
M  V30 25 2 23 26
M  V30 26 1 25 27
M  V30 27 1 25 28
M  V30 28 1 26 29
M  V30 29 1 27 30
M  V30 30 1 27 31 CFG=1
M  V30 31 1 28 32
M  V30 32 1 29 33
M  V30 33 2 30 34
M  V30 34 1 31 35
M  V30 35 1 32 36
M  V30 36 1 32 37
M  V30 37 2 33 38
M  V30 38 1 33 39
M  V30 39 1 36 40
M  V30 40 1 37 41
M  V30 41 1 40 42
M  V30 42 1 11 15
M  V30 43 1 13 16
M  V30 44 1 24 26
M  V30 45 1 29 30
M  V30 46 1 34 38
M  V30 47 1 41 42
M  V30 END BOND
M  V30 BEGIN COLLECTION
M  V30 MDLV30/STEABS ATOMS=(1 27)
M  V30 END COLLECTION
M  V30 END CTAB
M  END
>  <Compound ID>
309

>  <Name>
WNY0824

>  <Uniprot>
O60885

>  <Target>
BRD4

>  <Smiles>
CC[C@@H]1C2=NN=C(C)N2C2=CN=C(NC3=CC=C(C(=O)NC4CCN(C)CC4)C=C3OC)N=C2N1CC1CCCCC1

>  <Kd (nM)>


>  <Assay (Kd)>


>  <Ki (nM)>


>  <Assay (Ki)>


>  <IC50 (nM)>
22

>  <Assay (IC50)>
IC50 was assessed by alpha-screen assay

>  <EC50 (nM)>


>  <Assay (EC50)>


>  <Article DOI>
10.1016/j.ejmech.2020.112152

>  <Molecular Weight>
573.746

>  <Exact Mass>
573.353971616

>  <XLogP3>
4.84

>  <Heavy Atom Count>
42

>  <Ring Count>
6

>  <Hydrogen Bond Acceptor Count>
10

>  <Hydrogen Bond Donor Count>
2

>  <Rotatable Bond Count>
8

>  <Topological Polar Surface Area>
113.33

>  <Molecular Formula>
C31H43N9O2

>  <InChI>
InChI=1S/C31H43N9O2/c1-5-25-29-37-36-20(2)40(29)26-18-32-31(35-28(26)39(25)19-21-9-7-6-8-10-21)34-24-12-11-22(17-27(24)42-4)30(41)33-23-13-15-38(3)16-14-23/h11-12,17-18,21,23,25H,5-10,13-16,19H2,1-4H3,(H,33,41)(H,32,34,35)/t25-/m1/s1

>  <InChI Key>
QUMCIHKVKQYNPA-RUZDIDTESA-N

>  <BindingDB>
50551271

>  <PubChem>
156775102

>  <ChEMBL>
CHEMBL4747491

$$$$
Compound 1036
Actelion Java MolfileCreator 2.0

  0  0  0  0  0  0              0 V3000
M  V30 BEGIN CTAB
M  V30 COUNTS 22 24 0 0 0
M  V30 BEGIN ATOM
M  V30 1 Cl 0.0 0.0 0.0 0
M  V30 2 C 0.8285 1.2546 0.0 0
M  V30 3 N 0.1538 2.6158 0.0 0
M  V30 4 C 2.3199 1.1599 0.0 0
M  V30 5 C 0.9824 3.8704 0.0 0
M  V30 6 N 3.2313 -0.0118 0.0 0
M  V30 7 C 3.1484 2.4145 0.0 0
M  V30 8 N 2.4737 3.7757 0.0 0
M  V30 9 N 0.3077 5.2316 0.0 0
M  V30 10 C 4.6398 0.5089 0.0 0
M  V30 11 N 4.5806 2.0121 0.0 0
M  V30 12 C 5.7524 2.9472 0.0 0
M  V30 13 C 7.1372 2.3909 0.0 0
M  V30 14 N 7.3384 0.9113 0.0 0
M  V30 15 C 8.309 3.3259 0.0 0
M  V30 16 C 8.7233 0.355 0.0 0
M  V30 17 C 9.6939 2.7696 0.0 0
M  V30 18 C 8.0841 4.8291 0.0 0
M  V30 19 C 9.8951 1.2901 0.0 0
M  V30 20 O 10.8656 3.7047 0.0 0
M  V30 21 C 11.2799 0.7338 0.0 0
M  V30 22 C 12.2505 3.1484 0.0 0
M  V30 END ATOM
M  V30 BEGIN BOND
M  V30 1 1 1 2
M  V30 2 2 2 3
M  V30 3 1 2 4
M  V30 4 1 3 5
M  V30 5 1 4 6
M  V30 6 2 4 7
M  V30 7 2 5 8
M  V30 8 1 5 9
M  V30 9 2 6 10
M  V30 10 1 7 11
M  V30 11 1 11 12
M  V30 12 1 12 13
M  V30 13 2 13 14
M  V30 14 1 13 15
M  V30 15 1 14 16
M  V30 16 2 15 17
M  V30 17 1 15 18
M  V30 18 2 16 19
M  V30 19 1 17 20
M  V30 20 1 19 21
M  V30 21 1 20 22
M  V30 22 1 7 8
M  V30 23 1 10 11
M  V30 24 1 17 19
M  V30 END BOND
M  V30 END CTAB
M  END
>  <Compound ID>
310

>  <Name>
BIIB021

>  <Uniprot>


>  <Target>
HSP90

>  <Smiles>
COC1=C(C)C=NC(CN2C=NC3=C(Cl)N=C(N)N=C32)=C1C

>  <Kd (nM)>


>  <Assay (Kd)>


>  <Ki (nM)>
1.7

>  <Assay (Ki)>
FP

>  <IC50 (nM)>


>  <Assay (IC50)>


>  <EC50 (nM)>


>  <Assay (EC50)>


>  <Article DOI>
10.1021/acs.jmedchem.9b02038

>  <Molecular Weight>
318.768

>  <Exact Mass>
318.09958678

>  <XLogP3>
1.93

>  <Heavy Atom Count>
22

>  <Ring Count>
3

>  <Hydrogen Bond Acceptor Count>
7

>  <Hydrogen Bond Donor Count>
1

>  <Rotatable Bond Count>
3

>  <Topological Polar Surface Area>
91.74

>  <Molecular Formula>
C14H15ClN6O

>  <InChI>
InChI=1S/C14H15ClN6O/c1-7-4-17-9(8(2)11(7)22-3)5-21-6-18-10-12(15)19-14(16)20-13(10)21/h4,6H,5H2,1-3H3,(H2,16,19,20)

>  <InChI Key>
QULDDKSCVCJTPV-UHFFFAOYSA-N

>  <BindingDB>
20800

>  <PubChem>
16736529

>  <ChEMBL>
CHEMBL467399

$$$$
Compound 1037
Actelion Java MolfileCreator 2.0

  0  0  0  0  0  0              0 V3000
M  V30 BEGIN CTAB
M  V30 COUNTS 38 42 0 0 0
M  V30 BEGIN ATOM
M  V30 1 F 0.0 0.0 0.0 0
M  V30 2 C -1.3191 0.742 0.0 0
M  V30 3 C -1.3545 2.2496 0.0 0
M  V30 4 C -2.6147 -0.0117 0.0 0
M  V30 5 O -0.0824 3.027 0.0 0
M  V30 6 C -2.6736 2.9916 0.0 0
M  V30 7 C -3.9339 0.7302 0.0 0
M  V30 8 C 1.2131 2.3085 0.0 0
M  V30 9 C -3.9692 2.2378 0.0 0
M  V30 10 N -5.3591 0.2591 0.0 0
M  V30 11 C 2.4852 3.0859 0.0 0
M  V30 12 N -5.4062 2.6972 0.0 0
M  V30 13 C -6.266 1.4722 0.0 0
M  V30 14 O 3.7808 2.3674 0.0 0
M  V30 15 C -7.7736 1.4605 0.0 0
M  V30 16 C 5.0528 3.1448 0.0 0
M  V30 17 N -8.551 2.7561 0.0 0
M  V30 18 C 6.3485 2.4263 0.0 0
M  V30 19 C -10.0586 2.7443 0.0 0
M  V30 20 O 7.6205 3.2036 0.0 0
M  V30 21 N -10.8007 1.4487 0.0 0
M  V30 22 C -10.836 4.0399 0.0 0
M  V30 23 C 8.9161 2.4852 0.0 0
M  V30 24 C -12.3083 1.4369 0.0 0
M  V30 25 N -10.4002 5.4769 0.0 0
M  V30 26 C -12.3436 4.0281 0.0 0
M  V30 27 N -13.0856 2.7325 0.0 0
M  V30 28 N -13.0503 0.1413 0.0 0
M  V30 29 C -11.6369 6.3485 0.0 0
M  V30 30 N -12.8383 5.4533 0.0 0
M  V30 31 C -14.5579 0.1295 0.0 0
M  V30 32 C -12.2965 -1.1307 0.0 0
M  V30 33 C -14.2752 5.9127 0.0 0
M  V30 34 C -15.3 -1.166 0.0 0
M  V30 35 C -13.0385 -2.4263 0.0 0
M  V30 36 C -14.6168 7.3849 0.0 0
M  V30 37 C -15.3824 4.9115 0.0 0
M  V30 38 O -14.5461 -2.4381 0.0 0
M  V30 END ATOM
M  V30 BEGIN BOND
M  V30 1 1 1 2
M  V30 2 2 2 3
M  V30 3 1 2 4
M  V30 4 1 3 5
M  V30 5 1 3 6
M  V30 6 2 4 7
M  V30 7 1 5 8
M  V30 8 2 6 9
M  V30 9 1 7 10
M  V30 10 1 8 11
M  V30 11 1 9 12
M  V30 12 2 10 13
M  V30 13 1 11 14
M  V30 14 1 13 15
M  V30 15 1 14 16
M  V30 16 1 15 17
M  V30 17 1 16 18
M  V30 18 1 17 19
M  V30 19 1 18 20
M  V30 20 2 19 21
M  V30 21 1 19 22
M  V30 22 1 20 23
M  V30 23 1 21 24
M  V30 24 1 22 25
M  V30 25 2 22 26
M  V30 26 2 24 27
M  V30 27 1 24 28
M  V30 28 2 25 29
M  V30 29 1 26 30
M  V30 30 1 28 31
M  V30 31 1 28 32
M  V30 32 1 30 33
M  V30 33 1 31 34
M  V30 34 1 32 35
M  V30 35 1 33 36
M  V30 36 1 33 37
M  V30 37 1 34 38
M  V30 38 1 7 9
M  V30 39 1 12 13
M  V30 40 1 26 27
M  V30 41 1 29 30
M  V30 42 1 35 38
M  V30 END BOND
M  V30 END CTAB
M  END
>  <Compound ID>
311

>  <Name>


>  <Uniprot>
Q9NYV4

>  <Target>
CDK12

>  <Smiles>
COCCOCCOC1=CC2=C(C=C1F)N=C(CNC1=NC(N3CCOCC3)=NC3=C1N=CN3C(C)C)[NH]2

>  <Kd (nM)>


>  <Assay (Kd)>


>  <Ki (nM)>


>  <Assay (Ki)>


>  <IC50 (nM)>
236.9

>  <Assay (IC50)>
Inhibition of CDK12/cyclinK

>  <EC50 (nM)>


>  <Assay (EC50)>


>  <Article DOI>
10.1016/j.ejmech.2021.114012

>  <Molecular Weight>
528.589

>  <Exact Mass>
528.260879756

>  <XLogP3>
2.03

>  <Heavy Atom Count>
38

>  <Ring Count>
5

>  <Hydrogen Bond Acceptor Count>
11

>  <Hydrogen Bond Donor Count>
2

>  <Rotatable Bond Count>
12

>  <Topological Polar Surface Area>
124.47

>  <Molecular Formula>
C25H33FN8O4

>  <InChI>
InChI=1S/C25H33FN8O4/c1-16(2)34-15-28-22-23(31-25(32-24(22)34)33-4-6-36-7-5-33)27-14-21-29-18-12-17(26)20(13-19(18)30-21)38-11-10-37-9-8-35-3/h12-13,15-16H,4-11,14H2,1-3H3,(H,29,30)(H,27,31,32)

>  <InChI Key>
KHWWVAVHHRPPQY-UHFFFAOYSA-N

>  <BindingDB>


>  <PubChem>


>  <ChEMBL>


$$$$
Compound 1038
Actelion Java MolfileCreator 2.0

  0  0  0  0  0  0              0 V3000
M  V30 BEGIN CTAB
M  V30 COUNTS 25 27 0 0 0
M  V30 BEGIN ATOM
M  V30 1 Cl 0.0 0.0 0.0 0
M  V30 2 C -1.5034 -0.0822 0.0 0
M  V30 3 C -2.1729 -1.4094 0.0 0
M  V30 4 C -2.3491 1.1745 0.0 0
M  V30 5 O -1.3507 -2.6427 0.0 0
M  V30 6 C -3.6763 -1.4916 0.0 0
M  V30 7 C -3.8525 1.0923 0.0 0
M  V30 8 C -2.0202 -3.9699 0.0 0
M  V30 9 C -4.522 -0.2349 0.0 0
M  V30 10 C -4.6982 2.3491 0.0 0
M  V30 11 O -4.1931 3.7585 0.0 0
M  V30 12 C -6.2016 2.4195 0.0 0
M  V30 13 C -5.3794 4.6982 0.0 0
M  V30 14 N -6.6244 3.8642 0.0 0
M  V30 15 C -7.1412 1.2567 0.0 0
M  V30 16 O -6.601 -0.1174 0.0 0
M  V30 17 N -8.6329 1.4799 0.0 0
M  V30 18 C -9.5726 0.3171 0.0 0
M  V30 19 C -11.0643 0.5402 0.0 0
M  V30 20 C -12.0039 -0.6225 0.0 0
M  V30 21 N -13.4956 -0.3993 0.0 0
M  V30 22 N -14.2003 0.9278 0.0 0
M  V30 23 C -14.5527 -1.4564 0.0 0
M  V30 24 C -15.6803 0.6812 0.0 0
M  V30 25 N -15.9034 -0.7869 0.0 0
M  V30 END ATOM
M  V30 BEGIN BOND
M  V30 1 1 1 2
M  V30 2 2 2 3
M  V30 3 1 2 4
M  V30 4 1 3 5
M  V30 5 1 3 6
M  V30 6 2 4 7
M  V30 7 1 5 8
M  V30 8 2 6 9
M  V30 9 1 7 10
M  V30 10 1 10 11
M  V30 11 2 10 12
M  V30 12 1 11 13
M  V30 13 1 12 14
M  V30 14 1 12 15
M  V30 15 2 15 16
M  V30 16 1 15 17
M  V30 17 1 17 18
M  V30 18 1 18 19
M  V30 19 1 19 20
M  V30 20 1 20 21
M  V30 21 1 21 22
M  V30 22 1 21 23
M  V30 23 2 22 24
M  V30 24 2 23 25
M  V30 25 1 7 9
M  V30 26 2 13 14
M  V30 27 1 24 25
M  V30 END BOND
M  V30 END CTAB
M  END
>  <Compound ID>
312

>  <Name>
PF-367

>  <Uniprot>
P49840

>  <Target>
GSK3A

>  <Smiles>
COC1=CC=C(C2=C(C(=O)NCCCN3C=NC=N3)N=CO2)C=C1Cl

>  <Kd (nM)>


>  <Assay (Kd)>


>  <Ki (nM)>


>  <Assay (Ki)>


>  <IC50 (nM)>
10

>  <Assay (IC50)>
IC50 was assessed by mobility shift assays

>  <EC50 (nM)>


>  <Assay (EC50)>


>  <Article DOI>
10.1002/anie.201603797

>  <Molecular Weight>
361.789

>  <Exact Mass>
361.094167052

>  <XLogP3>
2.28

>  <Heavy Atom Count>
25

>  <Ring Count>
3

>  <Hydrogen Bond Acceptor Count>
7

>  <Hydrogen Bond Donor Count>
1

>  <Rotatable Bond Count>
7

>  <Topological Polar Surface Area>
95.07

>  <Molecular Formula>
C16H16ClN5O3

>  <InChI>
InChI=1S/C16H16ClN5O3/c1-24-13-4-3-11(7-12(13)17)15-14(20-10-25-15)16(23)19-5-2-6-22-9-18-8-21-22/h3-4,7-10H,2,5-6H2,1H3,(H,19,23)

>  <InChI Key>
RQFYFNAGNBUGFC-UHFFFAOYSA-N

>  <BindingDB>


>  <PubChem>
60148521

>  <ChEMBL>


$$$$
Compound 1039
Actelion Java MolfileCreator 2.0

  0  0  0  0  0  0              0 V3000
M  V30 BEGIN CTAB
M  V30 COUNTS 25 27 0 0 0
M  V30 BEGIN ATOM
M  V30 1 Cl 0.0 0.0 0.0 0
M  V30 2 C -1.5034 -0.0822 0.0 0
M  V30 3 C -2.1729 -1.4094 0.0 0
M  V30 4 C -2.3491 1.1745 0.0 0
M  V30 5 O -1.3507 -2.6427 0.0 0
M  V30 6 C -3.6763 -1.4916 0.0 0
M  V30 7 C -3.8525 1.0923 0.0 0
M  V30 8 C -2.0202 -3.9699 0.0 0
M  V30 9 C -4.522 -0.2349 0.0 0
M  V30 10 C -4.6982 2.3491 0.0 0
M  V30 11 O -4.1931 3.7585 0.0 0
M  V30 12 C -6.2016 2.4195 0.0 0
M  V30 13 C -5.3794 4.6982 0.0 0
M  V30 14 N -6.6244 3.8642 0.0 0
M  V30 15 C -7.1412 1.2567 0.0 0
M  V30 16 O -6.601 -0.1174 0.0 0
M  V30 17 N -8.6329 1.4799 0.0 0
M  V30 18 C -9.5726 0.3171 0.0 0
M  V30 19 C -11.0643 0.5402 0.0 0
M  V30 20 C -12.0039 -0.6225 0.0 0
M  V30 21 N -13.4956 -0.3993 0.0 0
M  V30 22 N -14.2003 0.9278 0.0 0
M  V30 23 C -14.5527 -1.4564 0.0 0
M  V30 24 C -15.6803 0.6812 0.0 0
M  V30 25 N -15.9034 -0.7869 0.0 0
M  V30 END ATOM
M  V30 BEGIN BOND
M  V30 1 1 1 2
M  V30 2 2 2 3
M  V30 3 1 2 4
M  V30 4 1 3 5
M  V30 5 1 3 6
M  V30 6 2 4 7
M  V30 7 1 5 8
M  V30 8 2 6 9
M  V30 9 1 7 10
M  V30 10 1 10 11
M  V30 11 2 10 12
M  V30 12 1 11 13
M  V30 13 1 12 14
M  V30 14 1 12 15
M  V30 15 2 15 16
M  V30 16 1 15 17
M  V30 17 1 17 18
M  V30 18 1 18 19
M  V30 19 1 19 20
M  V30 20 1 20 21
M  V30 21 1 21 22
M  V30 22 1 21 23
M  V30 23 2 22 24
M  V30 24 2 23 25
M  V30 25 1 7 9
M  V30 26 2 13 14
M  V30 27 1 24 25
M  V30 END BOND
M  V30 END CTAB
M  END
>  <Compound ID>
312

>  <Name>
PF-367

>  <Uniprot>
P49841

>  <Target>
GSK-3beta

>  <Smiles>
COC1=CC=C(C2=C(C(=O)NCCCN3C=NC=N3)N=CO2)C=C1Cl

>  <Kd (nM)>


>  <Assay (Kd)>


>  <Ki (nM)>


>  <Assay (Ki)>


>  <IC50 (nM)>
9

>  <Assay (IC50)>
IC50 was assessed by mobility shift assays

>  <EC50 (nM)>


>  <Assay (EC50)>


>  <Article DOI>
10.1002/anie.201603797

>  <Molecular Weight>
361.789

>  <Exact Mass>
361.094167052

>  <XLogP3>
2.28

>  <Heavy Atom Count>
25

>  <Ring Count>
3

>  <Hydrogen Bond Acceptor Count>
7

>  <Hydrogen Bond Donor Count>
1

>  <Rotatable Bond Count>
7

>  <Topological Polar Surface Area>
95.07

>  <Molecular Formula>
C16H16ClN5O3

>  <InChI>
InChI=1S/C16H16ClN5O3/c1-24-13-4-3-11(7-12(13)17)15-14(20-10-25-15)16(23)19-5-2-6-22-9-18-8-21-22/h3-4,7-10H,2,5-6H2,1H3,(H,19,23)

>  <InChI Key>
RQFYFNAGNBUGFC-UHFFFAOYSA-N

>  <BindingDB>


>  <PubChem>
60148521

>  <ChEMBL>


$$$$
Compound 1040
Actelion Java MolfileCreator 2.0

  0  0  0  0  0  0              0 V3000
M  V30 BEGIN CTAB
M  V30 COUNTS 32 35 0 0 0
M  V30 BEGIN ATOM
M  V30 1 S 0.0 0.0 0.0 0
M  V30 2 O -0.51 -1.4025 0.0 0
M  V30 3 O 0.4868 1.4257 0.0 0
M  V30 4 N 1.4025 -0.4868 0.0 0
M  V30 5 C -1.4257 0.51 0.0 0
M  V30 6 C 1.6575 -1.9473 0.0 0
M  V30 7 C 2.5268 0.4984 0.0 0
M  V30 8 C -1.7039 1.9936 0.0 0
M  V30 9 C -2.5732 -0.452 0.0 0
M  V30 10 C 3.06 -2.4341 0.0 0
M  V30 11 C 3.9294 0.0115 0.0 0
M  V30 12 C -3.1296 2.5036 0.0 0
M  V30 13 C -3.9989 0.0579 0.0 0
M  V30 14 N 4.1844 -1.4488 0.0 0
M  V30 15 C -4.2771 1.5416 0.0 0
M  V30 16 C 5.5869 -1.9357 0.0 0
M  V30 17 C -5.7028 2.0516 0.0 0
M  V30 18 N -6.8503 1.0895 0.0 0
M  V30 19 C -5.981 3.5353 0.0 0
M  V30 20 C -8.2761 1.5995 0.0 0
M  V30 21 N -7.4067 4.0453 0.0 0
M  V30 22 C -8.5543 3.0832 0.0 0
M  V30 23 C -9.4236 0.6375 0.0 0
M  V30 24 N -9.98 3.5932 0.0 0
M  V30 25 O -10.8493 1.1475 0.0 0
M  V30 26 N -9.1686 -0.8229 0.0 0
M  V30 27 C -10.3161 -1.785 0.0 0
M  V30 28 C -10.0611 -3.2455 0.0 0
M  V30 29 C -11.7418 -1.275 0.0 0
M  V30 30 N -11.2086 -4.2076 0.0 0
M  V30 31 C -12.8894 -2.2371 0.0 0
M  V30 32 C -12.6344 -3.6975 0.0 0
M  V30 END ATOM
M  V30 BEGIN BOND
M  V30 1 2 1 2
M  V30 2 2 1 3
M  V30 3 1 1 4
M  V30 4 1 1 5
M  V30 5 1 4 6
M  V30 6 1 4 7
M  V30 7 2 5 8
M  V30 8 1 5 9
M  V30 9 1 6 10
M  V30 10 1 7 11
M  V30 11 1 8 12
M  V30 12 2 9 13
M  V30 13 1 10 14
M  V30 14 2 12 15
M  V30 15 1 14 16
M  V30 16 1 15 17
M  V30 17 2 17 18
M  V30 18 1 17 19
M  V30 19 1 18 20
M  V30 20 2 19 21
M  V30 21 2 20 22
M  V30 22 1 20 23
M  V30 23 1 22 24
M  V30 24 2 23 25
M  V30 25 1 23 26
M  V30 26 1 26 27
M  V30 27 2 27 28
M  V30 28 1 27 29
M  V30 29 1 28 30
M  V30 30 2 29 31
M  V30 31 2 30 32
M  V30 32 1 11 14
M  V30 33 1 13 15
M  V30 34 1 21 22
M  V30 35 1 31 32
M  V30 END BOND
M  V30 END CTAB
M  END
>  <Compound ID>
313

>  <Name>
AZD2858

>  <Uniprot>
P49840

>  <Target>
GSK3A

>  <Smiles>
CN1CCN(S(=O)(=O)C2=CC=C(C3=CN=C(N)C(C(=O)NC4=CC=CN=C4)=N3)C=C2)CC1

>  <Kd (nM)>


>  <Assay (Kd)>


>  <Ki (nM)>


>  <Assay (Ki)>


>  <IC50 (nM)>


>  <Assay (IC50)>


>  <EC50 (nM)>


>  <Assay (EC50)>


>  <Article DOI>
10.1016/j.ejmech.2021.113889

>  <Molecular Weight>
453.528

>  <Exact Mass>
453.158308596

>  <XLogP3>
0.71

>  <Heavy Atom Count>
32

>  <Ring Count>
4

>  <Hydrogen Bond Acceptor Count>
8

>  <Hydrogen Bond Donor Count>
2

>  <Rotatable Bond Count>
5

>  <Topological Polar Surface Area>
134.41

>  <Molecular Formula>
C21H23N7O3S

>  <InChI>
InChI=1S/C21H23N7O3S/c1-27-9-11-28(12-10-27)32(30,31)17-6-4-15(5-7-17)18-14-24-20(22)19(26-18)21(29)25-16-3-2-8-23-13-16/h2-8,13-14H,9-12H2,1H3,(H2,22,24)(H,25,29)

>  <InChI Key>
FHCSBLWRGCOVPT-UHFFFAOYSA-N

>  <BindingDB>
50397745

>  <PubChem>
10138980

>  <ChEMBL>
CHEMBL2177161

$$$$
Compound 1041
Actelion Java MolfileCreator 2.0

  0  0  0  0  0  0              0 V3000
M  V30 BEGIN CTAB
M  V30 COUNTS 32 35 0 0 0
M  V30 BEGIN ATOM
M  V30 1 S 0.0 0.0 0.0 0
M  V30 2 O -0.51 -1.4025 0.0 0
M  V30 3 O 0.4868 1.4257 0.0 0
M  V30 4 N 1.4025 -0.4868 0.0 0
M  V30 5 C -1.4257 0.51 0.0 0
M  V30 6 C 1.6575 -1.9473 0.0 0
M  V30 7 C 2.5268 0.4984 0.0 0
M  V30 8 C -1.7039 1.9936 0.0 0
M  V30 9 C -2.5732 -0.452 0.0 0
M  V30 10 C 3.06 -2.4341 0.0 0
M  V30 11 C 3.9294 0.0115 0.0 0
M  V30 12 C -3.1296 2.5036 0.0 0
M  V30 13 C -3.9989 0.0579 0.0 0
M  V30 14 N 4.1844 -1.4488 0.0 0
M  V30 15 C -4.2771 1.5416 0.0 0
M  V30 16 C 5.5869 -1.9357 0.0 0
M  V30 17 C -5.7028 2.0516 0.0 0
M  V30 18 N -6.8503 1.0895 0.0 0
M  V30 19 C -5.981 3.5353 0.0 0
M  V30 20 C -8.2761 1.5995 0.0 0
M  V30 21 N -7.4067 4.0453 0.0 0
M  V30 22 C -8.5543 3.0832 0.0 0
M  V30 23 C -9.4236 0.6375 0.0 0
M  V30 24 N -9.98 3.5932 0.0 0
M  V30 25 O -10.8493 1.1475 0.0 0
M  V30 26 N -9.1686 -0.8229 0.0 0
M  V30 27 C -10.3161 -1.785 0.0 0
M  V30 28 C -10.0611 -3.2455 0.0 0
M  V30 29 C -11.7418 -1.275 0.0 0
M  V30 30 N -11.2086 -4.2076 0.0 0
M  V30 31 C -12.8894 -2.2371 0.0 0
M  V30 32 C -12.6344 -3.6975 0.0 0
M  V30 END ATOM
M  V30 BEGIN BOND
M  V30 1 2 1 2
M  V30 2 2 1 3
M  V30 3 1 1 4
M  V30 4 1 1 5
M  V30 5 1 4 6
M  V30 6 1 4 7
M  V30 7 2 5 8
M  V30 8 1 5 9
M  V30 9 1 6 10
M  V30 10 1 7 11
M  V30 11 1 8 12
M  V30 12 2 9 13
M  V30 13 1 10 14
M  V30 14 2 12 15
M  V30 15 1 14 16
M  V30 16 1 15 17
M  V30 17 2 17 18
M  V30 18 1 17 19
M  V30 19 1 18 20
M  V30 20 2 19 21
M  V30 21 2 20 22
M  V30 22 1 20 23
M  V30 23 1 22 24
M  V30 24 2 23 25
M  V30 25 1 23 26
M  V30 26 1 26 27
M  V30 27 2 27 28
M  V30 28 1 27 29
M  V30 29 1 28 30
M  V30 30 2 29 31
M  V30 31 2 30 32
M  V30 32 1 11 14
M  V30 33 1 13 15
M  V30 34 1 21 22
M  V30 35 1 31 32
M  V30 END BOND
M  V30 END CTAB
M  END
>  <Compound ID>
313

>  <Name>
AZD2858

>  <Uniprot>
P49841

>  <Target>
GSK-3beta

>  <Smiles>
CN1CCN(S(=O)(=O)C2=CC=C(C3=CN=C(N)C(C(=O)NC4=CC=CN=C4)=N3)C=C2)CC1

>  <Kd (nM)>
6.41

>  <Assay (Kd)>
SPR

>  <Ki (nM)>


>  <Assay (Ki)>


>  <IC50 (nM)>


>  <Assay (IC50)>


>  <EC50 (nM)>


>  <Assay (EC50)>


>  <Article DOI>
10.1016/j.ejmech.2021.113889

>  <Molecular Weight>
453.528

>  <Exact Mass>
453.158308596

>  <XLogP3>
0.71

>  <Heavy Atom Count>
32

>  <Ring Count>
4

>  <Hydrogen Bond Acceptor Count>
8

>  <Hydrogen Bond Donor Count>
2

>  <Rotatable Bond Count>
5

>  <Topological Polar Surface Area>
134.41

>  <Molecular Formula>
C21H23N7O3S

>  <InChI>
InChI=1S/C21H23N7O3S/c1-27-9-11-28(12-10-27)32(30,31)17-6-4-15(5-7-17)18-14-24-20(22)19(26-18)21(29)25-16-3-2-8-23-13-16/h2-8,13-14H,9-12H2,1H3,(H2,22,24)(H,25,29)

>  <InChI Key>
FHCSBLWRGCOVPT-UHFFFAOYSA-N

>  <BindingDB>
50397745

>  <PubChem>
10138980

>  <ChEMBL>
CHEMBL2177161

$$$$
Compound 1042
Actelion Java MolfileCreator 2.0

  0  0  0  0  0  0              0 V3000
M  V30 BEGIN CTAB
M  V30 COUNTS 38 44 0 0 0
M  V30 BEGIN ATOM
M  V30 1 N 0.0 0.0 0.0 0
M  V30 2 N -1.5057 0.1176 0.0 0
M  V30 3 C 0.8234 1.2469 0.0 0
M  V30 4 C -2.1644 1.4704 0.0 0
M  V30 5 C 2.2703 0.9293 0.0 0
M  V30 6 C 0.1646 2.5996 0.0 0
M  V30 7 N -3.6701 1.588 0.0 0
M  V30 8 C -1.341 2.7173 0.0 0
M  V30 9 C 3.4231 1.8703 0.0 0
M  V30 10 C 2.482 -0.5411 0.0 0
M  V30 11 C 0.7999 3.9642 0.0 0
M  V30 12 N -4.6465 0.4587 0.0 0
M  V30 13 C -4.47 2.8702 0.0 0
M  V30 14 C 4.7994 1.341 0.0 0
M  V30 15 C 3.4113 3.376 0.0 0
M  V30 16 C 3.8583 -1.0704 0.0 0
M  V30 17 C 2.2467 4.3171 0.0 0
M  V30 18 C -6.0463 1.0351 0.0 0
M  V30 19 N -5.9287 2.5291 0.0 0
M  V30 20 N -3.9171 4.27 0.0 0
M  V30 21 C 5.0111 -0.1293 0.0 0
M  V30 22 N -7.3285 0.2587 0.0 0
M  V30 23 C -8.6578 0.9763 0.0 0
M  V30 24 C -9.94 0.1999 0.0 0
M  V30 25 C -8.7166 2.482 0.0 0
M  V30 26 C -11.2692 0.9175 0.0 0
M  V30 27 C -10.0458 3.1996 0.0 0
M  V30 28 C -11.328 2.4232 0.0 0
M  V30 29 C -12.422 -0.0352 0.0 0
M  V30 30 C -12.5396 3.329 0.0 0
M  V30 31 C -13.9042 0.2587 0.0 0
M  V30 32 C -13.9983 2.9643 0.0 0
M  V30 33 C -14.61 1.5998 0.0 0 CFG=2
M  V30 34 N -16.1157 1.5645 0.0 0
M  V30 35 C -16.9627 0.3411 0.0 0
M  V30 36 C -17.045 2.7526 0.0 0
M  V30 37 C -18.4095 0.7646 0.0 0
M  V30 38 C -18.4566 2.2585 0.0 0
M  V30 END ATOM
M  V30 BEGIN BOND
M  V30 1 2 1 2
M  V30 2 1 1 3
M  V30 3 1 2 4
M  V30 4 1 3 5
M  V30 5 2 3 6
M  V30 6 1 4 7
M  V30 7 2 4 8
M  V30 8 2 5 9
M  V30 9 1 5 10
M  V30 10 1 6 11
M  V30 11 1 7 12
M  V30 12 1 7 13
M  V30 13 1 9 14
M  V30 14 1 9 15
M  V30 15 2 10 16
M  V30 16 1 11 17
M  V30 17 2 12 18
M  V30 18 2 13 19
M  V30 19 1 13 20
M  V30 20 2 14 21
M  V30 21 1 18 22
M  V30 22 1 22 23
M  V30 23 2 23 24
M  V30 24 1 23 25
M  V30 25 1 24 26
M  V30 26 2 25 27
M  V30 27 2 26 28
M  V30 28 1 26 29
M  V30 29 1 28 30
M  V30 30 1 29 31
M  V30 31 1 30 32
M  V30 32 1 31 33
M  V30 33 1 33 34 CFG=1
M  V30 34 1 34 35
M  V30 35 1 34 36
M  V30 36 1 35 37
M  V30 37 1 36 38
M  V30 38 1 6 8
M  V30 39 1 15 17
M  V30 40 1 16 21
M  V30 41 1 18 19
M  V30 42 1 27 28
M  V30 43 1 32 33
M  V30 44 1 37 38
M  V30 END BOND
M  V30 BEGIN COLLECTION
M  V30 MDLV30/STEABS ATOMS=(1 33)
M  V30 END COLLECTION
M  V30 END CTAB
M  END
>  <Compound ID>
314

>  <Name>
R428

>  <Uniprot>
P30530

>  <Target>
AXL

>  <Smiles>
NC1=NC(NC2=CC=C3CC[C@H](N4CCCC4)CCC3=C2)=NN1C1=CC2=C(N=N1)C1=CC=CC=C1CCC2

>  <Kd (nM)>


>  <Assay (Kd)>


>  <Ki (nM)>


>  <Assay (Ki)>


>  <IC50 (nM)>
650

>  <Assay (IC50)>
IC50 was assessed by the HTRF assay

>  <EC50 (nM)>


>  <Assay (EC50)>


>  <Article DOI>
10.1016/j.ejmech.2022.114253

>  <Molecular Weight>
506.658

>  <Exact Mass>
506.290643088

>  <XLogP3>
5.55

>  <Heavy Atom Count>
38

>  <Ring Count>
7

>  <Hydrogen Bond Acceptor Count>
8

>  <Hydrogen Bond Donor Count>
2

>  <Rotatable Bond Count>
4

>  <Topological Polar Surface Area>
97.78

>  <Molecular Formula>
C30H34N8

>  <InChI>
InChI=1S/C30H34N8/c31-29-33-30(32-24-13-10-20-11-14-25(15-12-22(20)18-24)37-16-3-4-17-37)36-38(29)27-19-23-8-5-7-21-6-1-2-9-26(21)28(23)35-34-27/h1-2,6,9-10,13,18-19,25H,3-5,7-8,11-12,14-17H2,(H3,31,32,33,36)/t25-/m0/s1

>  <InChI Key>
KXMZDGSRSGHMMK-VWLOTQADSA-N

>  <BindingDB>
50172079

>  <PubChem>
46215462

>  <ChEMBL>
CHEMBL3809489

$$$$
Compound 1043
Actelion Java MolfileCreator 2.0

  0  0  0  0  0  0              0 V3000
M  V30 BEGIN CTAB
M  V30 COUNTS 36 38 0 0 0
M  V30 BEGIN ATOM
M  V30 1 Cl 0.0 0.0 0.0 0
M  V30 2 C 0.0237 -1.4992 0.0 0
M  V30 3 C -1.285 -2.2726 0.0 0
M  V30 4 C 1.3326 -2.2131 0.0 0
M  V30 5 C -1.2612 -3.7719 0.0 0
M  V30 6 C 1.3564 -3.7124 0.0 0
M  V30 7 N -2.3797 -4.7952 0.0 0
M  V30 8 C 0.0475 -4.4858 0.0 0
M  V30 9 C -1.7491 -6.1517 0.0 0
M  V30 10 C -0.2498 -5.9613 0.0 0
M  V30 11 C -2.4868 -7.4605 0.0 0
M  V30 12 C 0.7734 -7.056 0.0 0 CFG=1
M  V30 13 O -1.9395 -8.6861 0.0 0
M  V30 14 O -4.0099 -7.4843 0.0 0
M  V30 15 N 2.2369 -6.699 0.0 0
M  V30 16 C 0.3212 -8.4957 0.0 0
M  V30 17 C -4.7476 -8.7932 0.0 0
M  V30 18 C 2.6653 -5.2355 0.0 0
M  V30 19 C 3.2602 -7.7937 0.0 0
M  V30 20 O -0.9638 -8.9598 0.0 0
M  V30 21 N 1.3445 -9.5904 0.0 0
M  V30 22 C -6.2707 -8.817 0.0 0
M  V30 23 O 4.1289 -4.8785 0.0 0
M  V30 24 C 4.7238 -7.4367 0.0 0
M  V30 25 C 0.8924 -11.0302 0.0 0
M  V30 26 C 5.7471 -8.5314 0.0 0
M  V30 27 C 5.1522 -5.9732 0.0 0
M  V30 28 C 2.3321 -11.4586 0.0 0
M  V30 29 C -0.5711 -10.5781 0.0 0
M  V30 30 C 0.4402 -12.47 0.0 0
M  V30 31 C 7.2107 -8.1745 0.0 0
M  V30 32 C 6.6157 -5.6162 0.0 0
M  V30 33 F 8.234 -9.2692 0.0 0
M  V30 34 C 7.639 -6.7109 0.0 0
M  V30 35 F 7.0441 -4.1527 0.0 0
M  V30 36 F 9.1026 -6.354 0.0 0
M  V30 END ATOM
M  V30 BEGIN BOND
M  V30 1 1 1 2
M  V30 2 2 2 3
M  V30 3 1 2 4
M  V30 4 1 3 5
M  V30 5 2 4 6
M  V30 6 1 5 7
M  V30 7 2 5 8
M  V30 8 1 7 9
M  V30 9 1 8 10
M  V30 10 1 9 11
M  V30 11 1 10 12
M  V30 12 2 11 13
M  V30 13 1 11 14
M  V30 14 1 12 15 CFG=1
M  V30 15 1 12 16
M  V30 16 1 14 17
M  V30 17 1 15 18
M  V30 18 1 15 19
M  V30 19 2 16 20
M  V30 20 1 16 21
M  V30 21 1 17 22
M  V30 22 2 18 23
M  V30 23 1 19 24
M  V30 24 1 21 25
M  V30 25 2 24 26
M  V30 26 1 24 27
M  V30 27 1 25 28
M  V30 28 1 25 29
M  V30 29 1 25 30
M  V30 30 1 26 31
M  V30 31 2 27 32
M  V30 32 1 31 33
M  V30 33 2 31 34
M  V30 34 1 32 35
M  V30 35 1 34 36
M  V30 36 1 6 8
M  V30 37 2 9 10
M  V30 38 1 32 34
M  V30 END BOND
M  V30 BEGIN COLLECTION
M  V30 MDLV30/STERAC1 ATOMS=(1 12)
M  V30 END COLLECTION
M  V30 END CTAB
M  END
>  <Compound ID>
315

>  <Name>


>  <Uniprot>
Q00987

>  <Target>
MDM2

>  <Smiles>
CCOC(=O)C1=C(C(C(=O)NC(C)(C)C)N(C=O)CC2=CC(F)=C(F)C(F)=C2)C2=CC=C(Cl)C=C2[NH]1

>  <Kd (nM)>


>  <Assay (Kd)>


>  <Ki (nM)>
400

>  <Assay (Ki)>
FP

>  <IC50 (nM)>


>  <Assay (IC50)>


>  <EC50 (nM)>


>  <Assay (EC50)>


>  <Article DOI>
10.1002/cmdc.201100428

>  <Molecular Weight>
523.939

>  <Exact Mass>
523.14856862

>  <XLogP3>
5.41

>  <Heavy Atom Count>
36

>  <Ring Count>
3

>  <Hydrogen Bond Acceptor Count>
4

>  <Hydrogen Bond Donor Count>
2

>  <Rotatable Bond Count>
8

>  <Topological Polar Surface Area>
91.5

>  <Molecular Formula>
C25H25ClF3N3O4

>  <InChI>
InChI=1S/C25H25ClF3N3O4/c1-5-36-24(35)21-19(15-7-6-14(26)10-18(15)30-21)22(23(34)31-25(2,3)4)32(12-33)11-13-8-16(27)20(29)17(28)9-13/h6-10,12,22,30H,5,11H2,1-4H3,(H,31,34)

>  <InChI Key>
OOWUETJGFQSHBR-UHFFFAOYSA-N

>  <BindingDB>
192204

>  <PubChem>
87111280

>  <ChEMBL>
CHEMBL3968676

$$$$
Compound 1044
Actelion Java MolfileCreator 2.0

  0  0  0  0  0  0              0 V3000
M  V30 BEGIN CTAB
M  V30 COUNTS 47 53 0 0 0
M  V30 BEGIN ATOM
M  V30 1 Cl 0.0 0.0 0.0 0
M  V30 2 C 0.7668 -1.274 0.0 0
M  V30 3 C 2.2532 -1.2269 0.0 0
M  V30 4 C 0.0353 -2.5717 0.0 0
M  V30 5 C 2.9611 0.0943 0.0 0
M  V30 6 C 3.02 -2.501 0.0 0
M  V30 7 C 0.8022 -3.8458 0.0 0
M  V30 8 N 2.1706 1.392 0.0 0
M  V30 9 C 4.4475 0.1415 0.0 0
M  V30 10 C 2.2886 -3.7987 0.0 0
M  V30 11 C 4.5065 -2.4538 0.0 0
M  V30 12 C 2.8785 2.7133 0.0 0
M  V30 13 C 0.6606 1.3684 0.0 0
M  V30 14 C 5.2143 -1.1325 0.0 0
M  V30 15 C 2.0881 4.011 0.0 0
M  V30 16 C -0.1297 2.6661 0.0 0
M  V30 17 N 2.7959 5.3323 0.0 0
M  V30 18 C 0.578 3.9874 0.0 0
M  V30 19 C 2.0055 6.63 0.0 0
M  V30 20 C -0.2123 5.2851 0.0 0
M  V30 21 O 2.7133 7.9513 0.0 0
M  V30 22 N 0.4954 6.6064 0.0 0
M  V30 23 N -1.7223 5.2615 0.0 0
M  V30 24 C 4.1998 7.9985 0.0 0
M  V30 25 C -2.4538 3.9638 0.0 0
M  V30 26 C -2.5128 6.5592 0.0 0
M  V30 27 C 4.9076 9.3198 0.0 0 CFG=1
M  V30 28 C -3.9638 3.9402 0.0 0 CFG=1
M  V30 29 C -4.0228 6.5356 0.0 0
M  V30 30 N 6.3822 9.5203 0.0 0
M  V30 31 C 4.2587 10.6882 0.0 0
M  V30 32 N -4.7542 5.2379 0.0 0
M  V30 33 C -4.6952 2.6425 0.0 0
M  V30 34 C 6.6536 11.0068 0.0 0
M  V30 35 C 7.3968 8.4468 0.0 0
M  V30 36 C 5.3323 11.7264 0.0 0
M  V30 37 C -6.2643 5.2143 0.0 0
M  V30 38 C -3.9284 1.3684 0.0 0
M  V30 39 O -6.9957 3.9166 0.0 0
M  V30 40 C -7.0547 6.512 0.0 0
M  V30 41 N -3.1616 0.0943 0.0 0
M  V30 42 C -6.3469 7.8333 0.0 0
M  V30 43 C -8.5647 6.4884 0.0 0
M  V30 44 N -5.639 9.1546 0.0 0
M  V30 45 C -9.2962 5.1907 0.0 0
M  V30 46 C -9.2726 3.7043 0.0 0
M  V30 47 C -10.5938 4.4239 0.0 0
M  V30 END ATOM
M  V30 BEGIN BOND
M  V30 1 1 1 2
M  V30 2 1 2 3
M  V30 3 2 2 4
M  V30 4 2 3 5
M  V30 5 1 3 6
M  V30 6 1 4 7
M  V30 7 1 5 8
M  V30 8 1 5 9
M  V30 9 1 6 10
M  V30 10 2 6 11
M  V30 11 1 8 12
M  V30 12 1 8 13
M  V30 13 2 9 14
M  V30 14 1 12 15
M  V30 15 1 13 16
M  V30 16 2 15 17
M  V30 17 1 15 18
M  V30 18 1 17 19
M  V30 19 2 18 20
M  V30 20 1 19 21
M  V30 21 2 19 22
M  V30 22 1 20 23
M  V30 23 1 21 24
M  V30 24 1 23 25
M  V30 25 1 23 26
M  V30 26 1 27 24 CFG=3
M  V30 27 1 25 28
M  V30 28 1 26 29
M  V30 29 1 27 30
M  V30 30 1 27 31
M  V30 31 1 28 32
M  V30 32 1 28 33 CFG=3
M  V30 33 1 30 34
M  V30 34 1 30 35
M  V30 35 1 31 36
M  V30 36 1 32 37
M  V30 37 1 33 38
M  V30 38 2 37 39
M  V30 39 1 37 40
M  V30 40 3 38 41
M  V30 41 1 40 42
M  V30 42 2 40 43
M  V30 43 3 42 44
M  V30 44 1 43 45
M  V30 45 1 45 46
M  V30 46 1 45 47
M  V30 47 2 7 10
M  V30 48 1 11 14
M  V30 49 1 16 18
M  V30 50 1 20 22
M  V30 51 1 29 32
M  V30 52 1 34 36
M  V30 53 1 46 47
M  V30 END BOND
M  V30 BEGIN COLLECTION
M  V30 MDLV30/STEABS ATOMS=(2 27 28)
M  V30 END COLLECTION
M  V30 END CTAB
M  END
>  <Compound ID>
316

>  <Name>


>  <Uniprot>
P01116

>  <Target>
KRAS G12C

>  <Smiles>
CN1CCC[C@H]1COC1=NC2=C(CCN(C3=CC=CC4=CC=CC(Cl)=C34)C2)C(N2CCN(C(=O)/C(C#N)=C\C3CC3)[C@@H](CC#N)C2)=N1

>  <Kd (nM)>


>  <Assay (Kd)>


>  <Ki (nM)>


>  <Assay (Ki)>


>  <IC50 (nM)>
25.44

>  <Assay (IC50)>
IC50 was assessed by the HTRF assay

>  <EC50 (nM)>


>  <Assay (EC50)>


>  <Article DOI>
10.1016/j.ejmech.2021.114088

>  <Molecular Weight>
651.215

>  <Exact Mass>
650.288450168

>  <XLogP3>
5.44

>  <Heavy Atom Count>
47

>  <Ring Count>
7

>  <Hydrogen Bond Acceptor Count>
9

>  <Hydrogen Bond Donor Count>
0

>  <Rotatable Bond Count>
8

>  <Topological Polar Surface Area>
112.62

>  <Molecular Formula>
C36H39ClN8O2

>  <InChI>
InChI=1S/C36H39ClN8O2/c1-42-15-4-7-28(42)23-47-36-40-31-22-43(32-9-3-6-25-5-2-8-30(37)33(25)32)16-13-29(31)34(41-36)44-17-18-45(27(21-44)12-14-38)35(46)26(20-39)19-24-10-11-24/h2-3,5-6,8-9,19,24,27-28H,4,7,10-13,15-18,21-23H2,1H3/b26-19-/t27-,28-/m0/s1

>  <InChI Key>
CROGWWKTKKFIJR-ADBZDVSGSA-N

>  <BindingDB>


>  <PubChem>


>  <ChEMBL>


$$$$
Compound 1045
Actelion Java MolfileCreator 2.0

  0  0  0  0  0  0              0 V3000
M  V30 BEGIN CTAB
M  V30 COUNTS 30 33 0 0 0
M  V30 BEGIN ATOM
M  V30 1 Cl 0.0 0.0 0.0 0
M  V30 2 C 1.0 -1.1058 0.0 0
M  V30 3 C 0.5294 -2.5294 0.0 0
M  V30 4 C 2.4588 -0.7764 0.0 0
M  V30 5 C -0.9529 -2.8352 0.0 0
M  V30 6 C 1.5294 -3.6352 0.0 0
M  V30 7 C 3.4588 -1.8823 0.0 0
M  V30 8 O -1.4235 -4.2588 0.0 0
M  V30 9 C -1.9764 -1.7058 0.0 0
M  V30 10 C 2.9882 -3.3058 0.0 0
M  V30 11 O 4.9176 -1.5529 0.0 0
M  V30 12 C -3.4823 -1.8588 0.0 0
M  V30 13 C -1.6823 -0.2235 0.0 0
M  V30 14 C 5.9176 -2.6588 0.0 0
M  V30 15 C -4.3764 -3.0588 0.0 0
M  V30 16 C -4.1058 -0.4823 0.0 0
M  V30 17 N -3.0 0.5411 0.0 0
M  V30 18 C 5.447 -4.0823 0.0 0
M  V30 19 C 7.3764 -2.3294 0.0 0
M  V30 20 N -5.8823 -2.8941 0.0 0
M  V30 21 N -3.7764 -4.4117 0.0 0
M  V30 22 N -5.6117 -0.3176 0.0 0
M  V30 23 C 6.447 -5.1882 0.0 0
M  V30 24 C 8.3764 -3.4352 0.0 0
M  V30 25 C -6.5058 -1.5176 0.0 0
M  V30 26 C -4.6705 -5.6117 0.0 0
M  V30 27 C 7.9058 -4.8588 0.0 0
M  V30 28 C -4.0705 -6.9647 0.0 0
M  V30 29 O -2.5882 -7.1058 0.0 0
M  V30 30 O -4.9647 -8.1647 0.0 0
M  V30 END ATOM
M  V30 BEGIN BOND
M  V30 1 1 1 2
M  V30 2 2 2 3
M  V30 3 1 2 4
M  V30 4 1 3 5
M  V30 5 1 3 6
M  V30 6 2 4 7
M  V30 7 2 5 8
M  V30 8 1 5 9
M  V30 9 2 6 10
M  V30 10 1 7 11
M  V30 11 1 9 12
M  V30 12 2 9 13
M  V30 13 1 11 14
M  V30 14 2 12 15
M  V30 15 1 12 16
M  V30 16 1 13 17
M  V30 17 2 14 18
M  V30 18 1 14 19
M  V30 19 1 15 20
M  V30 20 1 15 21
M  V30 21 2 16 22
M  V30 22 1 18 23
M  V30 23 2 19 24
M  V30 24 2 20 25
M  V30 25 1 21 26
M  V30 26 2 23 27
M  V30 27 1 26 28
M  V30 28 2 28 29
M  V30 29 1 28 30
M  V30 30 1 7 10
M  V30 31 1 16 17
M  V30 32 1 22 25
M  V30 33 1 24 27
M  V30 END BOND
M  V30 END CTAB
M  END
>  <Compound ID>
317

>  <Name>


>  <Uniprot>
Q06187

>  <Target>
BTK

>  <Smiles>
O=C(O)CNC1=NC=NC2=C1C(C(=O)C1=CC=C(OC3=CC=CC=C3)C=C1Cl)=C[NH]2

>  <Kd (nM)>


>  <Assay (Kd)>


>  <Ki (nM)>


>  <Assay (Ki)>


>  <IC50 (nM)>
81.4

>  <Assay (IC50)>
Inhibition of BTK

>  <EC50 (nM)>


>  <Assay (EC50)>


>  <Article DOI>
10.1016/j.ejmech.2021.113820

>  <Molecular Weight>
422.828

>  <Exact Mass>
422.07818264

>  <XLogP3>
4.07

>  <Heavy Atom Count>
30

>  <Ring Count>
4

>  <Hydrogen Bond Acceptor Count>
6

>  <Hydrogen Bond Donor Count>
3

>  <Rotatable Bond Count>
7

>  <Topological Polar Surface Area>
117.2

>  <Molecular Formula>
C21H15ClN4O4

>  <InChI>
InChI=1S/C21H15ClN4O4/c22-16-8-13(30-12-4-2-1-3-5-12)6-7-14(16)19(29)15-9-23-20-18(15)21(26-11-25-20)24-10-17(27)28/h1-9,11H,10H2,(H,27,28)(H2,23,24,25,26)

>  <InChI Key>
GTFCZHOGJFHOEX-UHFFFAOYSA-N

>  <BindingDB>


>  <PubChem>
156770693

>  <ChEMBL>


$$$$
Compound 1046
Actelion Java MolfileCreator 2.0

  0  0  0  0  0  0              0 V3000
M  V30 BEGIN CTAB
M  V30 COUNTS 33 37 0 0 0
M  V30 BEGIN ATOM
M  V30 1 Cl 0.0 0.0 0.0 0
M  V30 2 C -1.1149 1.021 0.0 0
M  V30 3 C -0.8097 2.4997 0.0 0
M  V30 4 C -2.5584 0.575 0.0 0
M  V30 5 C 0.6102 2.9692 0.0 0
M  V30 6 C -1.9247 3.5208 0.0 0
M  V30 7 C -3.6734 1.5961 0.0 0
M  V30 8 O 1.7017 1.9716 0.0 0
M  V30 9 C 0.9154 4.4479 0.0 0
M  V30 10 C -3.3682 3.0748 0.0 0
M  V30 11 O -5.1169 1.1501 0.0 0
M  V30 12 C 2.2768 5.0582 0.0 0
M  V30 13 C -0.0938 5.5746 0.0 0
M  V30 14 C -6.2318 2.1711 0.0 0
M  V30 15 C 3.6264 4.4479 0.0 0
M  V30 16 C 2.1242 6.5605 0.0 0
M  V30 17 N 0.6572 6.8773 0.0 0
M  V30 18 C -5.9267 3.6499 0.0 0
M  V30 19 C -7.6754 1.7252 0.0 0
M  V30 20 N 4.8352 5.3282 0.0 0
M  V30 21 N 3.7555 2.9692 0.0 0
M  V30 22 N 3.333 7.4407 0.0 0
M  V30 23 C -7.0416 4.6709 0.0 0
M  V30 24 C -8.7903 2.7462 0.0 0
M  V30 25 C 4.6827 6.8304 0.0 0
M  V30 26 C 5.1052 2.3589 0.0 0 CFG=1
M  V30 27 C -8.4852 4.225 0.0 0
M  V30 28 C 5.2343 0.8802 0.0 0
M  V30 29 C 6.314 3.2391 0.0 0
M  V30 30 C 6.5839 0.2699 0.0 0
M  V30 31 C 7.6637 2.6288 0.0 0
M  V30 32 C 7.7928 1.1501 0.0 0 CFG=2
M  V30 33 N 9.1424 0.5398 0.0 0
M  V30 END ATOM
M  V30 BEGIN BOND
M  V30 1 1 1 2
M  V30 2 2 2 3
M  V30 3 1 2 4
M  V30 4 1 3 5
M  V30 5 1 3 6
M  V30 6 2 4 7
M  V30 7 2 5 8
M  V30 8 1 5 9
M  V30 9 2 6 10
M  V30 10 1 7 11
M  V30 11 1 9 12
M  V30 12 2 9 13
M  V30 13 1 11 14
M  V30 14 2 12 15
M  V30 15 1 12 16
M  V30 16 1 13 17
M  V30 17 2 14 18
M  V30 18 1 14 19
M  V30 19 1 15 20
M  V30 20 1 15 21
M  V30 21 2 16 22
M  V30 22 1 18 23
M  V30 23 2 19 24
M  V30 24 2 20 25
M  V30 25 1 26 21 CFG=3
M  V30 26 2 23 27
M  V30 27 1 26 28
M  V30 28 1 26 29
M  V30 29 1 28 30
M  V30 30 1 29 31
M  V30 31 1 30 32
M  V30 32 1 32 33 CFG=3
M  V30 33 1 7 10
M  V30 34 1 16 17
M  V30 35 1 22 25
M  V30 36 1 24 27
M  V30 37 1 31 32
M  V30 END BOND
M  V30 BEGIN COLLECTION
M  V30 MDLV30/STEABS ATOMS=(2 26 32)
M  V30 END COLLECTION
M  V30 END CTAB
M  END
>  <Compound ID>
318

>  <Name>


>  <Uniprot>
Q06187

>  <Target>
BTK

>  <Smiles>
N[C@H]1CC[C@@H](NC2=NC=NC3=C2C(C(=O)C2=CC=C(OC4=CC=CC=C4)C=C2Cl)=C[NH]3)CC1

>  <Kd (nM)>


>  <Assay (Kd)>


>  <Ki (nM)>


>  <Assay (Ki)>


>  <IC50 (nM)>
4.3

>  <Assay (IC50)>
Inhibition of BTK

>  <EC50 (nM)>


>  <Assay (EC50)>


>  <Article DOI>
10.1016/j.ejmech.2021.113820

>  <Molecular Weight>
461.953

>  <Exact Mass>
461.161852688

>  <XLogP3>
4.87

>  <Heavy Atom Count>
33

>  <Ring Count>
5

>  <Hydrogen Bond Acceptor Count>
6

>  <Hydrogen Bond Donor Count>
3

>  <Rotatable Bond Count>
6

>  <Topological Polar Surface Area>
105.92

>  <Molecular Formula>
C25H24ClN5O2

>  <InChI>
InChI=1S/C25H24ClN5O2/c26-21-12-18(33-17-4-2-1-3-5-17)10-11-19(21)23(32)20-13-28-24-22(20)25(30-14-29-24)31-16-8-6-15(27)7-9-16/h1-5,10-16H,6-9,27H2,(H2,28,29,30,31)/t15-,16+

>  <InChI Key>
IUZZCPDVZWIZJE-IYBDPMFKSA-N

>  <BindingDB>
499829

>  <PubChem>
134283148

>  <ChEMBL>


$$$$
Compound 1047
Actelion Java MolfileCreator 2.0

  0  0  0  0  0  0              0 V3000
M  V30 BEGIN CTAB
M  V30 COUNTS 28 31 0 0 0
M  V30 BEGIN ATOM
M  V30 1 O 0.0 0.0 0.0 0
M  V30 2 C 1.1248 0.9945 0.0 0
M  V30 3 N 0.9827 2.51 0.0 0
M  V30 4 C 2.5811 0.663 0.0 0
M  V30 5 C 2.3561 3.102 0.0 0
M  V30 6 C 3.1494 -0.7104 0.0 0
M  V30 7 C 3.3507 1.9654 0.0 0
M  V30 8 C 2.8416 4.5347 0.0 0
M  V30 9 N 2.3561 -1.9891 0.0 0
M  V30 10 C 4.6057 -1.0419 0.0 0
M  V30 11 C 4.8188 2.2614 0.0 0
M  V30 12 C 4.3097 4.8307 0.0 0
M  V30 13 C 3.327 -3.1139 0.0 0
M  V30 14 N 5.7305 -0.0473 0.0 0
M  V30 15 C 4.7241 -2.5337 0.0 0
M  V30 16 C 5.3043 3.694 0.0 0
M  V30 17 C 3.1257 -4.5939 0.0 0
M  V30 18 O 7.1395 -0.5328 0.0 0
M  V30 19 C 5.92 -3.4336 0.0 0
M  V30 20 C 4.3216 -5.4937 0.0 0
M  V30 21 C 8.2643 0.4617 0.0 0
M  V30 22 C 5.7187 -4.9136 0.0 0
M  V30 23 C 9.6732 -0.0236 0.0 0
M  V30 24 C 10.798 0.9708 0.0 0
M  V30 25 C 12.207 0.4854 0.0 0
M  V30 26 O 12.4793 -0.9827 0.0 0
M  V30 27 N 13.3318 1.48 0.0 0
M  V30 28 O 14.7408 0.9945 0.0 0
M  V30 END ATOM
M  V30 BEGIN BOND
M  V30 1 2 1 2
M  V30 2 1 2 3
M  V30 3 1 2 4
M  V30 4 1 3 5
M  V30 5 2 4 6
M  V30 6 1 4 7
M  V30 7 1 5 8
M  V30 8 1 6 9
M  V30 9 1 6 10
M  V30 10 1 7 11
M  V30 11 2 8 12
M  V30 12 1 9 13
M  V30 13 2 10 14
M  V30 14 1 10 15
M  V30 15 2 11 16
M  V30 16 1 13 17
M  V30 17 1 14 18
M  V30 18 1 15 19
M  V30 19 2 17 20
M  V30 20 1 18 21
M  V30 21 2 19 22
M  V30 22 1 21 23
M  V30 23 1 23 24
M  V30 24 1 24 25
M  V30 25 2 25 26
M  V30 26 1 25 27
M  V30 27 1 27 28
M  V30 28 2 5 7
M  V30 29 1 12 16
M  V30 30 2 13 15
M  V30 31 1 20 22
M  V30 END BOND
M  V30 END CTAB
M  END
>  <Compound ID>
319

>  <Name>


>  <Uniprot>
Q9UBN7

>  <Target>
HDAC6

>  <Smiles>
O=C(CCCO/N=C1C(=C2/C(=O)NC3=CC=CC=C23)/NC2=CC=CC=C/12)NO

>  <Kd (nM)>


>  <Assay (Kd)>


>  <Ki (nM)>


>  <Assay (Ki)>


>  <IC50 (nM)>
128.6

>  <Assay (IC50)>
Inhibition of HDAC6

>  <EC50 (nM)>


>  <Assay (EC50)>


>  <Article DOI>
10.1021/acschembio.1c00681

>  <Molecular Weight>
378.388

>  <Exact Mass>
378.132805056

>  <XLogP3>
2.01

>  <Heavy Atom Count>
28

>  <Ring Count>
4

>  <Hydrogen Bond Acceptor Count>
6

>  <Hydrogen Bond Donor Count>
4

>  <Rotatable Bond Count>
5

>  <Topological Polar Surface Area>
112.05

>  <Molecular Formula>
C20H18N4O4

>  <InChI>
InChI=1S/C20H18N4O4/c25-16(23-27)10-5-11-28-24-18-13-7-2-4-9-15(13)21-19(18)17-12-6-1-3-8-14(12)22-20(17)26/h1-4,6-9,21,27H,5,10-11H2,(H,22,26)(H,23,25)/b19-17-,24-18+

>  <InChI Key>
PFMKIDRZHBZULH-FTCCNZMVSA-N

>  <BindingDB>


>  <PubChem>


>  <ChEMBL>


$$$$
Compound 1048
Actelion Java MolfileCreator 2.0

  0  0  0  0  0  0              0 V3000
M  V30 BEGIN CTAB
M  V30 COUNTS 26 29 0 0 0
M  V30 BEGIN ATOM
M  V30 1 S 0.0 0.0 0.0 0
M  V30 2 O -0.2234 1.4938 0.0 0
M  V30 3 O 0.1999 -1.4703 0.0 0
M  V30 4 N -1.4938 -0.1999 0.0 0
M  V30 5 C 1.4703 0.2234 0.0 0
M  V30 6 C -2.6936 0.7175 0.0 0
M  V30 7 C -2.4113 -1.3762 0.0 0
M  V30 8 C 2.0231 1.6232 0.0 0
M  V30 9 C -3.6111 -0.4587 0.0 0
M  V30 10 N -4.8109 0.4587 0.0 0
M  V30 11 C -2.7172 0.741 0.0 0
M  V30 12 N -4.7992 1.9643 0.0 0
M  V30 13 C -6.2577 0.0352 0.0 0
M  V30 14 C -1.2468 0.5646 0.0 0
M  V30 15 C -6.2225 2.4701 0.0 0
M  V30 16 C -7.1282 1.2703 0.0 0
M  V30 17 N 0.2234 0.7528 0.0 0
M  V30 18 C -8.6338 1.3056 0.0 0
M  V30 19 N -9.3631 2.6231 0.0 0
M  V30 20 C -9.4219 0.0352 0.0 0
M  V30 21 C -10.8688 2.6583 0.0 0
M  V30 22 C -10.9276 0.0705 0.0 0
M  V30 23 C -8.9985 -1.388 0.0 0
M  V30 24 N -11.6569 1.388 0.0 0
M  V30 25 N -11.4334 -1.3291 0.0 0
M  V30 26 C -10.2336 -2.2349 0.0 0
M  V30 END ATOM
M  V30 BEGIN BOND
M  V30 1 2 1 2
M  V30 2 2 1 3
M  V30 3 1 1 4
M  V30 4 1 1 5
M  V30 5 1 4 6
M  V30 6 1 4 7
M  V30 7 1 5 8
M  V30 8 1 6 9
M  V30 9 1 9 10
M  V30 10 1 9 11
M  V30 11 1 10 12
M  V30 12 1 10 13
M  V30 13 1 11 14
M  V30 14 2 12 15
M  V30 15 2 13 16
M  V30 16 3 14 17
M  V30 17 1 16 18
M  V30 18 2 18 19
M  V30 19 1 18 20
M  V30 20 1 19 21
M  V30 21 2 20 22
M  V30 22 1 20 23
M  V30 23 2 21 24
M  V30 24 1 22 25
M  V30 25 2 23 26
M  V30 26 1 7 9
M  V30 27 1 15 16
M  V30 28 1 22 24
M  V30 29 1 25 26
M  V30 END BOND
M  V30 END CTAB
M  END
>  <Compound ID>
320

>  <Name>
Baricitinib

>  <Uniprot>
O60674

>  <Target>
JAK2

>  <Smiles>
CCS(=O)(=O)N1CC(CC#N)(N2C=C(C3=NC=NC4=C3C=C[NH]4)C=N2)C1

>  <Kd (nM)>


>  <Assay (Kd)>


>  <Ki (nM)>


>  <Assay (Ki)>


>  <IC50 (nM)>
290

>  <Assay (IC50)>
IC50 was assessed by radiometric assay

>  <EC50 (nM)>


>  <Assay (EC50)>


>  <Article DOI>
10.1021/acs.jmedchem.0c01952

>  <Molecular Weight>
371.426

>  <Exact Mass>
371.116443784

>  <XLogP3>
-0.46

>  <Heavy Atom Count>
26

>  <Ring Count>
4

>  <Hydrogen Bond Acceptor Count>
7

>  <Hydrogen Bond Donor Count>
1

>  <Rotatable Bond Count>
5

>  <Topological Polar Surface Area>
120.56

>  <Molecular Formula>
C16H17N7O2S

>  <InChI>
InChI=1S/C16H17N7O2S/c1-2-26(24,25)22-9-16(10-22,4-5-17)23-8-12(7-21-23)14-13-3-6-18-15(13)20-11-19-14/h3,6-8,11H,2,4,9-10H2,1H3,(H,18,19,20)

>  <InChI Key>
XUZMWHLSFXCVMG-UHFFFAOYSA-N

>  <BindingDB>
50021656

>  <PubChem>
44205240

>  <ChEMBL>
CHEMBL2105759

$$$$
Compound 1049
Actelion Java MolfileCreator 2.0

  0  0  0  0  0  0              0 V3000
M  V30 BEGIN CTAB
M  V30 COUNTS 26 29 0 0 0
M  V30 BEGIN ATOM
M  V30 1 S 0.0 0.0 0.0 0
M  V30 2 O -0.2234 1.4938 0.0 0
M  V30 3 O 0.1999 -1.4703 0.0 0
M  V30 4 N -1.4938 -0.1999 0.0 0
M  V30 5 C 1.4703 0.2234 0.0 0
M  V30 6 C -2.6936 0.7175 0.0 0
M  V30 7 C -2.4113 -1.3762 0.0 0
M  V30 8 C 2.0231 1.6232 0.0 0
M  V30 9 C -3.6111 -0.4587 0.0 0
M  V30 10 N -4.8109 0.4587 0.0 0
M  V30 11 C -2.7172 0.741 0.0 0
M  V30 12 N -4.7992 1.9643 0.0 0
M  V30 13 C -6.2577 0.0352 0.0 0
M  V30 14 C -1.2468 0.5646 0.0 0
M  V30 15 C -6.2225 2.4701 0.0 0
M  V30 16 C -7.1282 1.2703 0.0 0
M  V30 17 N 0.2234 0.7528 0.0 0
M  V30 18 C -8.6338 1.3056 0.0 0
M  V30 19 N -9.3631 2.6231 0.0 0
M  V30 20 C -9.4219 0.0352 0.0 0
M  V30 21 C -10.8688 2.6583 0.0 0
M  V30 22 C -10.9276 0.0705 0.0 0
M  V30 23 C -8.9985 -1.388 0.0 0
M  V30 24 N -11.6569 1.388 0.0 0
M  V30 25 N -11.4334 -1.3291 0.0 0
M  V30 26 C -10.2336 -2.2349 0.0 0
M  V30 END ATOM
M  V30 BEGIN BOND
M  V30 1 2 1 2
M  V30 2 2 1 3
M  V30 3 1 1 4
M  V30 4 1 1 5
M  V30 5 1 4 6
M  V30 6 1 4 7
M  V30 7 1 5 8
M  V30 8 1 6 9
M  V30 9 1 9 10
M  V30 10 1 9 11
M  V30 11 1 10 12
M  V30 12 1 10 13
M  V30 13 1 11 14
M  V30 14 2 12 15
M  V30 15 2 13 16
M  V30 16 3 14 17
M  V30 17 1 16 18
M  V30 18 2 18 19
M  V30 19 1 18 20
M  V30 20 1 19 21
M  V30 21 2 20 22
M  V30 22 1 20 23
M  V30 23 2 21 24
M  V30 24 1 22 25
M  V30 25 2 23 26
M  V30 26 1 7 9
M  V30 27 1 15 16
M  V30 28 1 22 24
M  V30 29 1 25 26
M  V30 END BOND
M  V30 END CTAB
M  END
>  <Compound ID>
320

>  <Name>
Baricitinib

>  <Uniprot>
P52333

>  <Target>
JAK3

>  <Smiles>
CCS(=O)(=O)N1CC(CC#N)(N2C=C(C3=NC=NC4=C3C=C[NH]4)C=N2)C1

>  <Kd (nM)>


>  <Assay (Kd)>


>  <Ki (nM)>


>  <Assay (Ki)>


>  <IC50 (nM)>
787

>  <Assay (IC50)>
Inhibition of JAK3

>  <EC50 (nM)>


>  <Assay (EC50)>


>  <Article DOI>
10.1021/jm401490p

>  <Molecular Weight>
371.426

>  <Exact Mass>
371.116443784

>  <XLogP3>
-0.46

>  <Heavy Atom Count>
26

>  <Ring Count>
4

>  <Hydrogen Bond Acceptor Count>
7

>  <Hydrogen Bond Donor Count>
1

>  <Rotatable Bond Count>
5

>  <Topological Polar Surface Area>
120.56

>  <Molecular Formula>
C16H17N7O2S

>  <InChI>
InChI=1S/C16H17N7O2S/c1-2-26(24,25)22-9-16(10-22,4-5-17)23-8-12(7-21-23)14-13-3-6-18-15(13)20-11-19-14/h3,6-8,11H,2,4,9-10H2,1H3,(H,18,19,20)

>  <InChI Key>
XUZMWHLSFXCVMG-UHFFFAOYSA-N

>  <BindingDB>
50021656

>  <PubChem>
44205240

>  <ChEMBL>
CHEMBL2105759

$$$$
Compound 1050
Actelion Java MolfileCreator 2.0

  0  0  0  0  0  0              0 V3000
M  V30 BEGIN CTAB
M  V30 COUNTS 34 37 0 0 0
M  V30 BEGIN ATOM
M  V30 1 Cl 0.0 0.0 0.0 0
M  V30 2 C -0.8108 1.2691 0.0 0
M  V30 3 C -0.1292 2.6088 0.0 0
M  V30 4 C -2.315 1.2221 0.0 0
M  V30 5 N -0.9401 3.878 0.0 0
M  V30 6 N 1.3514 2.6793 0.0 0
M  V30 7 N -3.1259 2.4913 0.0 0
M  V30 8 C -2.4443 3.831 0.0 0
M  V30 9 C 2.033 4.019 0.0 0
M  V30 10 N -3.2552 5.1002 0.0 0
M  V30 11 C 1.2221 5.2882 0.0 0
M  V30 12 C 3.5137 4.0896 0.0 0
M  V30 13 C -4.7594 5.0532 0.0 0
M  V30 14 N -0.282 5.2412 0.0 0
M  V30 15 C 1.9037 6.6279 0.0 0
M  V30 16 C 4.1953 5.4292 0.0 0
M  V30 17 C -5.4645 3.737 0.0 0
M  V30 18 C -5.5703 6.3224 0.0 0
M  V30 19 S -1.0929 6.5104 0.0 0
M  V30 20 C 3.3844 6.6984 0.0 0
M  V30 21 O -4.6771 2.4913 0.0 0
M  V30 22 C -6.9687 3.69 0.0 0
M  V30 23 C -7.0745 6.2754 0.0 0
M  V30 24 O 0.1527 7.3213 0.0 0
M  V30 25 O -2.362 5.723 0.0 0
M  V30 26 C -1.9037 7.7796 0.0 0
M  V30 27 C -5.3822 1.1751 0.0 0
M  V30 28 C -7.7796 4.9592 0.0 0
M  V30 29 C -9.2838 4.9122 0.0 0
M  V30 30 C -10.0947 6.1814 0.0 0
M  V30 31 C -9.9889 3.596 0.0 0
M  V30 32 C -11.5989 6.1344 0.0 0
M  V30 33 C -11.4931 3.549 0.0 0
M  V30 34 N -12.304 4.8182 0.0 0
M  V30 END ATOM
M  V30 BEGIN BOND
M  V30 1 1 1 2
M  V30 2 2 2 3
M  V30 3 1 2 4
M  V30 4 1 3 5
M  V30 5 1 3 6
M  V30 6 2 4 7
M  V30 7 2 5 8
M  V30 8 1 6 9
M  V30 9 1 8 10
M  V30 10 2 9 11
M  V30 11 1 9 12
M  V30 12 1 10 13
M  V30 13 1 11 14
M  V30 14 1 11 15
M  V30 15 2 12 16
M  V30 16 2 13 17
M  V30 17 1 13 18
M  V30 18 1 14 19
M  V30 19 2 15 20
M  V30 20 1 17 21
M  V30 21 1 17 22
M  V30 22 2 18 23
M  V30 23 2 19 24
M  V30 24 2 19 25
M  V30 25 1 19 26
M  V30 26 1 21 27
M  V30 27 2 22 28
M  V30 28 1 28 29
M  V30 29 1 29 30
M  V30 30 1 29 31
M  V30 31 1 30 32
M  V30 32 1 31 33
M  V30 33 1 32 34
M  V30 34 1 7 8
M  V30 35 1 16 20
M  V30 36 1 23 28
M  V30 37 1 33 34
M  V30 END BOND
M  V30 END CTAB
M  END
>  <Compound ID>
321

>  <Name>
TRE-069

>  <Uniprot>
P00533

>  <Target>
EGFR del19/T790M/C797S

>  <Smiles>
COC1=CC(C2CCNCC2)=CC=C1NC1=NC=C(Cl)C(NC2=CC=CC=C2NS(C)(=O)=O)=N1

>  <Kd (nM)>


>  <Assay (Kd)>


>  <Ki (nM)>


>  <Assay (Ki)>


>  <IC50 (nM)>
15

>  <Assay (IC50)>
Inhibition of EGFR del19/T790M/C797S

>  <EC50 (nM)>


>  <Assay (EC50)>


>  <Article DOI>
10.1002/bkcs.11886

>  <Molecular Weight>
503.028

>  <Exact Mass>
502.155387404

>  <XLogP3>
3.63

>  <Heavy Atom Count>
34

>  <Ring Count>
4

>  <Hydrogen Bond Acceptor Count>
8

>  <Hydrogen Bond Donor Count>
4

>  <Rotatable Bond Count>
8

>  <Topological Polar Surface Area>
117.27

>  <Molecular Formula>
C23H27ClN6O3S

>  <InChI>
InChI=1S/C23H27ClN6O3S/c1-33-21-13-16(15-9-11-25-12-10-15)7-8-20(21)28-23-26-14-17(24)22(29-23)27-18-5-3-4-6-19(18)30-34(2,31)32/h3-8,13-15,25,30H,9-12H2,1-2H3,(H2,26,27,28,29)

>  <InChI Key>
FJMLHLTVDMXQCW-UHFFFAOYSA-N

>  <BindingDB>


>  <PubChem>
142497242

>  <ChEMBL>


$$$$
Compound 1051
Actelion Java MolfileCreator 2.0

  0  0  0  0  0  0              0 V3000
M  V30 BEGIN CTAB
M  V30 COUNTS 34 37 0 0 0
M  V30 BEGIN ATOM
M  V30 1 Cl 0.0 0.0 0.0 0
M  V30 2 C -0.8108 1.2691 0.0 0
M  V30 3 C -0.1292 2.6088 0.0 0
M  V30 4 C -2.315 1.2221 0.0 0
M  V30 5 N -0.9401 3.878 0.0 0
M  V30 6 N 1.3514 2.6793 0.0 0
M  V30 7 N -3.1259 2.4913 0.0 0
M  V30 8 C -2.4443 3.831 0.0 0
M  V30 9 C 2.033 4.019 0.0 0
M  V30 10 N -3.2552 5.1002 0.0 0
M  V30 11 C 1.2221 5.2882 0.0 0
M  V30 12 C 3.5137 4.0896 0.0 0
M  V30 13 C -4.7594 5.0532 0.0 0
M  V30 14 N -0.282 5.2412 0.0 0
M  V30 15 C 1.9037 6.6279 0.0 0
M  V30 16 C 4.1953 5.4292 0.0 0
M  V30 17 C -5.4645 3.737 0.0 0
M  V30 18 C -5.5703 6.3224 0.0 0
M  V30 19 S -1.0929 6.5104 0.0 0
M  V30 20 C 3.3844 6.6984 0.0 0
M  V30 21 O -4.6771 2.4913 0.0 0
M  V30 22 C -6.9687 3.69 0.0 0
M  V30 23 C -7.0745 6.2754 0.0 0
M  V30 24 O 0.1527 7.3213 0.0 0
M  V30 25 O -2.362 5.723 0.0 0
M  V30 26 C -1.9037 7.7796 0.0 0
M  V30 27 C -5.3822 1.1751 0.0 0
M  V30 28 C -7.7796 4.9592 0.0 0
M  V30 29 C -9.2838 4.9122 0.0 0
M  V30 30 C -10.0947 6.1814 0.0 0
M  V30 31 C -9.9889 3.596 0.0 0
M  V30 32 C -11.5989 6.1344 0.0 0
M  V30 33 C -11.4931 3.549 0.0 0
M  V30 34 N -12.304 4.8182 0.0 0
M  V30 END ATOM
M  V30 BEGIN BOND
M  V30 1 1 1 2
M  V30 2 2 2 3
M  V30 3 1 2 4
M  V30 4 1 3 5
M  V30 5 1 3 6
M  V30 6 2 4 7
M  V30 7 2 5 8
M  V30 8 1 6 9
M  V30 9 1 8 10
M  V30 10 2 9 11
M  V30 11 1 9 12
M  V30 12 1 10 13
M  V30 13 1 11 14
M  V30 14 1 11 15
M  V30 15 2 12 16
M  V30 16 2 13 17
M  V30 17 1 13 18
M  V30 18 1 14 19
M  V30 19 2 15 20
M  V30 20 1 17 21
M  V30 21 1 17 22
M  V30 22 2 18 23
M  V30 23 2 19 24
M  V30 24 2 19 25
M  V30 25 1 19 26
M  V30 26 1 21 27
M  V30 27 2 22 28
M  V30 28 1 28 29
M  V30 29 1 29 30
M  V30 30 1 29 31
M  V30 31 1 30 32
M  V30 32 1 31 33
M  V30 33 1 32 34
M  V30 34 1 7 8
M  V30 35 1 16 20
M  V30 36 1 23 28
M  V30 37 1 33 34
M  V30 END BOND
M  V30 END CTAB
M  END
>  <Compound ID>
321

>  <Name>
TRE-069

>  <Uniprot>
P00533

>  <Target>
EGFR del19/T790M

>  <Smiles>
COC1=CC(C2CCNCC2)=CC=C1NC1=NC=C(Cl)C(NC2=CC=CC=C2NS(C)(=O)=O)=N1

>  <Kd (nM)>


>  <Assay (Kd)>


>  <Ki (nM)>


>  <Assay (Ki)>


>  <IC50 (nM)>
16

>  <Assay (IC50)>
Inhibition of EGFR del19/T790M

>  <EC50 (nM)>


>  <Assay (EC50)>


>  <Article DOI>
10.1002/bkcs.11886

>  <Molecular Weight>
503.028

>  <Exact Mass>
502.155387404

>  <XLogP3>
3.63

>  <Heavy Atom Count>
34

>  <Ring Count>
4

>  <Hydrogen Bond Acceptor Count>
8

>  <Hydrogen Bond Donor Count>
4

>  <Rotatable Bond Count>
8

>  <Topological Polar Surface Area>
117.27

>  <Molecular Formula>
C23H27ClN6O3S

>  <InChI>
InChI=1S/C23H27ClN6O3S/c1-33-21-13-16(15-9-11-25-12-10-15)7-8-20(21)28-23-26-14-17(24)22(29-23)27-18-5-3-4-6-19(18)30-34(2,31)32/h3-8,13-15,25,30H,9-12H2,1-2H3,(H2,26,27,28,29)

>  <InChI Key>
FJMLHLTVDMXQCW-UHFFFAOYSA-N

>  <BindingDB>


>  <PubChem>
142497242

>  <ChEMBL>


$$$$
Compound 1052
Actelion Java MolfileCreator 2.0

  0  0  0  0  0  0              0 V3000
M  V30 BEGIN CTAB
M  V30 COUNTS 34 37 0 0 0
M  V30 BEGIN ATOM
M  V30 1 Cl 0.0 0.0 0.0 0
M  V30 2 C -0.8108 1.2691 0.0 0
M  V30 3 C -0.1292 2.6088 0.0 0
M  V30 4 C -2.315 1.2221 0.0 0
M  V30 5 N -0.9401 3.878 0.0 0
M  V30 6 N 1.3514 2.6793 0.0 0
M  V30 7 N -3.1259 2.4913 0.0 0
M  V30 8 C -2.4443 3.831 0.0 0
M  V30 9 C 2.033 4.019 0.0 0
M  V30 10 N -3.2552 5.1002 0.0 0
M  V30 11 C 1.2221 5.2882 0.0 0
M  V30 12 C 3.5137 4.0896 0.0 0
M  V30 13 C -4.7594 5.0532 0.0 0
M  V30 14 N -0.282 5.2412 0.0 0
M  V30 15 C 1.9037 6.6279 0.0 0
M  V30 16 C 4.1953 5.4292 0.0 0
M  V30 17 C -5.4645 3.737 0.0 0
M  V30 18 C -5.5703 6.3224 0.0 0
M  V30 19 S -1.0929 6.5104 0.0 0
M  V30 20 C 3.3844 6.6984 0.0 0
M  V30 21 O -4.6771 2.4913 0.0 0
M  V30 22 C -6.9687 3.69 0.0 0
M  V30 23 C -7.0745 6.2754 0.0 0
M  V30 24 O 0.1527 7.3213 0.0 0
M  V30 25 O -2.362 5.723 0.0 0
M  V30 26 C -1.9037 7.7796 0.0 0
M  V30 27 C -5.3822 1.1751 0.0 0
M  V30 28 C -7.7796 4.9592 0.0 0
M  V30 29 C -9.2838 4.9122 0.0 0
M  V30 30 C -10.0947 6.1814 0.0 0
M  V30 31 C -9.9889 3.596 0.0 0
M  V30 32 C -11.5989 6.1344 0.0 0
M  V30 33 C -11.4931 3.549 0.0 0
M  V30 34 N -12.304 4.8182 0.0 0
M  V30 END ATOM
M  V30 BEGIN BOND
M  V30 1 1 1 2
M  V30 2 2 2 3
M  V30 3 1 2 4
M  V30 4 1 3 5
M  V30 5 1 3 6
M  V30 6 2 4 7
M  V30 7 2 5 8
M  V30 8 1 6 9
M  V30 9 1 8 10
M  V30 10 2 9 11
M  V30 11 1 9 12
M  V30 12 1 10 13
M  V30 13 1 11 14
M  V30 14 1 11 15
M  V30 15 2 12 16
M  V30 16 2 13 17
M  V30 17 1 13 18
M  V30 18 1 14 19
M  V30 19 2 15 20
M  V30 20 1 17 21
M  V30 21 1 17 22
M  V30 22 2 18 23
M  V30 23 2 19 24
M  V30 24 2 19 25
M  V30 25 1 19 26
M  V30 26 1 21 27
M  V30 27 2 22 28
M  V30 28 1 28 29
M  V30 29 1 29 30
M  V30 30 1 29 31
M  V30 31 1 30 32
M  V30 32 1 31 33
M  V30 33 1 32 34
M  V30 34 1 7 8
M  V30 35 1 16 20
M  V30 36 1 23 28
M  V30 37 1 33 34
M  V30 END BOND
M  V30 END CTAB
M  END
>  <Compound ID>
321

>  <Name>
TRE-069

>  <Uniprot>
P00533

>  <Target>
EGFR e19d

>  <Smiles>
COC1=CC(C2CCNCC2)=CC=C1NC1=NC=C(Cl)C(NC2=CC=CC=C2NS(C)(=O)=O)=N1

>  <Kd (nM)>


>  <Assay (Kd)>


>  <Ki (nM)>


>  <Assay (Ki)>


>  <IC50 (nM)>
20

>  <Assay (IC50)>
Inhibition of EGFR del19

>  <EC50 (nM)>


>  <Assay (EC50)>


>  <Article DOI>
10.1002/bkcs.11886

>  <Molecular Weight>
503.028

>  <Exact Mass>
502.155387404

>  <XLogP3>
3.63

>  <Heavy Atom Count>
34

>  <Ring Count>
4

>  <Hydrogen Bond Acceptor Count>
8

>  <Hydrogen Bond Donor Count>
4

>  <Rotatable Bond Count>
8

>  <Topological Polar Surface Area>
117.27

>  <Molecular Formula>
C23H27ClN6O3S

>  <InChI>
InChI=1S/C23H27ClN6O3S/c1-33-21-13-16(15-9-11-25-12-10-15)7-8-20(21)28-23-26-14-17(24)22(29-23)27-18-5-3-4-6-19(18)30-34(2,31)32/h3-8,13-15,25,30H,9-12H2,1-2H3,(H2,26,27,28,29)

>  <InChI Key>
FJMLHLTVDMXQCW-UHFFFAOYSA-N

>  <BindingDB>


>  <PubChem>
142497242

>  <ChEMBL>


$$$$
Compound 1053
Actelion Java MolfileCreator 2.0

  0  0  0  0  0  0              0 V3000
M  V30 BEGIN CTAB
M  V30 COUNTS 34 37 0 0 0
M  V30 BEGIN ATOM
M  V30 1 Cl 0.0 0.0 0.0 0
M  V30 2 C -0.8108 1.2691 0.0 0
M  V30 3 C -0.1292 2.6088 0.0 0
M  V30 4 C -2.315 1.2221 0.0 0
M  V30 5 N -0.9401 3.878 0.0 0
M  V30 6 N 1.3514 2.6793 0.0 0
M  V30 7 N -3.1259 2.4913 0.0 0
M  V30 8 C -2.4443 3.831 0.0 0
M  V30 9 C 2.033 4.019 0.0 0
M  V30 10 N -3.2552 5.1002 0.0 0
M  V30 11 C 1.2221 5.2882 0.0 0
M  V30 12 C 3.5137 4.0896 0.0 0
M  V30 13 C -4.7594 5.0532 0.0 0
M  V30 14 N -0.282 5.2412 0.0 0
M  V30 15 C 1.9037 6.6279 0.0 0
M  V30 16 C 4.1953 5.4292 0.0 0
M  V30 17 C -5.4645 3.737 0.0 0
M  V30 18 C -5.5703 6.3224 0.0 0
M  V30 19 S -1.0929 6.5104 0.0 0
M  V30 20 C 3.3844 6.6984 0.0 0
M  V30 21 O -4.6771 2.4913 0.0 0
M  V30 22 C -6.9687 3.69 0.0 0
M  V30 23 C -7.0745 6.2754 0.0 0
M  V30 24 O 0.1527 7.3213 0.0 0
M  V30 25 O -2.362 5.723 0.0 0
M  V30 26 C -1.9037 7.7796 0.0 0
M  V30 27 C -5.3822 1.1751 0.0 0
M  V30 28 C -7.7796 4.9592 0.0 0
M  V30 29 C -9.2838 4.9122 0.0 0
M  V30 30 C -10.0947 6.1814 0.0 0
M  V30 31 C -9.9889 3.596 0.0 0
M  V30 32 C -11.5989 6.1344 0.0 0
M  V30 33 C -11.4931 3.549 0.0 0
M  V30 34 N -12.304 4.8182 0.0 0
M  V30 END ATOM
M  V30 BEGIN BOND
M  V30 1 1 1 2
M  V30 2 2 2 3
M  V30 3 1 2 4
M  V30 4 1 3 5
M  V30 5 1 3 6
M  V30 6 2 4 7
M  V30 7 2 5 8
M  V30 8 1 6 9
M  V30 9 1 8 10
M  V30 10 2 9 11
M  V30 11 1 9 12
M  V30 12 1 10 13
M  V30 13 1 11 14
M  V30 14 1 11 15
M  V30 15 2 12 16
M  V30 16 2 13 17
M  V30 17 1 13 18
M  V30 18 1 14 19
M  V30 19 2 15 20
M  V30 20 1 17 21
M  V30 21 1 17 22
M  V30 22 2 18 23
M  V30 23 2 19 24
M  V30 24 2 19 25
M  V30 25 1 19 26
M  V30 26 1 21 27
M  V30 27 2 22 28
M  V30 28 1 28 29
M  V30 29 1 29 30
M  V30 30 1 29 31
M  V30 31 1 30 32
M  V30 32 1 31 33
M  V30 33 1 32 34
M  V30 34 1 7 8
M  V30 35 1 16 20
M  V30 36 1 23 28
M  V30 37 1 33 34
M  V30 END BOND
M  V30 END CTAB
M  END
>  <Compound ID>
321

>  <Name>
TRE-069

>  <Uniprot>
P00533

>  <Target>
EGFR

>  <Smiles>
COC1=CC(C2CCNCC2)=CC=C1NC1=NC=C(Cl)C(NC2=CC=CC=C2NS(C)(=O)=O)=N1

>  <Kd (nM)>


>  <Assay (Kd)>


>  <Ki (nM)>


>  <Assay (Ki)>


>  <IC50 (nM)>
2100

>  <Assay (IC50)>
Inhibition of EGFR

>  <EC50 (nM)>


>  <Assay (EC50)>


>  <Article DOI>
10.1002/bkcs.11886

>  <Molecular Weight>
503.028

>  <Exact Mass>
502.155387404

>  <XLogP3>
3.63

>  <Heavy Atom Count>
34

>  <Ring Count>
4

>  <Hydrogen Bond Acceptor Count>
8

>  <Hydrogen Bond Donor Count>
4

>  <Rotatable Bond Count>
8

>  <Topological Polar Surface Area>
117.27

>  <Molecular Formula>
C23H27ClN6O3S

>  <InChI>
InChI=1S/C23H27ClN6O3S/c1-33-21-13-16(15-9-11-25-12-10-15)7-8-20(21)28-23-26-14-17(24)22(29-23)27-18-5-3-4-6-19(18)30-34(2,31)32/h3-8,13-15,25,30H,9-12H2,1-2H3,(H2,26,27,28,29)

>  <InChI Key>
FJMLHLTVDMXQCW-UHFFFAOYSA-N

>  <BindingDB>


>  <PubChem>
142497242

>  <ChEMBL>


$$$$
Compound 1054
Actelion Java MolfileCreator 2.0

  0  0  0  0  0  0              0 V3000
M  V30 BEGIN CTAB
M  V30 COUNTS 58 63 0 0 0
M  V30 BEGIN ATOM
M  V30 1 P 0.0 0.0 0.0 0
M  V30 2 O 0.1885 1.4968 0.0 0
M  V30 3 O 1.4732 -0.1885 0.0 0
M  V30 4 O -1.4968 0.2121 0.0 0
M  V30 5 C -0.2121 -1.4732 0.0 0
M  V30 6 O 0.9546 -2.3807 0.0 0
M  V30 7 C -1.6146 -2.0272 0.0 0
M  V30 8 C -1.8268 -3.5004 0.0 0
M  V30 9 C -2.805 -1.0961 0.0 0
M  V30 10 C -3.2293 -4.0544 0.0 0
M  V30 11 C -4.2076 -1.65 0.0 0
M  V30 12 C -4.4197 -3.1233 0.0 0
M  V30 13 C -3.7479 -5.4569 0.0 0
M  V30 14 N -5.6691 -3.9483 0.0 0
M  V30 15 C -5.2566 -5.398 0.0 0
M  V30 16 C -6.1877 -6.5648 0.0 0
M  V30 17 O -5.6337 -7.9438 0.0 0
M  V30 18 N -7.6845 -6.3527 0.0 0
M  V30 19 C -8.6156 -7.5195 0.0 0 CFG=2
M  V30 20 C -10.0771 -7.107 0.0 0
M  V30 21 C -7.8849 -8.8042 0.0 0
M  V30 22 O -10.2774 -5.6101 0.0 0
M  V30 23 N -11.3853 -7.8377 0.0 0
M  V30 24 N -8.2974 -10.2421 0.0 0
M  V30 25 C -12.6465 -7.0009 0.0 0 CFG=2
M  V30 26 C -11.7979 -9.2756 0.0 0 CFG=1
M  V30 27 C -7.1305 -11.1496 0.0 0
M  V30 28 C -9.6056 -10.9728 0.0 0
M  V30 29 C -12.729 -5.4923 0.0 0
M  V30 30 C -13.8251 -7.9202 0.0 0
M  V30 31 C -11.0671 -10.5603 0.0 0
M  V30 32 C -13.3065 -9.3346 0.0 0
M  V30 33 O -5.7516 -10.5721 0.0 0
M  V30 34 C -7.3427 -12.6229 0.0 0
M  V30 35 O -11.4796 -4.6673 0.0 0
M  V30 36 N -14.0726 -4.7969 0.0 0
M  V30 37 C -14.1551 -3.2883 0.0 0 CFG=2
M  V30 38 C -12.9057 -2.4632 0.0 0
M  V30 39 C -15.4987 -2.5929 0.0 0
M  V30 40 O -11.5857 -3.1351 0.0 0
M  V30 41 N -12.9882 -0.9546 0.0 0
M  V30 42 C -15.5812 -1.0843 0.0 0
M  V30 43 C -11.7389 -0.1296 0.0 0
M  V30 44 C -16.9248 -0.3889 0.0 0
M  V30 45 C -11.8214 1.3789 0.0 0
M  V30 46 C -10.4189 -0.8014 0.0 0
M  V30 47 O -18.1977 -1.1903 0.0 0
M  V30 48 N -17.0073 1.1196 0.0 0
M  V30 49 C -10.5721 2.204 0.0 0
M  V30 50 C -13.165 2.0743 0.0 0
M  V30 51 C -10.3599 -2.2865 0.0 0
M  V30 52 C -9.1695 0.0235 0.0 0
M  V30 53 C -10.6546 3.7126 0.0 0
M  V30 54 C -13.2475 3.5829 0.0 0
M  V30 55 C -9.0399 -2.9583 0.0 0
M  V30 56 C -7.8495 -0.6482 0.0 0
M  V30 57 C -11.9982 4.408 0.0 0
M  V30 58 C -7.7906 -2.1332 0.0 0
M  V30 END ATOM
M  V30 BEGIN BOND
M  V30 1 2 1 2
M  V30 2 1 1 3
M  V30 3 1 1 4
M  V30 4 1 1 5
M  V30 5 2 5 6
M  V30 6 1 5 7
M  V30 7 2 7 8
M  V30 8 1 7 9
M  V30 9 1 8 10
M  V30 10 2 9 11
M  V30 11 2 10 12
M  V30 12 1 10 13
M  V30 13 1 12 14
M  V30 14 2 13 15
M  V30 15 1 15 16
M  V30 16 2 16 17
M  V30 17 1 16 18
M  V30 18 1 19 18 CFG=1
M  V30 19 1 19 20
M  V30 20 1 19 21
M  V30 21 2 20 22
M  V30 22 1 20 23
M  V30 23 1 21 24
M  V30 24 1 23 25
M  V30 25 1 26 23 CFG=1
M  V30 26 1 24 27
M  V30 27 1 24 28
M  V30 28 1 25 29 CFG=1
M  V30 29 1 25 30
M  V30 30 1 26 31
M  V30 31 1 26 32
M  V30 32 2 27 33
M  V30 33 1 27 34
M  V30 34 2 29 35
M  V30 35 1 29 36
M  V30 36 1 37 36 CFG=1
M  V30 37 1 37 38
M  V30 38 1 37 39
M  V30 39 2 38 40
M  V30 40 1 38 41
M  V30 41 1 39 42
M  V30 42 1 41 43
M  V30 43 1 42 44
M  V30 44 1 43 45
M  V30 45 1 43 46
M  V30 46 2 44 47
M  V30 47 1 44 48
M  V30 48 2 45 49
M  V30 49 1 45 50
M  V30 50 2 46 51
M  V30 51 1 46 52
M  V30 52 1 49 53
M  V30 53 2 50 54
M  V30 54 1 51 55
M  V30 55 2 52 56
M  V30 56 2 53 57
M  V30 57 2 55 58
M  V30 58 1 11 12
M  V30 59 1 14 15
M  V30 60 1 28 31
M  V30 61 1 30 32
M  V30 62 1 54 57
M  V30 63 1 56 58
M  V30 END BOND
M  V30 BEGIN COLLECTION
M  V30 MDLV30/STEABS ATOMS=(4 19 25 26 37)
M  V30 END COLLECTION
M  V30 END CTAB
M  END
>  <Compound ID>
322

>  <Name>
SI-191

>  <Uniprot>
P40763

>  <Target>
STAT3

>  <Smiles>
CC(=O)N1CC[C@H]2CC[C@@H](C(=O)N[C@@H](CCC(N)=O)C(=O)NC(C3=CC=CC=C3)C3=CC=CC=C3)N2C(=O)[C@@H](NC(=O)C2=CC3=CC(C(=O)P(=O)(O)O)=CC=C3[NH]2)C1

>  <Kd (nM)>


>  <Assay (Kd)>


>  <Ki (nM)>


>  <Assay (Ki)>


>  <IC50 (nM)>


>  <Assay (IC50)>


>  <EC50 (nM)>


>  <Assay (EC50)>


>  <Article DOI>
10.1021/acsmedchemlett.1c00155

>  <Molecular Weight>
813.805

>  <Exact Mass>
813.288727238

>  <XLogP3>
0.48

>  <Heavy Atom Count>
58

>  <Ring Count>
6

>  <Hydrogen Bond Acceptor Count>
8

>  <Hydrogen Bond Donor Count>
7

>  <Rotatable Bond Count>
13

>  <Topological Polar Surface Area>
261.4

>  <Molecular Formula>
C40H44N7O10P

>  <InChI>
InChI=1S/C40H44N7O10P/c1-23(48)46-19-18-28-13-16-33(38(52)43-30(15-17-34(41)49)36(50)45-35(24-8-4-2-5-9-24)25-10-6-3-7-11-25)47(28)39(53)32(22-46)44-37(51)31-21-27-20-26(12-14-29(27)42-31)40(54)58(55,56)57/h2-12,14,20-21,28,30,32-33,35,42H,13,15-19,22H2,1H3,(H2,41,49)(H,43,52)(H,44,51)(H,45,50)(H2,55,56,57)/t28-,30+,32+,33+/m1/s1

>  <InChI Key>
CBDWACUWZACOQO-VUCLUUCHSA-N

>  <BindingDB>


>  <PubChem>
162675356

>  <ChEMBL>
CHEMBL4796524

$$$$
Compound 1055
Actelion Java MolfileCreator 2.0

  0  0  0  0  0  0              0 V3000
M  V30 BEGIN CTAB
M  V30 COUNTS 38 41 0 0 0
M  V30 BEGIN ATOM
M  V30 1 Cl 0.0 0.0 0.0 0
M  V30 2 C 0.9314 1.1759 0.0 0
M  V30 3 C 0.3842 2.5848 0.0 0
M  V30 4 C 2.3985 0.9547 0.0 0
M  V30 5 N -1.1061 2.8293 0.0 0
M  V30 6 C 1.3157 3.7608 0.0 0
M  V30 7 O 2.9225 -0.4308 0.0 0
M  V30 8 C 3.33 2.1307 0.0 0
M  V30 9 C -1.6533 4.2382 0.0 0
M  V30 10 Cl 0.7684 5.1697 0.0 0
M  V30 11 C 2.7828 3.5396 0.0 0
M  V30 12 C 4.3896 -0.652 0.0 0
M  V30 13 O -0.7219 5.4142 0.0 0
M  V30 14 N -3.1437 4.4827 0.0 0
M  V30 15 O 3.7142 4.7156 0.0 0
M  V30 16 C -3.691 5.8916 0.0 0
M  V30 17 C -4.0985 3.33 0.0 0
M  V30 18 C 5.1813 4.4944 0.0 0
M  V30 19 N -2.7595 7.0676 0.0 0
M  V30 20 C -5.1813 6.1361 0.0 0
M  V30 21 C -3.3067 8.4765 0.0 0
M  V30 22 C -5.7286 7.545 0.0 0
M  V30 23 N -4.7971 8.721 0.0 0
M  V30 24 N -7.219 7.7895 0.0 0
M  V30 25 C -8.1737 6.6368 0.0 0
M  V30 26 C -7.6498 5.2512 0.0 0
M  V30 27 C -9.6641 6.8813 0.0 0
M  V30 28 C -8.6045 4.0985 0.0 0
M  V30 29 C -10.6189 5.7286 0.0 0
M  V30 30 C -10.0949 4.343 0.0 0
M  V30 31 N -11.0497 3.1903 0.0 0
M  V30 32 C -12.5401 3.4348 0.0 0
M  V30 33 C -10.5257 1.8047 0.0 0
M  V30 34 C -13.4948 2.2821 0.0 0
M  V30 35 C -11.4805 0.652 0.0 0
M  V30 36 N -12.9709 0.8965 0.0 0
M  V30 37 C -13.9256 -0.2561 0.0 0
M  V30 38 C -15.416 -0.0116 0.0 0
M  V30 END ATOM
M  V30 BEGIN BOND
M  V30 1 1 1 2
M  V30 2 2 2 3
M  V30 3 1 2 4
M  V30 4 1 3 5
M  V30 5 1 3 6
M  V30 6 1 4 7
M  V30 7 2 4 8
M  V30 8 1 5 9
M  V30 9 1 6 10
M  V30 10 2 6 11
M  V30 11 1 7 12
M  V30 12 2 9 13
M  V30 13 1 9 14
M  V30 14 1 11 15
M  V30 15 1 14 16
M  V30 16 1 14 17
M  V30 17 1 15 18
M  V30 18 2 16 19
M  V30 19 1 16 20
M  V30 20 1 19 21
M  V30 21 2 20 22
M  V30 22 2 21 23
M  V30 23 1 22 24
M  V30 24 1 24 25
M  V30 25 2 25 26
M  V30 26 1 25 27
M  V30 27 1 26 28
M  V30 28 2 27 29
M  V30 29 2 28 30
M  V30 30 1 30 31
M  V30 31 1 31 32
M  V30 32 1 31 33
M  V30 33 1 32 34
M  V30 34 1 33 35
M  V30 35 1 34 36
M  V30 36 1 36 37
M  V30 37 1 37 38
M  V30 38 1 8 11
M  V30 39 1 22 23
M  V30 40 1 29 30
M  V30 41 1 35 36
M  V30 END BOND
M  V30 END CTAB
M  END
>  <Compound ID>
323

>  <Name>
BGJ398

>  <Uniprot>
P11362

>  <Target>
FGFR1

>  <Smiles>
CCN1CCN(C2=CC=C(NC3=CC(N(C)C(=O)NC4=C(Cl)C(OC)=CC(OC)=C4Cl)=NC=N3)C=C2)CC1

>  <Kd (nM)>


>  <Assay (Kd)>


>  <Ki (nM)>


>  <Assay (Ki)>


>  <IC50 (nM)>
0.9

>  <Assay (IC50)>
Inhibition of FGFR1

>  <EC50 (nM)>


>  <Assay (EC50)>


>  <Article DOI>
10.1021/jm2006222

>  <Molecular Weight>
560.486

>  <Exact Mass>
559.186543212

>  <XLogP3>
4.66

>  <Heavy Atom Count>
38

>  <Ring Count>
4

>  <Hydrogen Bond Acceptor Count>
8

>  <Hydrogen Bond Donor Count>
2

>  <Rotatable Bond Count>
8

>  <Topological Polar Surface Area>
95.09

>  <Molecular Formula>
C26H31Cl2N7O3

>  <InChI>
InChI=1S/C26H31Cl2N7O3/c1-5-34-10-12-35(13-11-34)18-8-6-17(7-9-18)31-21-15-22(30-16-29-21)33(2)26(36)32-25-23(27)19(37-3)14-20(38-4)24(25)28/h6-9,14-16H,5,10-13H2,1-4H3,(H,32,36)(H,29,30,31)

>  <InChI Key>
QADPYRIHXKWUSV-UHFFFAOYSA-N

>  <BindingDB>
50355393

>  <PubChem>
53235510

>  <ChEMBL>
CHEMBL1834657

$$$$
Compound 1056
Actelion Java MolfileCreator 2.0

  0  0  0  0  0  0              0 V3000
M  V30 BEGIN CTAB
M  V30 COUNTS 38 41 0 0 0
M  V30 BEGIN ATOM
M  V30 1 Cl 0.0 0.0 0.0 0
M  V30 2 C 0.9314 1.1759 0.0 0
M  V30 3 C 0.3842 2.5848 0.0 0
M  V30 4 C 2.3985 0.9547 0.0 0
M  V30 5 N -1.1061 2.8293 0.0 0
M  V30 6 C 1.3157 3.7608 0.0 0
M  V30 7 O 2.9225 -0.4308 0.0 0
M  V30 8 C 3.33 2.1307 0.0 0
M  V30 9 C -1.6533 4.2382 0.0 0
M  V30 10 Cl 0.7684 5.1697 0.0 0
M  V30 11 C 2.7828 3.5396 0.0 0
M  V30 12 C 4.3896 -0.652 0.0 0
M  V30 13 O -0.7219 5.4142 0.0 0
M  V30 14 N -3.1437 4.4827 0.0 0
M  V30 15 O 3.7142 4.7156 0.0 0
M  V30 16 C -3.691 5.8916 0.0 0
M  V30 17 C -4.0985 3.33 0.0 0
M  V30 18 C 5.1813 4.4944 0.0 0
M  V30 19 N -2.7595 7.0676 0.0 0
M  V30 20 C -5.1813 6.1361 0.0 0
M  V30 21 C -3.3067 8.4765 0.0 0
M  V30 22 C -5.7286 7.545 0.0 0
M  V30 23 N -4.7971 8.721 0.0 0
M  V30 24 N -7.219 7.7895 0.0 0
M  V30 25 C -8.1737 6.6368 0.0 0
M  V30 26 C -7.6498 5.2512 0.0 0
M  V30 27 C -9.6641 6.8813 0.0 0
M  V30 28 C -8.6045 4.0985 0.0 0
M  V30 29 C -10.6189 5.7286 0.0 0
M  V30 30 C -10.0949 4.343 0.0 0
M  V30 31 N -11.0497 3.1903 0.0 0
M  V30 32 C -12.5401 3.4348 0.0 0
M  V30 33 C -10.5257 1.8047 0.0 0
M  V30 34 C -13.4948 2.2821 0.0 0
M  V30 35 C -11.4805 0.652 0.0 0
M  V30 36 N -12.9709 0.8965 0.0 0
M  V30 37 C -13.9256 -0.2561 0.0 0
M  V30 38 C -15.416 -0.0116 0.0 0
M  V30 END ATOM
M  V30 BEGIN BOND
M  V30 1 1 1 2
M  V30 2 2 2 3
M  V30 3 1 2 4
M  V30 4 1 3 5
M  V30 5 1 3 6
M  V30 6 1 4 7
M  V30 7 2 4 8
M  V30 8 1 5 9
M  V30 9 1 6 10
M  V30 10 2 6 11
M  V30 11 1 7 12
M  V30 12 2 9 13
M  V30 13 1 9 14
M  V30 14 1 11 15
M  V30 15 1 14 16
M  V30 16 1 14 17
M  V30 17 1 15 18
M  V30 18 2 16 19
M  V30 19 1 16 20
M  V30 20 1 19 21
M  V30 21 2 20 22
M  V30 22 2 21 23
M  V30 23 1 22 24
M  V30 24 1 24 25
M  V30 25 2 25 26
M  V30 26 1 25 27
M  V30 27 1 26 28
M  V30 28 2 27 29
M  V30 29 2 28 30
M  V30 30 1 30 31
M  V30 31 1 31 32
M  V30 32 1 31 33
M  V30 33 1 32 34
M  V30 34 1 33 35
M  V30 35 1 34 36
M  V30 36 1 36 37
M  V30 37 1 37 38
M  V30 38 1 8 11
M  V30 39 1 22 23
M  V30 40 1 29 30
M  V30 41 1 35 36
M  V30 END BOND
M  V30 END CTAB
M  END
>  <Compound ID>
323

>  <Name>
BGJ398

>  <Uniprot>
P21802

>  <Target>
FGFR2

>  <Smiles>
CCN1CCN(C2=CC=C(NC3=CC(N(C)C(=O)NC4=C(Cl)C(OC)=CC(OC)=C4Cl)=NC=N3)C=C2)CC1

>  <Kd (nM)>


>  <Assay (Kd)>


>  <Ki (nM)>


>  <Assay (Ki)>


>  <IC50 (nM)>
1.4

>  <Assay (IC50)>
Inhibition of FGFR2

>  <EC50 (nM)>


>  <Assay (EC50)>


>  <Article DOI>
10.1021/jm2006222

>  <Molecular Weight>
560.486

>  <Exact Mass>
559.186543212

>  <XLogP3>
4.66

>  <Heavy Atom Count>
38

>  <Ring Count>
4

>  <Hydrogen Bond Acceptor Count>
8

>  <Hydrogen Bond Donor Count>
2

>  <Rotatable Bond Count>
8

>  <Topological Polar Surface Area>
95.09

>  <Molecular Formula>
C26H31Cl2N7O3

>  <InChI>
InChI=1S/C26H31Cl2N7O3/c1-5-34-10-12-35(13-11-34)18-8-6-17(7-9-18)31-21-15-22(30-16-29-21)33(2)26(36)32-25-23(27)19(37-3)14-20(38-4)24(25)28/h6-9,14-16H,5,10-13H2,1-4H3,(H,32,36)(H,29,30,31)

>  <InChI Key>
QADPYRIHXKWUSV-UHFFFAOYSA-N

>  <BindingDB>
50355393

>  <PubChem>
53235510

>  <ChEMBL>
CHEMBL1834657

$$$$
Compound 1057
Actelion Java MolfileCreator 2.0

  0  0  0  0  0  0              0 V3000
M  V30 BEGIN CTAB
M  V30 COUNTS 47 52 0 0 0
M  V30 BEGIN ATOM
M  V30 1 O 0.0 0.0 0.0 0
M  V30 2 C 1.2172 -0.8508 0.0 0
M  V30 3 N 1.0753 -2.3398 0.0 0
M  V30 4 N 2.5762 -0.2008 0.0 0
M  V30 5 C -0.3072 -2.9662 0.0 0
M  V30 6 C 2.2926 -3.1907 0.0 0
M  V30 7 C 3.7934 -1.0517 0.0 0
M  V30 8 C 2.6943 1.3117 0.0 0
M  V30 9 C -1.548 -2.0917 0.0 0
M  V30 10 C -0.449 -4.4552 0.0 0
M  V30 11 C 3.6516 -2.5407 0.0 0
M  V30 12 N 5.1524 -0.4017 0.0 0
M  V30 13 C 4.0534 1.9617 0.0 0
M  V30 14 C -2.9307 -2.718 0.0 0
M  V30 15 C -1.8317 -5.0815 0.0 0
M  V30 16 C 4.8688 -3.3916 0.0 0
M  V30 17 C 6.3696 -1.2526 0.0 0
M  V30 18 C 5.2706 1.1108 0.0 0
M  V30 19 C 4.1715 3.4743 0.0 0
M  V30 20 O -4.1715 -1.8435 0.0 0
M  V30 21 C -3.0725 -4.207 0.0 0
M  V30 22 O -1.9735 -6.5705 0.0 0
M  V30 23 N 6.2278 -2.7416 0.0 0
M  V30 24 N 7.7286 -0.6026 0.0 0
M  V30 25 C 6.6296 1.7608 0.0 0
M  V30 26 C 5.5306 4.1243 0.0 0
M  V30 27 C -4.0534 -0.3308 0.0 0
M  V30 28 C -3.3561 -7.1968 0.0 0
M  V30 29 C 8.9458 -1.4535 0.0 0
M  V30 30 C 6.7478 3.2734 0.0 0
M  V30 31 C 8.804 -2.9425 0.0 0
M  V30 32 C 10.3048 -0.8035 0.0 0
M  V30 33 N 8.1068 3.9234 0.0 0
M  V30 34 C 10.0212 -3.7934 0.0 0
M  V30 35 C 11.5221 -1.6544 0.0 0
M  V30 36 C 9.324 3.0725 0.0 0
M  V30 37 C 11.3802 -3.1434 0.0 0
M  V30 38 O 9.1822 1.5835 0.0 0
M  V30 39 C 10.683 3.7225 0.0 0
M  V30 40 N 12.5974 -3.9943 0.0 0
M  V30 41 C 11.9002 2.8716 0.0 0
M  V30 42 C 12.4556 -5.4833 0.0 0
M  V30 43 C 13.9565 -3.3443 0.0 0
M  V30 44 C 13.6728 -6.3342 0.0 0
M  V30 45 C 15.1737 -4.1952 0.0 0
M  V30 46 N 15.0319 -5.6842 0.0 0
M  V30 47 C 16.2491 -6.535 0.0 0
M  V30 END ATOM
M  V30 BEGIN BOND
M  V30 1 2 1 2
M  V30 2 1 2 3
M  V30 3 1 2 4
M  V30 4 1 3 5
M  V30 5 1 3 6
M  V30 6 1 4 7
M  V30 7 1 4 8
M  V30 8 2 5 9
M  V30 9 1 5 10
M  V30 10 1 6 11
M  V30 11 1 7 12
M  V30 12 1 8 13
M  V30 13 1 9 14
M  V30 14 2 10 15
M  V30 15 1 11 16
M  V30 16 2 12 17
M  V30 17 2 13 18
M  V30 18 1 13 19
M  V30 19 1 14 20
M  V30 20 2 14 21
M  V30 21 1 15 22
M  V30 22 2 16 23
M  V30 23 1 17 24
M  V30 24 1 18 25
M  V30 25 2 19 26
M  V30 26 1 20 27
M  V30 27 1 22 28
M  V30 28 1 24 29
M  V30 29 2 25 30
M  V30 30 2 29 31
M  V30 31 1 29 32
M  V30 32 1 30 33
M  V30 33 1 31 34
M  V30 34 2 32 35
M  V30 35 1 33 36
M  V30 36 2 34 37
M  V30 37 2 36 38
M  V30 38 1 36 39
M  V30 39 1 37 40
M  V30 40 2 39 41
M  V30 41 1 40 42
M  V30 42 1 40 43
M  V30 43 1 42 44
M  V30 44 1 43 45
M  V30 45 1 44 46
M  V30 46 1 46 47
M  V30 47 2 7 11
M  V30 48 1 15 21
M  V30 49 1 17 23
M  V30 50 1 26 30
M  V30 51 1 35 37
M  V30 52 1 45 46
M  V30 END BOND
M  V30 END CTAB
M  END
>  <Compound ID>
324

>  <Name>
FIIN-2

>  <Uniprot>
P11362

>  <Target>
FGFR1

>  <Smiles>
C=CC(=O)NC1=CC=C(CN2C(=O)N(C3=CC(OC)=CC(OC)=C3)CC3=CN=C(NC4=CC=C(N5CCN(C)CC5)C=C4)N=C32)C=C1

>  <Kd (nM)>


>  <Assay (Kd)>


>  <Ki (nM)>


>  <Assay (Ki)>


>  <IC50 (nM)>
1

>  <Assay (IC50)>
Inhibition of FGFR1

>  <EC50 (nM)>


>  <Assay (EC50)>


>  <Article DOI>
10.1016/j.ejmech.2016.11.052

>  <Molecular Weight>
634.741

>  <Exact Mass>
634.301601696

>  <XLogP3>
4.05

>  <Heavy Atom Count>
47

>  <Ring Count>
6

>  <Hydrogen Bond Acceptor Count>
9

>  <Hydrogen Bond Donor Count>
2

>  <Rotatable Bond Count>
10

>  <Topological Polar Surface Area>
115.4

>  <Molecular Formula>
C35H38N8O4

>  <InChI>
InChI=1S/C35H38N8O4/c1-5-32(44)37-26-8-6-24(7-9-26)22-43-33-25(23-42(35(43)45)29-18-30(46-3)20-31(19-29)47-4)21-36-34(39-33)38-27-10-12-28(13-11-27)41-16-14-40(2)15-17-41/h5-13,18-21H,1,14-17,22-23H2,2-4H3,(H,37,44)(H,36,38,39)

>  <InChI Key>
DVBPRWJMHURKHP-UHFFFAOYSA-N

>  <BindingDB>
50232829

>  <PubChem>
91825767

>  <ChEMBL>
CHEMBL4065323

$$$$
Compound 1058
Actelion Java MolfileCreator 2.0

  0  0  0  0  0  0              0 V3000
M  V30 BEGIN CTAB
M  V30 COUNTS 47 52 0 0 0
M  V30 BEGIN ATOM
M  V30 1 O 0.0 0.0 0.0 0
M  V30 2 C 1.2172 -0.8508 0.0 0
M  V30 3 N 1.0753 -2.3398 0.0 0
M  V30 4 N 2.5762 -0.2008 0.0 0
M  V30 5 C -0.3072 -2.9662 0.0 0
M  V30 6 C 2.2926 -3.1907 0.0 0
M  V30 7 C 3.7934 -1.0517 0.0 0
M  V30 8 C 2.6943 1.3117 0.0 0
M  V30 9 C -1.548 -2.0917 0.0 0
M  V30 10 C -0.449 -4.4552 0.0 0
M  V30 11 C 3.6516 -2.5407 0.0 0
M  V30 12 N 5.1524 -0.4017 0.0 0
M  V30 13 C 4.0534 1.9617 0.0 0
M  V30 14 C -2.9307 -2.718 0.0 0
M  V30 15 C -1.8317 -5.0815 0.0 0
M  V30 16 C 4.8688 -3.3916 0.0 0
M  V30 17 C 6.3696 -1.2526 0.0 0
M  V30 18 C 5.2706 1.1108 0.0 0
M  V30 19 C 4.1715 3.4743 0.0 0
M  V30 20 O -4.1715 -1.8435 0.0 0
M  V30 21 C -3.0725 -4.207 0.0 0
M  V30 22 O -1.9735 -6.5705 0.0 0
M  V30 23 N 6.2278 -2.7416 0.0 0
M  V30 24 N 7.7286 -0.6026 0.0 0
M  V30 25 C 6.6296 1.7608 0.0 0
M  V30 26 C 5.5306 4.1243 0.0 0
M  V30 27 C -4.0534 -0.3308 0.0 0
M  V30 28 C -3.3561 -7.1968 0.0 0
M  V30 29 C 8.9458 -1.4535 0.0 0
M  V30 30 C 6.7478 3.2734 0.0 0
M  V30 31 C 8.804 -2.9425 0.0 0
M  V30 32 C 10.3048 -0.8035 0.0 0
M  V30 33 N 8.1068 3.9234 0.0 0
M  V30 34 C 10.0212 -3.7934 0.0 0
M  V30 35 C 11.5221 -1.6544 0.0 0
M  V30 36 C 9.324 3.0725 0.0 0
M  V30 37 C 11.3802 -3.1434 0.0 0
M  V30 38 O 9.1822 1.5835 0.0 0
M  V30 39 C 10.683 3.7225 0.0 0
M  V30 40 N 12.5974 -3.9943 0.0 0
M  V30 41 C 11.9002 2.8716 0.0 0
M  V30 42 C 12.4556 -5.4833 0.0 0
M  V30 43 C 13.9565 -3.3443 0.0 0
M  V30 44 C 13.6728 -6.3342 0.0 0
M  V30 45 C 15.1737 -4.1952 0.0 0
M  V30 46 N 15.0319 -5.6842 0.0 0
M  V30 47 C 16.2491 -6.535 0.0 0
M  V30 END ATOM
M  V30 BEGIN BOND
M  V30 1 2 1 2
M  V30 2 1 2 3
M  V30 3 1 2 4
M  V30 4 1 3 5
M  V30 5 1 3 6
M  V30 6 1 4 7
M  V30 7 1 4 8
M  V30 8 2 5 9
M  V30 9 1 5 10
M  V30 10 1 6 11
M  V30 11 1 7 12
M  V30 12 1 8 13
M  V30 13 1 9 14
M  V30 14 2 10 15
M  V30 15 1 11 16
M  V30 16 2 12 17
M  V30 17 2 13 18
M  V30 18 1 13 19
M  V30 19 1 14 20
M  V30 20 2 14 21
M  V30 21 1 15 22
M  V30 22 2 16 23
M  V30 23 1 17 24
M  V30 24 1 18 25
M  V30 25 2 19 26
M  V30 26 1 20 27
M  V30 27 1 22 28
M  V30 28 1 24 29
M  V30 29 2 25 30
M  V30 30 2 29 31
M  V30 31 1 29 32
M  V30 32 1 30 33
M  V30 33 1 31 34
M  V30 34 2 32 35
M  V30 35 1 33 36
M  V30 36 2 34 37
M  V30 37 2 36 38
M  V30 38 1 36 39
M  V30 39 1 37 40
M  V30 40 2 39 41
M  V30 41 1 40 42
M  V30 42 1 40 43
M  V30 43 1 42 44
M  V30 44 1 43 45
M  V30 45 1 44 46
M  V30 46 1 46 47
M  V30 47 2 7 11
M  V30 48 1 15 21
M  V30 49 1 17 23
M  V30 50 1 26 30
M  V30 51 1 35 37
M  V30 52 1 45 46
M  V30 END BOND
M  V30 END CTAB
M  END
>  <Compound ID>
324

>  <Name>
FIIN-2

>  <Uniprot>
P21802

>  <Target>
FGFR2

>  <Smiles>
C=CC(=O)NC1=CC=C(CN2C(=O)N(C3=CC(OC)=CC(OC)=C3)CC3=CN=C(NC4=CC=C(N5CCN(C)CC5)C=C4)N=C32)C=C1

>  <Kd (nM)>


>  <Assay (Kd)>


>  <Ki (nM)>


>  <Assay (Ki)>


>  <IC50 (nM)>
4

>  <Assay (IC50)>
Inhibition of FGFR2

>  <EC50 (nM)>


>  <Assay (EC50)>


>  <Article DOI>
10.1016/j.ejmech.2016.11.052

>  <Molecular Weight>
634.741

>  <Exact Mass>
634.301601696

>  <XLogP3>
4.05

>  <Heavy Atom Count>
47

>  <Ring Count>
6

>  <Hydrogen Bond Acceptor Count>
9

>  <Hydrogen Bond Donor Count>
2

>  <Rotatable Bond Count>
10

>  <Topological Polar Surface Area>
115.4

>  <Molecular Formula>
C35H38N8O4

>  <InChI>
InChI=1S/C35H38N8O4/c1-5-32(44)37-26-8-6-24(7-9-26)22-43-33-25(23-42(35(43)45)29-18-30(46-3)20-31(19-29)47-4)21-36-34(39-33)38-27-10-12-28(13-11-27)41-16-14-40(2)15-17-41/h5-13,18-21H,1,14-17,22-23H2,2-4H3,(H,37,44)(H,36,38,39)

>  <InChI Key>
DVBPRWJMHURKHP-UHFFFAOYSA-N

>  <BindingDB>
50232829

>  <PubChem>
91825767

>  <ChEMBL>
CHEMBL4065323

$$$$
Compound 1059
Actelion Java MolfileCreator 2.0

  0  0  0  0  0  0              0 V3000
M  V30 BEGIN CTAB
M  V30 COUNTS 30 32 0 0 0
M  V30 BEGIN ATOM
M  V30 1 Cl 0.0 0.0 0.0 0
M  V30 2 C 0.816 -1.2418 0.0 0
M  V30 3 C 0.13 -2.5782 0.0 0
M  V30 4 C 2.3062 -1.1471 0.0 0
M  V30 5 C 0.9461 -3.82 0.0 0
M  V30 6 C 3.1222 -2.389 0.0 0
M  V30 7 C 2.4363 -3.7254 0.0 0
M  V30 8 C 0.2601 -5.1564 0.0 0
M  V30 9 N 3.2523 -4.9672 0.0 0
M  V30 10 O 1.0762 -6.3982 0.0 0
M  V30 11 C -1.2536 -5.2274 0.0 0
M  V30 12 S 4.7425 -4.8726 0.0 0
M  V30 13 C -2.0933 -3.9619 0.0 0
M  V30 14 C -1.9395 -6.5638 0.0 0
M  V30 15 O 4.8134 -6.3627 0.0 0
M  V30 16 O 4.6479 -3.3587 0.0 0
M  V30 17 C 6.2326 -4.778 0.0 0
M  V30 18 C -3.6071 -4.0329 0.0 0
M  V30 19 C -3.4534 -6.6348 0.0 0
M  V30 20 C 6.8949 -3.4179 0.0 0
M  V30 21 C 7.0487 -6.0198 0.0 0
M  V30 22 N -4.2931 -5.3693 0.0 0 CHG=1
M  V30 23 C 8.3851 -3.3233 0.0 0
M  V30 24 C 8.5389 -5.9251 0.0 0
M  V30 25 O -5.8069 -5.4403 0.0 0 CHG=-1
M  V30 26 C 9.2012 -4.5651 0.0 0
M  V30 27 C 10.6913 -4.4705 0.0 0
M  V30 28 C 10.5967 -2.9566 0.0 0
M  V30 29 C 10.7623 -5.9606 0.0 0
M  V30 30 C 12.1815 -4.3758 0.0 0
M  V30 END ATOM
M  V30 BEGIN BOND
M  V30 1 1 1 2
M  V30 2 2 2 3
M  V30 3 1 2 4
M  V30 4 1 3 5
M  V30 5 2 4 6
M  V30 6 2 5 7
M  V30 7 1 5 8
M  V30 8 1 7 9
M  V30 9 2 8 10
M  V30 10 1 8 11
M  V30 11 1 9 12
M  V30 12 2 11 13
M  V30 13 1 11 14
M  V30 14 2 12 15
M  V30 15 2 12 16
M  V30 16 1 12 17
M  V30 17 1 13 18
M  V30 18 2 14 19
M  V30 19 2 17 20
M  V30 20 1 17 21
M  V30 21 2 18 22
M  V30 22 1 20 23
M  V30 23 2 21 24
M  V30 24 1 22 25
M  V30 25 2 23 26
M  V30 26 1 26 27
M  V30 27 1 27 28
M  V30 28 1 27 29
M  V30 29 1 27 30
M  V30 30 1 6 7
M  V30 31 1 19 22
M  V30 32 1 24 26
M  V30 END BOND
M  V30 END CTAB
M  END
>  <Compound ID>
325

>  <Name>
Vercirnon

>  <Uniprot>
P51686

>  <Target>
CCR9

>  <Smiles>
CC(C)(C)C1=CC=C(S(=O)(=O)NC2=CC=C(Cl)C=C2C(=O)C2=CC=[N+]([O-])C=C2)C=C1

>  <Kd (nM)>
0.49

>  <Assay (Kd)>
Kd was assessed by radioligand binding assay

>  <Ki (nM)>


>  <Assay (Ki)>


>  <IC50 (nM)>


>  <Assay (IC50)>


>  <EC50 (nM)>


>  <Assay (EC50)>


>  <Article DOI>
10.1002/anie.202116782

>  <Molecular Weight>
444.94

>  <Exact Mass>
444.091055832

>  <XLogP3>
4.58

>  <Heavy Atom Count>
30

>  <Ring Count>
3

>  <Hydrogen Bond Acceptor Count>
4

>  <Hydrogen Bond Donor Count>
1

>  <Rotatable Bond Count>
5

>  <Topological Polar Surface Area>
90.18

>  <Molecular Formula>
C22H21ClN2O4S

>  <InChI>
InChI=1S/C22H21ClN2O4S/c1-22(2,3)16-4-7-18(8-5-16)30(28,29)24-20-9-6-17(23)14-19(20)21(26)15-10-12-25(27)13-11-15/h4-14,24H,1-3H3

>  <InChI Key>
JRWROCIMSDXGOZ-UHFFFAOYSA-N

>  <BindingDB>
50398334

>  <PubChem>
10343454

>  <ChEMBL>
CHEMBL2178578

$$$$
Compound 1060
Actelion Java MolfileCreator 2.0

  0  0  0  0  0  0              0 V3000
M  V30 BEGIN CTAB
M  V30 COUNTS 20 22 0 0 0
M  V30 BEGIN ATOM
M  V30 1 O 0.0 0.0 0.0 0
M  V30 2 C 0.9453 -1.1438 0.0 0
M  V30 3 O 2.4159 -0.8753 0.0 0
M  V30 4 C 0.4085 -2.5443 0.0 0
M  V30 5 C 3.3613 -2.0191 0.0 0
M  V30 6 C -1.0854 -2.7894 0.0 0
M  V30 7 C 1.3538 -3.6881 0.0 0
M  V30 8 C 2.8244 -3.4197 0.0 0
M  V30 9 C 4.8319 -1.7507 0.0 0
M  V30 10 C -2.0541 -1.6223 0.0 0
M  V30 11 C -1.6223 -4.19 0.0 0
M  V30 12 C 3.7698 -4.5635 0.0 0
M  V30 13 C 5.7773 -2.8945 0.0 0
M  V30 14 C -3.5481 -1.8674 0.0 0
M  V30 15 C -3.1162 -4.4351 0.0 0
M  V30 16 C 5.2404 -4.295 0.0 0
M  V30 17 O 7.2479 -2.626 0.0 0
M  V30 18 C -4.085 -3.268 0.0 0
M  V30 19 O -5.5789 -3.5131 0.0 0
M  V30 20 C -6.5476 -2.3459 0.0 0
M  V30 END ATOM
M  V30 BEGIN BOND
M  V30 1 2 1 2
M  V30 2 1 2 3
M  V30 3 1 2 4
M  V30 4 1 3 5
M  V30 5 1 4 6
M  V30 6 2 4 7
M  V30 7 2 5 8
M  V30 8 1 5 9
M  V30 9 2 6 10
M  V30 10 1 6 11
M  V30 11 1 8 12
M  V30 12 2 9 13
M  V30 13 1 10 14
M  V30 14 2 11 15
M  V30 15 2 12 16
M  V30 16 1 13 17
M  V30 17 2 14 18
M  V30 18 1 18 19
M  V30 19 1 19 20
M  V30 20 1 7 8
M  V30 21 1 13 16
M  V30 22 1 15 18
M  V30 END BOND
M  V30 END CTAB
M  END
>  <Compound ID>
326

>  <Name>
STK788280

>  <Uniprot>
P14174

>  <Target>
MIF

>  <Smiles>
COC1=CC=C(C2=CC3=CC=C(O)C=C3OC2=O)C=C1

>  <Kd (nM)>


>  <Assay (Kd)>


>  <Ki (nM)>
370

>  <Assay (Ki)>
Ki was assessed by MIF catalyzed 4-HPP tautomerization assay

>  <IC50 (nM)>


>  <Assay (IC50)>


>  <EC50 (nM)>


>  <Assay (EC50)>


>  <Article DOI>
10.1002/anie.202101864

>  <Molecular Weight>
268.268

>  <Exact Mass>
268.073558864

>  <XLogP3>
3.16

>  <Heavy Atom Count>
20

>  <Ring Count>
3

>  <Hydrogen Bond Acceptor Count>
4

>  <Hydrogen Bond Donor Count>
1

>  <Rotatable Bond Count>
2

>  <Topological Polar Surface Area>
59.67

>  <Molecular Formula>
C16H12O4

>  <InChI>
InChI=1S/C16H12O4/c1-19-13-6-3-10(4-7-13)14-8-11-2-5-12(17)9-15(11)20-16(14)18/h2-9,17H,1H3

>  <InChI Key>
VGYCHSOZFBOOKO-UHFFFAOYSA-N

>  <BindingDB>
50553871

>  <PubChem>
5393174

>  <ChEMBL>
CHEMBL1392132

$$$$
Compound 1061
Actelion Java MolfileCreator 2.0

  0  0  0  0  0  0              0 V3000
M  V30 BEGIN CTAB
M  V30 COUNTS 22 24 0 0 0
M  V30 BEGIN ATOM
M  V30 1 O 0.0 0.0 0.0 0
M  V30 2 C 0.8381 -1.2277 0.0 0
M  V30 3 O 2.3257 -1.0979 0.0 0
M  V30 4 N 0.177 -2.5736 0.0 0
M  V30 5 C 3.1639 -2.3257 0.0 0
M  V30 6 C -1.334 -2.6798 0.0 0
M  V30 7 C 1.0152 -3.8014 0.0 0
M  V30 8 C 2.5027 -3.6715 0.0 0
M  V30 9 C 4.6514 -2.1958 0.0 0
M  V30 10 C -1.9951 -4.0257 0.0 0
M  V30 11 C -2.1958 -1.4284 0.0 0
M  V30 12 C 3.3409 -4.8993 0.0 0
M  V30 13 C 5.4896 -3.4236 0.0 0
M  V30 14 C -3.5062 -4.1319 0.0 0
M  V30 15 C -3.7069 -1.5347 0.0 0
M  V30 16 C 4.8285 -4.7694 0.0 0
M  V30 17 O 6.9771 -3.2937 0.0 0
M  V30 18 O -4.1673 -5.4778 0.0 0
M  V30 19 C -4.368 -2.8805 0.0 0
M  V30 20 C -3.3291 -6.7055 0.0 0
M  V30 21 O -5.8792 -2.9868 0.0 0
M  V30 22 C -6.741 -1.7354 0.0 0
M  V30 END ATOM
M  V30 BEGIN BOND
M  V30 1 2 1 2
M  V30 2 1 2 3
M  V30 3 1 2 4
M  V30 4 1 3 5
M  V30 5 1 4 6
M  V30 6 1 4 7
M  V30 7 2 5 8
M  V30 8 1 5 9
M  V30 9 2 6 10
M  V30 10 1 6 11
M  V30 11 1 8 12
M  V30 12 2 9 13
M  V30 13 1 10 14
M  V30 14 2 11 15
M  V30 15 2 12 16
M  V30 16 1 13 17
M  V30 17 1 14 18
M  V30 18 2 14 19
M  V30 19 1 18 20
M  V30 20 1 19 21
M  V30 21 1 21 22
M  V30 22 1 7 8
M  V30 23 1 13 16
M  V30 24 1 15 19
M  V30 END BOND
M  V30 END CTAB
M  END
>  <Compound ID>
327

>  <Name>


>  <Uniprot>
P14174

>  <Target>
MIF

>  <Smiles>
COC1=CC=C(N2CC3=CC=C(O)C=C3OC2=O)C=C1OC

>  <Kd (nM)>


>  <Assay (Kd)>


>  <Ki (nM)>
103

>  <Assay (Ki)>
Ki was assessed by MIF catalyzed 4-HPP tautomerization assay

>  <IC50 (nM)>


>  <Assay (IC50)>


>  <EC50 (nM)>


>  <Assay (EC50)>


>  <Article DOI>
10.1002/anie.202101864

>  <Molecular Weight>
301.298

>  <Exact Mass>
301.09502258

>  <XLogP3>
2.4

>  <Heavy Atom Count>
22

>  <Ring Count>
3

>  <Hydrogen Bond Acceptor Count>
5

>  <Hydrogen Bond Donor Count>
1

>  <Rotatable Bond Count>
3

>  <Topological Polar Surface Area>
68.23

>  <Molecular Formula>
C16H15NO5

>  <InChI>
InChI=1S/C16H15NO5/c1-20-13-6-4-11(7-15(13)21-2)17-9-10-3-5-12(18)8-14(10)22-16(17)19/h3-8,18H,9H2,1-2H3

>  <InChI Key>
ZZMRAJIUHSPJIQ-UHFFFAOYSA-N

>  <BindingDB>
50553872

>  <PubChem>
162673661

>  <ChEMBL>
CHEMBL4794376

$$$$
Compound 1062
Actelion Java MolfileCreator 2.0

  0  0  0  0  0  0              0 V3000
M  V30 BEGIN CTAB
M  V30 COUNTS 43 48 0 0 0
M  V30 BEGIN ATOM
M  V30 1 S 0.0 0.0 0.0 0
M  V30 2 O 0.0472 1.5129 0.0 0
M  V30 3 O -0.0709 -1.4893 0.0 0
M  V30 4 N 1.4893 -0.0472 0.0 0
M  V30 5 C -1.5129 0.0709 0.0 0
M  V30 6 C 2.2812 1.2292 0.0 0
M  V30 7 C -2.3285 -1.182 0.0 0
M  V30 8 C -2.2221 1.4065 0.0 0
M  V30 9 C 1.572 2.5649 0.0 0
M  V30 10 C 3.7705 1.182 0.0 0
M  V30 11 F -1.6429 -2.494 0.0 0
M  V30 12 C -3.8415 -1.111 0.0 0
M  V30 13 C -3.7351 1.4775 0.0 0
M  V30 14 O 0.0591 2.6358 0.0 0
M  V30 15 N 2.364 3.8415 0.0 0
M  V30 16 C 4.5625 2.4585 0.0 0
M  V30 17 C -4.5507 0.2364 0.0 0
M  V30 18 C -0.6501 3.9715 0.0 0
M  V30 19 C 3.8533 3.7942 0.0 0
M  V30 20 C 6.0518 2.4112 0.0 0
M  V30 21 F -6.0636 0.3073 0.0 0
M  V30 22 C 6.7374 1.0992 0.0 0
M  V30 23 C 6.8438 3.6878 0.0 0
M  V30 24 N 8.2267 1.0519 0.0 0
M  V30 25 C 8.3331 3.6405 0.0 0
M  V30 26 C 9.0187 2.3285 0.0 0
M  V30 27 C 9.1723 -0.0945 0.0 0
M  V30 28 N 10.4607 1.9739 0.0 0
M  V30 29 C 8.7941 -1.5366 0.0 0
M  V30 30 C 10.5553 0.4728 0.0 0
M  V30 31 O 7.3875 -2.0803 0.0 0
M  V30 32 N 9.7397 -2.6831 0.0 0
M  V30 33 C 7.4702 -3.5696 0.0 0
M  V30 34 N 8.9241 -3.936 0.0 0
M  V30 35 C 6.3 -4.5152 0.0 0
M  V30 36 C 4.8816 -3.9833 0.0 0
M  V30 37 N 3.7114 -4.9289 0.0 0
M  V30 38 C 2.293 -4.397 0.0 0
M  V30 39 C 3.9479 -6.3946 0.0 0
M  V30 40 C 1.1229 -5.3426 0.0 0
M  V30 41 C 2.7777 -7.3402 0.0 0
M  V30 42 N 1.3593 -6.8083 0.0 0
M  V30 43 C 0.1891 -7.7539 0.0 0
M  V30 END ATOM
M  V30 BEGIN BOND
M  V30 1 2 1 2
M  V30 2 2 1 3
M  V30 3 1 1 4
M  V30 4 1 1 5
M  V30 5 1 4 6
M  V30 6 2 5 7
M  V30 7 1 5 8
M  V30 8 2 6 9
M  V30 9 1 6 10
M  V30 10 1 7 11
M  V30 11 1 7 12
M  V30 12 2 8 13
M  V30 13 1 9 14
M  V30 14 1 9 15
M  V30 15 2 10 16
M  V30 16 2 12 17
M  V30 17 1 14 18
M  V30 18 2 15 19
M  V30 19 1 16 20
M  V30 20 1 17 21
M  V30 21 2 20 22
M  V30 22 1 20 23
M  V30 23 1 22 24
M  V30 24 2 23 25
M  V30 25 1 24 26
M  V30 26 1 24 27
M  V30 27 2 26 28
M  V30 28 1 27 29
M  V30 29 2 27 30
M  V30 30 1 29 31
M  V30 31 2 29 32
M  V30 32 1 31 33
M  V30 33 1 32 34
M  V30 34 1 33 35
M  V30 35 1 35 36
M  V30 36 1 36 37
M  V30 37 1 37 38
M  V30 38 1 37 39
M  V30 39 1 38 40
M  V30 40 1 39 41
M  V30 41 1 40 42
M  V30 42 1 42 43
M  V30 43 1 13 17
M  V30 44 1 16 19
M  V30 45 1 25 26
M  V30 46 1 28 30
M  V30 47 2 33 34
M  V30 48 1 41 42
M  V30 END BOND
M  V30 END CTAB
M  END
>  <Compound ID>
328

>  <Name>
GTPL10702

>  <Uniprot>
P42336

>  <Target>
PI3Kalpha

>  <Smiles>
COC1=NC=C(C2=CN3C(C4=NN=C(CCN5CCN(C)CC5)O4)=CN=C3C=C2)C=C1NS(=O)(=O)C1=CC=C(F)C=C1F

>  <Kd (nM)>


>  <Assay (Kd)>


>  <Ki (nM)>


>  <Assay (Ki)>


>  <IC50 (nM)>
0.2

>  <Assay (IC50)>
IC50 was assessed by the Kinase-Glo assay

>  <EC50 (nM)>


>  <Assay (EC50)>


>  <Article DOI>
10.1021/acs.jmedchem.9b01736

>  <Molecular Weight>
610.647

>  <Exact Mass>
610.192228816

>  <XLogP3>
3.02

>  <Heavy Atom Count>
43

>  <Ring Count>
6

>  <Hydrogen Bond Acceptor Count>
11

>  <Hydrogen Bond Donor Count>
1

>  <Rotatable Bond Count>
9

>  <Topological Polar Surface Area>
130.99

>  <Molecular Formula>
C28H28F2N8O4S

>  <InChI>
InChI=1S/C28H28F2N8O4S/c1-36-9-11-37(12-10-36)8-7-26-33-34-28(42-26)23-16-31-25-6-3-18(17-38(23)25)19-13-22(27(41-2)32-15-19)35-43(39,40)24-5-4-20(29)14-21(24)30/h3-6,13-17,35H,7-12H2,1-2H3

>  <InChI Key>
LSPJWTULWKYRTQ-UHFFFAOYSA-N

>  <BindingDB>
50514590

>  <PubChem>
145996540

>  <ChEMBL>
CHEMBL4440406

$$$$
Compound 1063
Actelion Java MolfileCreator 2.0

  0  0  0  0  0  0              0 V3000
M  V30 BEGIN CTAB
M  V30 COUNTS 29 32 0 0 0
M  V30 BEGIN ATOM
M  V30 1 O 0.0 0.0 0.0 0
M  V30 2 C -0.4243 -1.4262 0.0 0
M  V30 3 N 0.6129 -2.487 0.0 0
M  V30 4 N -1.8858 -1.7798 0.0 0
M  V30 5 C 2.0509 -2.1098 0.0 0
M  V30 6 C -2.9467 -0.6954 0.0 0
M  V30 7 C 3.0881 -3.1706 0.0 0
M  V30 8 C 2.4516 -0.66 0.0 0
M  V30 9 N -2.6991 0.7897 0.0 0
M  V30 10 C -4.4436 -0.8958 0.0 0
M  V30 11 C 4.5261 -2.7934 0.0 0
M  V30 12 C 3.8896 -0.2828 0.0 0
M  V30 13 O -4.0311 1.5087 0.0 0
M  V30 14 C -5.1154 0.4596 0.0 0
M  V30 15 C 4.9269 -1.3437 0.0 0
M  V30 16 C -6.6006 0.7307 0.0 0
M  V30 17 C 6.3648 -0.9665 0.0 0
M  V30 18 C -6.3531 2.2159 0.0 0
M  V30 19 C -6.8717 -0.7307 0.0 0
M  V30 20 C -8.0857 1.0018 0.0 0
M  V30 21 C 6.9188 0.4361 0.0 0
M  V30 22 C 7.5082 -1.9212 0.0 0
M  V30 23 C 6.247 1.7916 0.0 0
M  V30 24 C 8.404 0.3418 0.0 0
M  V30 25 N 8.7694 -1.1079 0.0 0
M  V30 26 N 7.0721 3.0527 0.0 0
M  V30 27 N 4.7383 1.9094 0.0 0
M  V30 28 N 9.229 1.603 0.0 0
M  V30 29 C 8.5572 2.9584 0.0 0
M  V30 END ATOM
M  V30 BEGIN BOND
M  V30 1 2 1 2
M  V30 2 1 2 3
M  V30 3 1 2 4
M  V30 4 1 3 5
M  V30 5 1 4 6
M  V30 6 2 5 7
M  V30 7 1 5 8
M  V30 8 2 6 9
M  V30 9 1 6 10
M  V30 10 1 7 11
M  V30 11 2 8 12
M  V30 12 1 9 13
M  V30 13 2 10 14
M  V30 14 2 11 15
M  V30 15 1 14 16
M  V30 16 1 15 17
M  V30 17 1 16 18
M  V30 18 1 16 19
M  V30 19 1 16 20
M  V30 20 1 17 21
M  V30 21 2 17 22
M  V30 22 2 21 23
M  V30 23 1 21 24
M  V30 24 1 22 25
M  V30 25 1 23 26
M  V30 26 1 23 27
M  V30 27 2 24 28
M  V30 28 2 26 29
M  V30 29 1 12 15
M  V30 30 1 13 14
M  V30 31 1 24 25
M  V30 32 1 28 29
M  V30 END BOND
M  V30 END CTAB
M  END
>  <Compound ID>
329

>  <Name>


>  <Uniprot>
P36888

>  <Target>
FLT3

>  <Smiles>
CC(C)(C)C1=CC(NC(=O)NC2=CC=C(C3=C[NH]C4=NC=NC(N)=C34)C=C2)=NO1

>  <Kd (nM)>


>  <Assay (Kd)>


>  <Ki (nM)>


>  <Assay (Ki)>


>  <IC50 (nM)>
6

>  <Assay (IC50)>
Inhibition of FLT3

>  <EC50 (nM)>


>  <Assay (EC50)>


>  <Article DOI>
10.1021/acs.jmedchem.9b00223

>  <Molecular Weight>
391.435

>  <Exact Mass>
391.175672912

>  <XLogP3>
2.99

>  <Heavy Atom Count>
29

>  <Ring Count>
4

>  <Hydrogen Bond Acceptor Count>
6

>  <Hydrogen Bond Donor Count>
4

>  <Rotatable Bond Count>
3

>  <Topological Polar Surface Area>
134.75

>  <Molecular Formula>
C20H21N7O2

>  <InChI>
InChI=1S/C20H21N7O2/c1-20(2,3)14-8-15(27-29-14)26-19(28)25-12-6-4-11(5-7-12)13-9-22-18-16(13)17(21)23-10-24-18/h4-10H,1-3H3,(H3,21,22,23,24)(H2,25,26,27,28)

>  <InChI Key>
SKMPZJCYMMCESN-UHFFFAOYSA-N

>  <BindingDB>
50521476

>  <PubChem>
155541132

>  <ChEMBL>
CHEMBL4517711

$$$$
Compound 1064
Actelion Java MolfileCreator 2.0

  0  0  0  0  0  0              0 V3000
M  V30 BEGIN CTAB
M  V30 COUNTS 16 17 0 0 0
M  V30 BEGIN ATOM
M  V30 1 S 0.0 0.0 0.0 0
M  V30 2 C -1.5046 0.0 0.0 0
M  V30 3 S -2.4098 1.2108 0.0 0
M  V30 4 N -2.3863 -1.199 0.0 0
M  V30 5 C -3.8322 0.7523 0.0 0
M  V30 6 C -3.8205 -0.7405 0.0 0
M  V30 7 C -5.0548 1.634 0.0 0
M  V30 8 O -5.0313 -1.6222 0.0 0
M  V30 9 C -6.4302 1.0227 0.0 0
M  V30 10 C -7.6527 1.9043 0.0 0
M  V30 11 C -6.583 -0.4467 0.0 0
M  V30 12 C -9.0281 1.293 0.0 0
M  V30 13 C -7.9584 -1.0579 0.0 0
M  V30 14 C -9.1809 -0.1763 0.0 0
M  V30 15 C -10.5563 -0.7876 0.0 0
M  V30 16 C -11.7789 0.094 0.0 0
M  V30 END ATOM
M  V30 BEGIN BOND
M  V30 1 2 1 2
M  V30 2 1 2 3
M  V30 3 1 2 4
M  V30 4 1 3 5
M  V30 5 1 4 6
M  V30 6 2 5 7
M  V30 7 2 6 8
M  V30 8 1 7 9
M  V30 9 2 9 10
M  V30 10 1 9 11
M  V30 11 1 10 12
M  V30 12 2 11 13
M  V30 13 2 12 14
M  V30 14 1 14 15
M  V30 15 1 15 16
M  V30 16 1 5 6
M  V30 17 1 13 14
M  V30 END BOND
M  V30 END CTAB
M  END
>  <Compound ID>
330

>  <Name>
10058-F4

>  <Uniprot>
P01106

>  <Target>
MYC

>  <Smiles>
CCC1=CC=C(/C=C2/SC(=S)NC2=O)C=C1

>  <Kd (nM)>


>  <Assay (Kd)>


>  <Ki (nM)>


>  <Assay (Ki)>


>  <IC50 (nM)>


>  <Assay (IC50)>


>  <EC50 (nM)>


>  <Assay (EC50)>


>  <Article DOI>
10.1016/j.bioorg.2021.105505

>  <Molecular Weight>
249.36

>  <Exact Mass>
249.028205972

>  <XLogP3>
3.59

>  <Heavy Atom Count>
16

>  <Ring Count>
2

>  <Hydrogen Bond Acceptor Count>
3

>  <Hydrogen Bond Donor Count>
1

>  <Rotatable Bond Count>
2

>  <Topological Polar Surface Area>
29.1

>  <Molecular Formula>
C12H11NOS2

>  <InChI>
InChI=1S/C12H11NOS2/c1-2-8-3-5-9(6-4-8)7-10-11(14)13-12(15)16-10/h3-7H,2H2,1H3,(H,13,14,15)/b10-7+

>  <InChI Key>
SVXDHPADAXBMFB-JXMROGBWSA-N

>  <BindingDB>


>  <PubChem>
1271002

>  <ChEMBL>
CHEMBL1568415

$$$$
Compound 1065
Actelion Java MolfileCreator 2.0

  0  0  0  0  0  0              0 V3000
M  V30 BEGIN CTAB
M  V30 COUNTS 33 37 0 0 0
M  V30 BEGIN ATOM
M  V30 1 O 0.0 0.0 0.0 0
M  V30 2 C 0.7689 -1.2975 0.0 0
M  V30 3 O 2.2827 -1.2614 0.0 0
M  V30 4 C 0.012 -2.6191 0.0 0 CFG=2
M  V30 5 C -0.7448 -3.9406 0.0 0 CFG=2
M  V30 6 C -0.7809 -1.2975 0.0 0
M  V30 7 C 1.5258 -2.583 0.0 0
M  V30 8 C -2.2827 -3.9526 0.0 0
M  V30 9 C 0.024 -5.2382 0.0 0 CFG=2
M  V30 10 C -2.3187 -1.3095 0.0 0
M  V30 11 C 2.2947 -3.8806 0.0 0
M  V30 12 C -3.0396 -5.2742 0.0 0
M  V30 13 C -3.0756 -2.6311 0.0 0 CFG=1
M  V30 14 C 1.5378 -5.2021 0.0 0 CFG=1
M  V30 15 C -0.7328 -6.5597 0.0 0
M  V30 16 C -4.5774 -5.2862 0.0 0
M  V30 17 C -4.6134 -2.6431 0.0 0 CFG=1
M  V30 18 C -3.4961 -1.706 0.0 0
M  V30 19 C 2.3067 -6.4997 0.0 0
M  V30 20 C -5.3703 -3.9647 0.0 0 CFG=1
M  V30 21 C -5.4064 -1.3215 0.0 0
M  V30 22 C -4.241 -1.706 0.0 0
M  V30 23 C -6.9081 -3.9767 0.0 0 CFG=2
M  V30 24 C -6.9442 -1.3335 0.0 0
M  V30 25 C -7.7011 -2.6551 0.0 0 CFG=1
M  V30 26 C -7.665 -5.2982 0.0 0
M  V30 27 C -6.1392 -5.2742 0.0 0
M  V30 28 C -9.2389 -2.6671 0.0 0
M  V30 29 C -9.2029 -5.3103 0.0 0
M  V30 30 C -9.9958 -3.9887 0.0 0 CFG=2
M  V30 31 C -9.0106 -1.1533 0.0 0
M  V30 32 C -10.6926 -2.1505 0.0 0
M  V30 33 O -11.5336 -4.0007 0.0 0
M  V30 END ATOM
M  V30 BEGIN BOND
M  V30 1 2 1 2
M  V30 2 1 2 3
M  V30 3 1 4 2 CFG=3
M  V30 4 1 4 5
M  V30 5 1 4 6
M  V30 6 1 4 7
M  V30 7 1 5 8 CFG=1
M  V30 8 1 5 9
M  V30 9 1 6 10
M  V30 10 1 7 11
M  V30 11 2 8 12
M  V30 12 1 8 13
M  V30 13 1 9 14
M  V30 14 1 9 15 CFG=3
M  V30 15 1 12 16
M  V30 16 1 13 17
M  V30 17 1 13 18 CFG=1
M  V30 18 1 14 19 CFG=1
M  V30 19 1 20 16 CFG=3
M  V30 20 1 17 21
M  V30 21 1 17 22 CFG=3
M  V30 22 1 20 23
M  V30 23 1 21 24
M  V30 24 1 23 25
M  V30 25 1 23 26
M  V30 26 1 23 27 CFG=3
M  V30 27 1 25 28
M  V30 28 1 26 29
M  V30 29 1 28 30
M  V30 30 1 28 31
M  V30 31 1 28 32
M  V30 32 1 30 33 CFG=3
M  V30 33 1 10 13
M  V30 34 1 11 14
M  V30 35 1 17 20
M  V30 36 1 25 24 CFG=3
M  V30 37 1 29 30
M  V30 END BOND
M  V30 BEGIN COLLECTION
M  V30 MDLV30/STEABS ATOMS=(10 4 5 9 13 14 17 20 23 25 30)
M  V30 END COLLECTION
M  V30 END CTAB
M  END
>  <Compound ID>
331

>  <Name>
Ursolic acid

>  <Uniprot>
Q00987

>  <Target>
MDM2

>  <Smiles>
C[C@@H]1[C@H]2C3=CC[C@@H]4[C@@]5(C)CC[C@H](O)C(C)(C)[C@@H]5CC[C@@]4(C)[C@]3(C)CC[C@@]2(C(=O)O)CC[C@H]1C

>  <Kd (nM)>


>  <Assay (Kd)>


>  <Ki (nM)>


>  <Assay (Ki)>


>  <IC50 (nM)>
25050

>  <Assay (IC50)>
Inhibit proliferation of A549 cells

>  <EC50 (nM)>


>  <Assay (EC50)>


>  <Article DOI>
10.1016/j.bioorg.2021.104901

>  <Molecular Weight>
456.711

>  <Exact Mass>
456.360345396

>  <XLogP3>
7.34

>  <Heavy Atom Count>
33

>  <Ring Count>
5

>  <Hydrogen Bond Acceptor Count>
2

>  <Hydrogen Bond Donor Count>
2

>  <Rotatable Bond Count>
1

>  <Topological Polar Surface Area>
57.53

>  <Molecular Formula>
C30H48O3

>  <InChI>
InChI=1S/C30H48O3/c1-18-10-15-30(25(32)33)17-16-28(6)20(24(30)19(18)2)8-9-22-27(5)13-12-23(31)26(3,4)21(27)11-14-29(22,28)7/h8,18-19,21-24,31H,9-17H2,1-7H3,(H,32,33)/t18-,19+,21+,22-,23+,24+,27+,28-,29-,30+/m1/s1

>  <InChI Key>
WCGUUGGRBIKTOS-GPOJBZKASA-N

>  <BindingDB>
50148911

>  <PubChem>
64945

>  <ChEMBL>
CHEMBL169

$$$$
Compound 1066
Actelion Java MolfileCreator 2.0

  0  0  0  0  0  0              0 V3000
M  V30 BEGIN CTAB
M  V30 COUNTS 33 35 0 0 0
M  V30 BEGIN ATOM
M  V30 1 O 0.0 0.0 0.0 0
M  V30 2 C 0.5849 1.3804 0.0 0
M  V30 3 N -0.3158 2.597 0.0 0
M  V30 4 C 2.0589 1.5676 0.0 0
M  V30 5 C -1.8132 2.4332 0.0 0
M  V30 6 C -2.714 3.6499 0.0 0
M  V30 7 N -4.2114 3.4861 0.0 0
M  V30 8 C -5.1122 4.7028 0.0 0
M  V30 9 C -6.6096 4.539 0.0 0
M  V30 10 C -7.2179 3.182 0.0 0
M  V30 11 C -7.5104 5.7556 0.0 0
M  V30 12 O -6.3406 1.9887 0.0 0
M  V30 13 C -8.7154 3.0182 0.0 0
M  V30 14 O -6.9255 7.1361 0.0 0
M  V30 15 C -9.0078 5.5918 0.0 0
M  V30 16 C -6.9489 0.6317 0.0 0
M  V30 17 C -9.6161 4.2348 0.0 0
M  V30 18 C -7.8263 8.3527 0.0 0
M  V30 19 O -11.1136 4.071 0.0 0
M  V30 20 C -12.0143 5.2877 0.0 0
M  V30 21 C -13.5118 5.1239 0.0 0
M  V30 22 C -14.1201 3.7669 0.0 0
M  V30 23 C -14.4125 6.3406 0.0 0
M  V30 24 C -15.6175 3.6031 0.0 0
M  V30 25 C -13.2427 2.5736 0.0 0
M  V30 26 C -15.91 6.1768 0.0 0
M  V30 27 C -16.2258 2.2461 0.0 0
M  V30 28 C -16.5183 4.8197 0.0 0
M  V30 29 C -17.7232 2.0823 0.0 0
M  V30 30 C -15.3484 1.0528 0.0 0
M  V30 31 C -18.3316 0.7253 0.0 0
M  V30 32 C -15.9568 -0.3041 0.0 0
M  V30 33 C -17.4542 -0.4679 0.0 0
M  V30 END ATOM
M  V30 BEGIN BOND
M  V30 1 2 1 2
M  V30 2 1 2 3
M  V30 3 1 2 4
M  V30 4 1 3 5
M  V30 5 1 5 6
M  V30 6 1 6 7
M  V30 7 1 7 8
M  V30 8 1 8 9
M  V30 9 2 9 10
M  V30 10 1 9 11
M  V30 11 1 10 12
M  V30 12 1 10 13
M  V30 13 1 11 14
M  V30 14 2 11 15
M  V30 15 1 12 16
M  V30 16 2 13 17
M  V30 17 1 14 18
M  V30 18 1 17 19
M  V30 19 1 19 20
M  V30 20 1 20 21
M  V30 21 2 21 22
M  V30 22 1 21 23
M  V30 23 1 22 24
M  V30 24 1 22 25
M  V30 25 2 23 26
M  V30 26 1 24 27
M  V30 27 2 24 28
M  V30 28 2 27 29
M  V30 29 1 27 30
M  V30 30 1 29 31
M  V30 31 2 30 32
M  V30 32 2 31 33
M  V30 33 1 15 17
M  V30 34 1 26 28
M  V30 35 1 32 33
M  V30 END BOND
M  V30 END CTAB
M  END
>  <Compound ID>
332

>  <Name>
BMS-37

>  <Uniprot>
Q9NZQ7

>  <Target>
PD-L1

>  <Smiles>
COC1=CC(OCC2=CC=CC(C3=CC=CC=C3)=C2C)=CC(OC)=C1CNCCNC(C)=O

>  <Kd (nM)>


>  <Assay (Kd)>


>  <Ki (nM)>


>  <Assay (Ki)>


>  <IC50 (nM)>
6-100

>  <Assay (IC50)>
IC50 was assessed by the HTRF binding assay

>  <EC50 (nM)>


>  <Assay (EC50)>


>  <Article DOI>
10.1021/acs.jmedchem.7b00293

>  <Molecular Weight>
448.563

>  <Exact Mass>
448.236207504

>  <XLogP3>
4.0

>  <Heavy Atom Count>
33

>  <Ring Count>
3

>  <Hydrogen Bond Acceptor Count>
5

>  <Hydrogen Bond Donor Count>
2

>  <Rotatable Bond Count>
11

>  <Topological Polar Surface Area>
68.82

>  <Molecular Formula>
C27H32N2O4

>  <InChI>
InChI=1S/C27H32N2O4/c1-19-22(11-8-12-24(19)21-9-6-5-7-10-21)18-33-23-15-26(31-3)25(27(16-23)32-4)17-28-13-14-29-20(2)30/h5-12,15-16,28H,13-14,17-18H2,1-4H3,(H,29,30)

>  <InChI Key>
OYNIISWIMDFFAF-UHFFFAOYSA-N

>  <BindingDB>


>  <PubChem>
117941658

>  <ChEMBL>
CHEMBL4081869

$$$$
Compound 1067
Actelion Java MolfileCreator 2.0

  0  0  0  0  0  0              0 V3000
M  V30 BEGIN CTAB
M  V30 COUNTS 29 31 0 0 0
M  V30 BEGIN ATOM
M  V30 1 Cl 0.0 0.0 0.0 0
M  V30 2 C -1.3927 0.5968 0.0 0
M  V30 3 C -2.5982 -0.2925 0.0 0
M  V30 4 C -1.5917 2.0949 0.0 0
M  V30 5 C -2.4226 -1.7672 0.0 0
M  V30 6 C -3.9909 0.3042 0.0 0
M  V30 7 C -2.9844 2.6918 0.0 0
M  V30 8 C -1.0533 -2.3407 0.0 0
M  V30 9 C -3.6281 -2.6567 0.0 0
M  V30 10 C -4.1899 1.8023 0.0 0
M  V30 11 O -3.1834 4.1899 0.0 0
M  V30 12 Cl 0.1287 -1.4278 0.0 0
M  V30 13 C -0.8777 -3.8154 0.0 0
M  V30 14 C -3.4526 -4.1314 0.0 0
M  V30 15 C -5.5827 2.3992 0.0 0
M  V30 16 C -2.0013 5.1028 0.0 0
M  V30 17 C -2.0832 -4.7049 0.0 0
M  V30 18 Cl -4.6581 -5.0209 0.0 0
M  V30 19 O -5.7816 3.8973 0.0 0
M  V30 20 N -6.7882 1.5097 0.0 0
M  V30 21 C -8.1809 2.1066 0.0 0
M  V30 22 C -6.6126 0.0351 0.0 0
M  V30 23 C -9.3864 1.2171 0.0 0
M  V30 24 C -7.8181 -0.8543 0.0 0
M  V30 25 N -9.2108 -0.2574 0.0 0
M  V30 26 C -10.4163 -1.1469 0.0 0
M  V30 27 O -10.2408 -2.6216 0.0 0
M  V30 28 C -11.8091 -0.55 0.0 0
M  V30 29 C -13.0146 -1.4395 0.0 0
M  V30 END ATOM
M  V30 BEGIN BOND
M  V30 1 1 1 2
M  V30 2 2 2 3
M  V30 3 1 2 4
M  V30 4 1 3 5
M  V30 5 1 3 6
M  V30 6 2 4 7
M  V30 7 2 5 8
M  V30 8 1 5 9
M  V30 9 2 6 10
M  V30 10 1 7 11
M  V30 11 1 8 12
M  V30 12 1 8 13
M  V30 13 2 9 14
M  V30 14 1 10 15
M  V30 15 1 11 16
M  V30 16 2 13 17
M  V30 17 1 14 18
M  V30 18 2 15 19
M  V30 19 1 15 20
M  V30 20 1 20 21
M  V30 21 1 20 22
M  V30 22 1 21 23
M  V30 23 1 22 24
M  V30 24 1 23 25
M  V30 25 1 25 26
M  V30 26 2 26 27
M  V30 27 1 26 28
M  V30 28 2 28 29
M  V30 29 1 7 10
M  V30 30 1 14 17
M  V30 31 1 24 25
M  V30 END BOND
M  V30 END CTAB
M  END
>  <Compound ID>
333

>  <Name>
KRas G12C-IN-3

>  <Uniprot>
P01116

>  <Target>
KRAS G12C

>  <Smiles>
C=CC(=O)N1CCN(C(=O)C2=CC(C3=CC(Cl)=CC=C3Cl)=C(Cl)C=C2OC)CC1

>  <Kd (nM)>


>  <Assay (Kd)>


>  <Ki (nM)>


>  <Assay (Ki)>


>  <IC50 (nM)>


>  <Assay (IC50)>


>  <EC50 (nM)>


>  <Assay (EC50)>


>  <Article DOI>


>  <Molecular Weight>
453.753

>  <Exact Mass>
452.046125508

>  <XLogP3>
4.72

>  <Heavy Atom Count>
29

>  <Ring Count>
3

>  <Hydrogen Bond Acceptor Count>
3

>  <Hydrogen Bond Donor Count>
0

>  <Rotatable Bond Count>
4

>  <Topological Polar Surface Area>
49.85

>  <Molecular Formula>
C21H19Cl3N2O3

>  <InChI>
InChI=1S/C21H19Cl3N2O3/c1-3-20(27)25-6-8-26(9-7-25)21(28)16-11-15(18(24)12-19(16)29-2)14-10-13(22)4-5-17(14)23/h3-5,10-12H,1,6-9H2,2H3

>  <InChI Key>
RPBHAPLCWWQJAK-UHFFFAOYSA-N

>  <BindingDB>


>  <PubChem>
92044410

>  <ChEMBL>


$$$$
Compound 1068
Actelion Java MolfileCreator 2.0

  0  0  0  0  0  0              0 V3000
M  V30 BEGIN CTAB
M  V30 COUNTS 29 32 0 0 0
M  V30 BEGIN ATOM
M  V30 1 Cl 0.0 0.0 0.0 0
M  V30 2 C -0.7694 1.314 0.0 0
M  V30 3 C -2.2847 1.314 0.0 0
M  V30 4 C -0.0355 2.6281 0.0 0
M  V30 5 Cl -3.0424 0.0236 0.0 0
M  V30 6 C -3.0542 2.6281 0.0 0
M  V30 7 C 1.4561 2.6517 0.0 0
M  V30 8 C -0.805 3.9421 0.0 0
M  V30 9 C -2.3203 3.9421 0.0 0
M  V30 10 N 2.2019 1.3614 0.0 0
M  V30 11 C 2.19 3.9658 0.0 0
M  V30 12 C 3.6935 1.385 0.0 0
M  V30 13 N 3.6817 3.9895 0.0 0
M  V30 14 C 1.4205 5.2798 0.0 0
M  V30 15 C 4.4275 2.6991 0.0 0
M  V30 16 C 4.4393 0.0947 0.0 0
M  V30 17 N 5.9191 2.7228 0.0 0
M  V30 18 O 3.6817 -1.1956 0.0 0
M  V30 19 C 6.6649 1.4324 0.0 0
M  V30 20 C 6.6531 4.0368 0.0 0
M  V30 21 C 8.1565 1.4561 0.0 0
M  V30 22 C 8.1447 4.0605 0.0 0
M  V30 23 C 8.8905 2.7701 0.0 0
M  V30 24 C 9.7665 1.5744 0.0 0 CFG=2
M  V30 25 C 9.7547 4.0013 0.0 0
M  V30 26 N 9.293 0.1538 0.0 0
M  V30 27 C 11.1871 2.0598 0.0 0 CFG=1
M  V30 28 O 11.1753 3.5514 0.0 0
M  V30 29 C 12.3947 1.1956 0.0 0
M  V30 END ATOM
M  V30 BEGIN BOND
M  V30 1 1 1 2
M  V30 2 2 2 3
M  V30 3 1 2 4
M  V30 4 1 3 5
M  V30 5 1 3 6
M  V30 6 1 4 7
M  V30 7 2 4 8
M  V30 8 2 6 9
M  V30 9 2 7 10
M  V30 10 1 7 11
M  V30 11 1 10 12
M  V30 12 2 11 13
M  V30 13 1 11 14
M  V30 14 2 12 15
M  V30 15 1 12 16
M  V30 16 1 15 17
M  V30 17 1 16 18
M  V30 18 1 17 19
M  V30 19 1 17 20
M  V30 20 1 19 21
M  V30 21 1 20 22
M  V30 22 1 21 23
M  V30 23 1 23 24
M  V30 24 1 23 25
M  V30 25 1 24 26 CFG=1
M  V30 26 1 24 27
M  V30 27 1 25 28
M  V30 28 1 27 29 CFG=1
M  V30 29 1 8 9
M  V30 30 1 13 15
M  V30 31 1 22 23
M  V30 32 1 27 28
M  V30 END BOND
M  V30 BEGIN COLLECTION
M  V30 MDLV30/STEABS ATOMS=(2 24 27)
M  V30 END COLLECTION
M  V30 END CTAB
M  END
>  <Compound ID>
334

>  <Name>
RMC-4550

>  <Uniprot>
Q06124

>  <Target>
SHP2

>  <Smiles>
CC1=NC(N2CCC3(CC2)CO[C@@H](C)[C@H]3N)=C(CO)N=C1C1=CC=CC(Cl)=C1Cl

>  <Kd (nM)>


>  <Assay (Kd)>


>  <Ki (nM)>


>  <Assay (Ki)>


>  <IC50 (nM)>
31

>  <Assay (IC50)>
Allosteric inhibition of SHP2

>  <EC50 (nM)>


>  <Assay (EC50)>


>  <Article DOI>
10.1021/acs.jmedchem.0c00249

>  <Molecular Weight>
437.371

>  <Exact Mass>
436.143281432

>  <XLogP3>
2.49

>  <Heavy Atom Count>
29

>  <Ring Count>
4

>  <Hydrogen Bond Acceptor Count>
6

>  <Hydrogen Bond Donor Count>
2

>  <Rotatable Bond Count>
3

>  <Topological Polar Surface Area>
84.5

>  <Molecular Formula>
C21H26Cl2N4O2

>  <InChI>
InChI=1S/C21H26Cl2N4O2/c1-12-18(14-4-3-5-15(22)17(14)23)26-16(10-28)20(25-12)27-8-6-21(7-9-27)11-29-13(2)19(21)24/h3-5,13,19,28H,6-11,24H2,1-2H3/t13-,19+/m0/s1

>  <InChI Key>
IKUYEYLZXGGCRD-ORAYPTAESA-N

>  <BindingDB>
50546219

>  <PubChem>
134183206

>  <ChEMBL>
CHEMBL4752026

$$$$
Compound 1069
Actelion Java MolfileCreator 2.0

  0  0  0  0  0  0              0 V3000
M  V30 BEGIN CTAB
M  V30 COUNTS 31 33 0 0 0
M  V30 BEGIN ATOM
M  V30 1 S 0.0 0.0 0.0 0
M  V30 2 C 0.5312 -1.393 0.0 0
M  V30 3 C -1.511 -0.0708 0.0 0
M  V30 4 N -0.6492 -2.3256 0.0 0
M  V30 5 C 1.9714 -1.7708 0.0 0
M  V30 6 C -1.9124 -1.511 0.0 0
M  V30 7 C 2.3492 -3.211 0.0 0
M  V30 8 C 3.0221 -0.6965 0.0 0
M  V30 9 C -3.3291 -2.0423 0.0 0
M  V30 10 C 3.7895 -3.5888 0.0 0
M  V30 11 C 4.4624 -1.0742 0.0 0
M  V30 12 N -4.5096 -1.086 0.0 0
M  V30 13 C 4.8402 -2.5145 0.0 0
M  V30 14 C -5.9262 -1.6173 0.0 0
M  V30 15 C 6.2804 -2.8923 0.0 0
M  V30 16 N -6.1742 -3.093 0.0 0
M  V30 17 N -7.1068 -0.6611 0.0 0
M  V30 18 O 7.3311 -1.818 0.0 0
M  V30 19 N 6.6582 -4.3325 0.0 0
M  V30 20 C -7.5908 -3.6242 0.0 0
M  V30 21 C -8.5234 -1.1923 0.0 0
M  V30 22 C 8.0984 -4.7103 0.0 0
M  V30 23 N -7.8387 -5.0999 0.0 0
M  V30 24 C -8.7713 -2.668 0.0 0
M  V30 25 C 8.4762 -6.1505 0.0 0
M  V30 26 C -9.2554 -5.6311 0.0 0
M  V30 27 O 9.9165 -6.5283 0.0 0
M  V30 28 C -9.5033 -7.1068 0.0 0
M  V30 29 C 10.2942 -7.9686 0.0 0
M  V30 30 C -10.9199 -7.638 0.0 0
M  V30 31 C -8.3463 -8.0394 0.0 0
M  V30 END ATOM
M  V30 BEGIN BOND
M  V30 1 1 1 2
M  V30 2 1 1 3
M  V30 3 2 2 4
M  V30 4 1 2 5
M  V30 5 2 3 6
M  V30 6 2 5 7
M  V30 7 1 5 8
M  V30 8 1 6 9
M  V30 9 1 7 10
M  V30 10 2 8 11
M  V30 11 1 9 12
M  V30 12 2 10 13
M  V30 13 1 12 14
M  V30 14 1 13 15
M  V30 15 2 14 16
M  V30 16 1 14 17
M  V30 17 2 15 18
M  V30 18 1 15 19
M  V30 19 1 16 20
M  V30 20 2 17 21
M  V30 21 1 19 22
M  V30 22 1 20 23
M  V30 23 2 20 24
M  V30 24 1 22 25
M  V30 25 1 23 26
M  V30 26 1 25 27
M  V30 27 1 26 28
M  V30 28 1 27 29
M  V30 29 1 28 30
M  V30 30 1 28 31
M  V30 31 1 4 6
M  V30 32 1 11 13
M  V30 33 1 21 24
M  V30 END BOND
M  V30 END CTAB
M  END
>  <Compound ID>
335

>  <Name>
KHS108

>  <Uniprot>
Q9Y6A5

>  <Target>
TACC3

>  <Smiles>
COCCNC(=O)C1=CC=C(C2=NC(CNC3=NC=CC(NCC(C)C)=N3)=CS2)C=C1

>  <Kd (nM)>


>  <Assay (Kd)>


>  <Ki (nM)>


>  <Assay (Ki)>


>  <IC50 (nM)>


>  <Assay (IC50)>


>  <EC50 (nM)>


>  <Assay (EC50)>


>  <Article DOI>
10.1073/pnas.1010300107

>  <Molecular Weight>
440.573

>  <Exact Mass>
440.199445136

>  <XLogP3>
3.52

>  <Heavy Atom Count>
31

>  <Ring Count>
3

>  <Hydrogen Bond Acceptor Count>
8

>  <Hydrogen Bond Donor Count>
3

>  <Rotatable Bond Count>
11

>  <Topological Polar Surface Area>
101.06

>  <Molecular Formula>
C22H28N6O2S

>  <InChI>
InChI=1S/C22H28N6O2S/c1-15(2)12-25-19-8-9-24-22(28-19)26-13-18-14-31-21(27-18)17-6-4-16(5-7-17)20(29)23-10-11-30-3/h4-9,14-15H,10-13H2,1-3H3,(H,23,29)(H2,24,25,26,28)

>  <InChI Key>
QSSAUOBLRDZWRQ-UHFFFAOYSA-N

>  <BindingDB>


>  <PubChem>


>  <ChEMBL>


$$$$
Compound 1070
Actelion Java MolfileCreator 2.0

  0  0  0  0  0  0              0 V3000
M  V30 BEGIN CTAB
M  V30 COUNTS 20 22 0 0 0
M  V30 BEGIN ATOM
M  V30 1 Cl 0.0 0.0 0.0 0
M  V30 2 C 0.9891 1.1304 0.0 0
M  V30 3 C 0.5063 2.567 0.0 0
M  V30 4 C 2.4492 0.836 0.0 0
M  V30 5 C -0.9773 2.8849 0.0 0
M  V30 6 C 1.4954 3.6974 0.0 0
M  V30 7 C 3.4383 1.9664 0.0 0
M  V30 8 N -2.461 3.2028 0.0 0
M  V30 9 C 2.9556 3.403 0.0 0
M  V30 10 N 4.8985 1.672 0.0 0
M  V30 11 C 5.5108 0.3179 0.0 0 CFG=2
M  V30 12 C 5.9936 2.6965 0.0 0
M  V30 13 C 6.9945 0.4945 0.0 0
M  V30 14 C 4.7572 -0.9773 0.0 0
M  V30 15 C 7.2889 1.9664 0.0 0
M  V30 16 C 8.5017 1.1068 0.0 0
M  V30 17 C 7.4302 3.4737 0.0 0
M  V30 18 C 9.8559 1.7427 0.0 0
M  V30 19 C 8.7843 4.1095 0.0 0
M  V30 20 N 9.9972 3.2499 0.0 0
M  V30 END ATOM
M  V30 BEGIN BOND
M  V30 1 1 1 2
M  V30 2 2 2 3
M  V30 3 1 2 4
M  V30 4 1 3 5
M  V30 5 1 3 6
M  V30 6 2 4 7
M  V30 7 3 5 8
M  V30 8 2 6 9
M  V30 9 1 7 10
M  V30 10 1 10 11
M  V30 11 1 10 12
M  V30 12 1 11 13
M  V30 13 1 11 14 CFG=3
M  V30 14 1 12 15
M  V30 15 1 15 16
M  V30 16 1 15 17
M  V30 17 1 16 18
M  V30 18 1 17 19
M  V30 19 1 18 20
M  V30 20 1 7 9
M  V30 21 1 13 15
M  V30 22 1 19 20
M  V30 END BOND
M  V30 BEGIN COLLECTION
M  V30 MDLV30/STEABS ATOMS=(1 11)
M  V30 END COLLECTION
M  V30 END CTAB
M  END
>  <Compound ID>
336

>  <Name>


>  <Uniprot>
P10275

>  <Target>
AR

>  <Smiles>
C[C@H]1CC2(CCNCC2)CN1C1=CC=C(C#N)C(Cl)=C1

>  <Kd (nM)>


>  <Assay (Kd)>


>  <Ki (nM)>


>  <Assay (Ki)>


>  <IC50 (nM)>


>  <Assay (IC50)>


>  <EC50 (nM)>


>  <Assay (EC50)>


>  <Article DOI>


>  <Molecular Weight>
289.81

>  <Exact Mass>
289.13457532

>  <XLogP3>
3.13

>  <Heavy Atom Count>
20

>  <Ring Count>
3

>  <Hydrogen Bond Acceptor Count>
3

>  <Hydrogen Bond Donor Count>
1

>  <Rotatable Bond Count>
1

>  <Topological Polar Surface Area>
39.06

>  <Molecular Formula>
C16H20ClN3

>  <InChI>
InChI=1S/C16H20ClN3/c1-12-9-16(4-6-19-7-5-16)11-20(12)14-3-2-13(10-18)15(17)8-14/h2-3,8,12,19H,4-7,9,11H2,1H3/t12-/m0/s1

>  <InChI Key>
VIWFUEBSMLFMNH-LBPRGKRZSA-N

>  <BindingDB>


>  <PubChem>
156180657

>  <ChEMBL>


$$$$
Compound 1071
Actelion Java MolfileCreator 2.0

  0  0  0  0  0  0              0 V3000
M  V30 BEGIN CTAB
M  V30 COUNTS 21 23 0 0 0
M  V30 BEGIN ATOM
M  V30 1 Cl 0.0 0.0 0.0 0
M  V30 2 C 1.0297 -1.0771 0.0 0
M  V30 3 C 0.5918 -2.5093 0.0 0
M  V30 4 C 2.4857 -0.7102 0.0 0
M  V30 5 C -0.8877 -2.8526 0.0 0
M  V30 6 C 1.6216 -3.5865 0.0 0
M  V30 7 C 3.5155 -1.7873 0.0 0
M  V30 8 C 2.9 0.7457 0.0 0
M  V30 9 N -2.3673 -3.1959 0.0 0
M  V30 10 C 3.0775 -3.2196 0.0 0
M  V30 11 N 4.9714 -1.4204 0.0 0
M  V30 12 C 6.1077 -2.3791 0.0 0 CFG=2
M  V30 13 C 5.5277 -0.0118 0.0 0
M  V30 14 C 7.3743 -1.5742 0.0 0
M  V30 15 C 5.9775 -3.8706 0.0 0
M  V30 16 C 7.0192 -0.1183 0.0 0
M  V30 17 C 7.5636 -3.0538 0.0 0
M  V30 18 C 8.5579 -0.6391 0.0 0
M  V30 19 C 8.9486 -3.6102 0.0 0
M  V30 20 C 9.9428 -1.1955 0.0 0
M  V30 21 N 10.1322 -2.6751 0.0 0
M  V30 END ATOM
M  V30 BEGIN BOND
M  V30 1 1 1 2
M  V30 2 2 2 3
M  V30 3 1 2 4
M  V30 4 1 3 5
M  V30 5 1 3 6
M  V30 6 2 4 7
M  V30 7 1 4 8
M  V30 8 3 5 9
M  V30 9 2 6 10
M  V30 10 1 7 11
M  V30 11 1 11 12
M  V30 12 1 11 13
M  V30 13 1 12 14
M  V30 14 1 12 15 CFG=3
M  V30 15 1 13 16
M  V30 16 1 14 17
M  V30 17 1 14 18
M  V30 18 1 17 19
M  V30 19 1 18 20
M  V30 20 1 19 21
M  V30 21 1 7 10
M  V30 22 1 14 16
M  V30 23 1 20 21
M  V30 END BOND
M  V30 BEGIN COLLECTION
M  V30 MDLV30/STERAC1 ATOMS=(1 12)
M  V30 END COLLECTION
M  V30 END CTAB
M  END
>  <Compound ID>
337

>  <Name>


>  <Uniprot>
P10275

>  <Target>
AR

>  <Smiles>
CC1=C(N2CCC3(CCNCC3)C2C)C=CC(C#N)=C1Cl

>  <Kd (nM)>


>  <Assay (Kd)>


>  <Ki (nM)>


>  <Assay (Ki)>


>  <IC50 (nM)>


>  <Assay (IC50)>


>  <EC50 (nM)>


>  <Assay (EC50)>


>  <Article DOI>
10.1021/acsmedchemlett.1c00498

>  <Molecular Weight>
303.837

>  <Exact Mass>
303.150225384

>  <XLogP3>
3.49

>  <Heavy Atom Count>
21

>  <Ring Count>
3

>  <Hydrogen Bond Acceptor Count>
3

>  <Hydrogen Bond Donor Count>
1

>  <Rotatable Bond Count>
1

>  <Topological Polar Surface Area>
39.06

>  <Molecular Formula>
C17H22ClN3

>  <InChI>
InChI=1S/C17H22ClN3/c1-12-15(4-3-14(11-19)16(12)18)21-10-7-17(13(21)2)5-8-20-9-6-17/h3-4,13,20H,5-10H2,1-2H3

>  <InChI Key>
NGVNWBMUGGXHTH-UHFFFAOYSA-N

>  <BindingDB>


>  <PubChem>


>  <ChEMBL>


$$$$
Compound 1072
Actelion Java MolfileCreator 2.0

  0  0  0  0  0  0              0 V3000
M  V30 BEGIN CTAB
M  V30 COUNTS 21 23 0 0 0
M  V30 BEGIN ATOM
M  V30 1 Cl 0.0 0.0 0.0 0
M  V30 2 C 1.0055 1.1239 0.0 0
M  V30 3 C 0.5442 2.5672 0.0 0
M  V30 4 C 2.4607 0.8044 0.0 0
M  V30 5 C -0.9346 2.9103 0.0 0
M  V30 6 C 1.5498 3.6911 0.0 0
M  V30 7 C 3.4663 1.9283 0.0 0
M  V30 8 N -2.4134 3.2534 0.0 0
M  V30 9 C 3.0049 3.3717 0.0 0
M  V30 10 N 4.9215 1.6089 0.0 0
M  V30 11 C 5.513 0.2484 0.0 0 CFG=2
M  V30 12 C 6.0335 2.6145 0.0 0
M  V30 13 C 6.9918 0.4022 0.0 0
M  V30 14 C 4.744 -1.0292 0.0 0
M  V30 15 C 7.3112 1.8692 0.0 0
M  V30 16 C 3.2297 -1.0055 0.0 0
M  V30 17 C 8.5061 0.9819 0.0 0
M  V30 18 C 7.465 3.3717 0.0 0
M  V30 19 C 9.8666 1.5971 0.0 0
M  V30 20 C 8.8255 3.9868 0.0 0
M  V30 21 N 10.0204 3.0996 0.0 0
M  V30 END ATOM
M  V30 BEGIN BOND
M  V30 1 1 1 2
M  V30 2 2 2 3
M  V30 3 1 2 4
M  V30 4 1 3 5
M  V30 5 1 3 6
M  V30 6 2 4 7
M  V30 7 3 5 8
M  V30 8 2 6 9
M  V30 9 1 7 10
M  V30 10 1 10 11
M  V30 11 1 10 12
M  V30 12 1 11 13
M  V30 13 1 11 14 CFG=3
M  V30 14 1 12 15
M  V30 15 1 14 16
M  V30 16 1 15 17
M  V30 17 1 15 18
M  V30 18 1 17 19
M  V30 19 1 18 20
M  V30 20 1 19 21
M  V30 21 1 7 9
M  V30 22 1 13 15
M  V30 23 1 20 21
M  V30 END BOND
M  V30 BEGIN COLLECTION
M  V30 MDLV30/STEABS ATOMS=(1 11)
M  V30 END COLLECTION
M  V30 END CTAB
M  END
>  <Compound ID>
338

>  <Name>


>  <Uniprot>
P10275

>  <Target>
AR

>  <Smiles>
CC[C@H]1CC2(CCNCC2)CN1C1=CC=C(C#N)C(Cl)=C1

>  <Kd (nM)>


>  <Assay (Kd)>


>  <Ki (nM)>


>  <Assay (Ki)>


>  <IC50 (nM)>


>  <Assay (IC50)>


>  <EC50 (nM)>


>  <Assay (EC50)>


>  <Article DOI>


>  <Molecular Weight>
303.837

>  <Exact Mass>
303.150225384

>  <XLogP3>
3.66

>  <Heavy Atom Count>
21

>  <Ring Count>
3

>  <Hydrogen Bond Acceptor Count>
3

>  <Hydrogen Bond Donor Count>
1

>  <Rotatable Bond Count>
2

>  <Topological Polar Surface Area>
39.06

>  <Molecular Formula>
C17H22ClN3

>  <InChI>
InChI=1S/C17H22ClN3/c1-2-14-10-17(5-7-20-8-6-17)12-21(14)15-4-3-13(11-19)16(18)9-15/h3-4,9,14,20H,2,5-8,10,12H2,1H3/t14-/m0/s1

>  <InChI Key>
DSSAEVPIHZHWIL-AWEZNQCLSA-N

>  <BindingDB>


>  <PubChem>
156190648

>  <ChEMBL>


$$$$
Compound 1073
Actelion Java MolfileCreator 2.0

  0  0  0  0  0  0              0 V3000
M  V30 BEGIN CTAB
M  V30 COUNTS 28 31 0 0 0
M  V30 BEGIN ATOM
M  V30 1 O 0.0 0.0 0.0 0
M  V30 2 C 0.8475 1.2359 0.0 0
M  V30 3 N 0.2001 2.6014 0.0 0
M  V30 4 C 2.3307 1.1182 0.0 0
M  V30 5 C -1.3066 2.7426 0.0 0
M  V30 6 N 3.1782 2.3542 0.0 0
M  V30 7 C 2.9545 -0.2236 0.0 0
M  V30 8 C -2.1776 1.5302 0.0 0
M  V30 9 C -1.954 4.1081 0.0 0
M  V30 10 C 4.6614 2.2365 0.0 0
M  V30 11 C 4.4377 -0.3413 0.0 0
M  V30 12 O -1.5538 0.1883 0.0 0
M  V30 13 C -3.6843 1.6715 0.0 0
M  V30 14 C -3.4607 4.2494 0.0 0
M  V30 15 C 5.5089 3.4725 0.0 0
M  V30 16 C 5.2852 0.8946 0.0 0
M  V30 17 C -2.4248 -1.024 0.0 0
M  V30 18 C -4.3318 3.0369 0.0 0
M  V30 19 N 6.9921 3.5078 0.0 0
M  V30 20 C 5.0027 4.8968 0.0 0
M  V30 21 N -5.8385 3.1782 0.0 0
M  V30 22 N 7.4158 4.9556 0.0 0
M  V30 23 C 6.1798 5.8149 0.0 0
M  V30 24 C -6.4859 4.5436 0.0 0
M  V30 25 C -6.7096 1.9657 0.0 0
M  V30 26 C -7.9926 4.6849 0.0 0
M  V30 27 C -8.2163 2.107 0.0 0
M  V30 28 O -8.8637 3.4725 0.0 0
M  V30 END ATOM
M  V30 BEGIN BOND
M  V30 1 2 1 2
M  V30 2 1 2 3
M  V30 3 1 2 4
M  V30 4 1 3 5
M  V30 5 2 4 6
M  V30 6 1 4 7
M  V30 7 2 5 8
M  V30 8 1 5 9
M  V30 9 1 6 10
M  V30 10 2 7 11
M  V30 11 1 8 12
M  V30 12 1 8 13
M  V30 13 2 9 14
M  V30 14 1 10 15
M  V30 15 2 10 16
M  V30 16 1 12 17
M  V30 17 2 13 18
M  V30 18 1 15 19
M  V30 19 2 15 20
M  V30 20 1 18 21
M  V30 21 1 19 22
M  V30 22 1 20 23
M  V30 23 1 21 24
M  V30 24 1 21 25
M  V30 25 1 24 26
M  V30 26 1 25 27
M  V30 27 1 26 28
M  V30 28 1 11 16
M  V30 29 1 14 18
M  V30 30 2 22 23
M  V30 31 1 27 28
M  V30 END BOND
M  V30 END CTAB
M  END
>  <Compound ID>
339

>  <Name>
GTPL8080

>  <Uniprot>
P51617

>  <Target>
IRAK1

>  <Smiles>
COC1=CC(N2CCOCC2)=CC=C1NC(=O)C1=CC=CC(C2=CC=N[NH]2)=N1

>  <Kd (nM)>


>  <Assay (Kd)>


>  <Ki (nM)>


>  <Assay (Ki)>


>  <IC50 (nM)>
9

>  <Assay (IC50)>
Inhibition of IRAK1 expressed in mammalian expression system by Kinomescan method

>  <EC50 (nM)>


>  <Assay (EC50)>


>  <Article DOI>
10.1021/acsmedchemlett.0c00378

>  <Molecular Weight>
379.42

>  <Exact Mass>
379.164439532

>  <XLogP3>
1.73

>  <Heavy Atom Count>
28

>  <Ring Count>
4

>  <Hydrogen Bond Acceptor Count>
6

>  <Hydrogen Bond Donor Count>
2

>  <Rotatable Bond Count>
5

>  <Topological Polar Surface Area>
92.37

>  <Molecular Formula>
C20H21N5O3

>  <InChI>
InChI=1S/C20H21N5O3/c1-27-19-13-14(25-9-11-28-12-10-25)5-6-17(19)23-20(26)18-4-2-3-15(22-18)16-7-8-21-24-16/h2-8,13H,9-12H2,1H3,(H,21,24)(H,23,26)

>  <InChI Key>
RAFFLDOJXQAJPF-UHFFFAOYSA-N

>  <BindingDB>
50373415

>  <PubChem>
44449334

>  <ChEMBL>
CHEMBL256713

$$$$
Compound 1074
Actelion Java MolfileCreator 2.0

  0  0  0  0  0  0              0 V3000
M  V30 BEGIN CTAB
M  V30 COUNTS 23 26 0 0 0
M  V30 BEGIN ATOM
M  V30 1 N 0.0 0.0 0.0 0
M  V30 2 C -1.281 0.7874 0.0 0
M  V30 3 C -2.5621 1.5749 0.0 0
M  V30 4 C -2.5386 3.0792 0.0 0 CFG=1
M  V30 5 N -3.8197 3.8667 0.0 0
M  V30 6 C -1.234 3.8079 0.0 0
M  V30 7 N -3.949 5.3711 0.0 0
M  V30 8 C -5.2066 3.3026 0.0 0
M  V30 9 C -1.046 5.3006 0.0 0
M  V30 10 C 0.1057 3.1733 0.0 0
M  V30 11 C -5.4181 5.7354 0.0 0
M  V30 12 C -6.1938 4.4544 0.0 0
M  V30 13 C 0.4113 5.5826 0.0 0
M  V30 14 C 1.1165 4.2663 0.0 0
M  V30 15 C -7.6982 4.3486 0.0 0
M  V30 16 N -8.5562 5.5944 0.0 0
M  V30 17 C -8.3564 3.0087 0.0 0
M  V30 18 C -10.0606 5.4886 0.0 0
M  V30 19 C -9.8608 2.903 0.0 0
M  V30 20 C -7.7922 1.6454 0.0 0
M  V30 21 N -10.7187 4.1488 0.0 0
M  V30 22 N -10.2251 1.4573 0.0 0
M  V30 23 C -8.944 0.6816 0.0 0
M  V30 END ATOM
M  V30 BEGIN BOND
M  V30 1 3 1 2
M  V30 2 1 2 3
M  V30 3 1 3 4
M  V30 4 1 4 5 CFG=1
M  V30 5 1 4 6
M  V30 6 1 5 7
M  V30 7 1 5 8
M  V30 8 1 6 9
M  V30 9 1 6 10
M  V30 10 2 7 11
M  V30 11 2 8 12
M  V30 12 1 9 13
M  V30 13 1 10 14
M  V30 14 1 12 15
M  V30 15 2 15 16
M  V30 16 1 15 17
M  V30 17 1 16 18
M  V30 18 2 17 19
M  V30 19 1 17 20
M  V30 20 2 18 21
M  V30 21 1 19 22
M  V30 22 2 20 23
M  V30 23 1 11 12
M  V30 24 1 13 14
M  V30 25 1 19 21
M  V30 26 1 22 23
M  V30 END BOND
M  V30 BEGIN COLLECTION
M  V30 MDLV30/STEABS ATOMS=(1 4)
M  V30 END COLLECTION
M  V30 END CTAB
M  END
>  <Compound ID>
340

>  <Name>
Ruxolitinib

>  <Uniprot>
O60674

>  <Target>
JAK2

>  <Smiles>
N#CC[C@H](C1CCCC1)N1C=C(C2=NC=NC3=C2C=C[NH]3)C=N1

>  <Kd (nM)>


>  <Assay (Kd)>


>  <Ki (nM)>


>  <Assay (Ki)>


>  <IC50 (nM)>
0.2

>  <Assay (IC50)>
Inhibition of JAK2

>  <EC50 (nM)>


>  <Assay (EC50)>


>  <Article DOI>
10.1021/jm501262q

>  <Molecular Weight>
306.373

>  <Exact Mass>
306.159294576

>  <XLogP3>
2.12

>  <Heavy Atom Count>
23

>  <Ring Count>
4

>  <Hydrogen Bond Acceptor Count>
5

>  <Hydrogen Bond Donor Count>
1

>  <Rotatable Bond Count>
4

>  <Topological Polar Surface Area>
83.18

>  <Molecular Formula>
C17H18N6

>  <InChI>
InChI=1S/C17H18N6/c18-7-5-15(12-3-1-2-4-12)23-10-13(9-22-23)16-14-6-8-19-17(14)21-11-20-16/h6,8-12,15H,1-5H2,(H,19,20,21)/t15-/m1/s1

>  <InChI Key>
HFNKQEVNSGCOJV-OAHLLOKOSA-N

>  <BindingDB>
50355501

>  <PubChem>
25126798

>  <ChEMBL>
CHEMBL1789941

$$$$
Compound 1075
Actelion Java MolfileCreator 2.0

  0  0  0  0  0  0              0 V3000
M  V30 BEGIN CTAB
M  V30 COUNTS 17 19 0 0 0
M  V30 BEGIN ATOM
M  V30 1 N 0.0 0.0 0.0 0
M  V30 2 C 0.296 -1.4565 0.0 0
M  V30 3 C -1.4447 0.4855 0.0 0
M  V30 4 C -0.8407 -2.4512 0.0 0
M  V30 5 C 1.717 -1.9183 0.0 0
M  V30 6 N -2.5815 -0.5092 0.0 0
M  V30 7 C -2.2854 -1.9657 0.0 0
M  V30 8 C -0.8644 -3.9433 0.0 0
M  V30 9 C 2.167 -3.3394 0.0 0
M  V30 10 C 2.9249 -1.0302 0.0 0
M  V30 11 N -3.1854 -3.1618 0.0 0
M  V30 12 C -2.3091 -4.3933 0.0 0
M  V30 13 N 3.6591 -3.3394 0.0 0
M  V30 14 N 4.121 -1.9065 0.0 0
M  V30 15 C 5.542 -1.4328 0.0 0
M  V30 16 C 6.6433 -2.4276 0.0 0
M  V30 17 C 8.0643 -1.9539 0.0 0
M  V30 END ATOM
M  V30 BEGIN BOND
M  V30 1 2 1 2
M  V30 2 1 1 3
M  V30 3 1 2 4
M  V30 4 1 2 5
M  V30 5 2 3 6
M  V30 6 2 4 7
M  V30 7 1 4 8
M  V30 8 1 5 9
M  V30 9 2 5 10
M  V30 10 1 7 11
M  V30 11 2 8 12
M  V30 12 2 9 13
M  V30 13 1 10 14
M  V30 14 1 14 15
M  V30 15 1 15 16
M  V30 16 1 16 17
M  V30 17 1 6 7
M  V30 18 1 11 12
M  V30 19 1 13 14
M  V30 END BOND
M  V30 END CTAB
M  END
>  <Compound ID>
341

>  <Name>


>  <Uniprot>
O60674

>  <Target>
JAK2

>  <Smiles>
CCCN1C=C(C2=NC=NC3=C2C=C[NH]3)C=N1

>  <Kd (nM)>


>  <Assay (Kd)>


>  <Ki (nM)>


>  <Assay (Ki)>


>  <IC50 (nM)>


>  <Assay (IC50)>


>  <EC50 (nM)>


>  <Assay (EC50)>


>  <Article DOI>


>  <Molecular Weight>
227.271

>  <Exact Mass>
227.117095416

>  <XLogP3>
1.46

>  <Heavy Atom Count>
17

>  <Ring Count>
3

>  <Hydrogen Bond Acceptor Count>
4

>  <Hydrogen Bond Donor Count>
1

>  <Rotatable Bond Count>
3

>  <Topological Polar Surface Area>
59.39

>  <Molecular Formula>
C12H13N5

>  <InChI>
InChI=1S/C12H13N5/c1-2-5-17-7-9(6-16-17)11-10-3-4-13-12(10)15-8-14-11/h3-4,6-8H,2,5H2,1H3,(H,13,14,15)

>  <InChI Key>
UVBDUJAQAQMYDA-UHFFFAOYSA-N

>  <BindingDB>


>  <PubChem>
57647441

>  <ChEMBL>


$$$$
Compound 1076
Actelion Java MolfileCreator 2.0

  0  0  0  0  0  0              0 V3000
M  V30 BEGIN CTAB
M  V30 COUNTS 35 39 0 0 0
M  V30 BEGIN ATOM
M  V30 1 O 0.0 0.0 0.0 0
M  V30 2 C 0.1177 1.5076 0.0 0
M  V30 3 N 1.4605 2.1555 0.0 0
M  V30 4 C -1.1189 2.3793 0.0 0
M  V30 5 C -2.5442 1.9081 0.0 0
M  V30 6 C -1.1543 3.887 0.0 0
M  V30 7 N -3.4629 3.1096 0.0 0
M  V30 8 N -3.1449 0.5418 0.0 0
M  V30 9 N -2.6031 4.3346 0.0 0
M  V30 10 C 0.0235 4.8057 0.0 0
M  V30 11 C -4.9588 2.9329 0.0 0 CFG=2
M  V30 12 C -4.6408 0.3651 0.0 0
M  V30 13 C 1.3899 4.2286 0.0 0
M  V30 14 C -0.1766 6.3016 0.0 0
M  V30 15 C -5.8776 4.1343 0.0 0
M  V30 16 C -5.5478 1.5665 0.0 0
M  V30 17 C 2.5677 5.1473 0.0 0
M  V30 18 C 1.0012 7.2204 0.0 0
M  V30 19 C -5.3004 5.5242 0.0 0
M  V30 20 C -7.3735 3.9576 0.0 0
M  V30 21 C 2.3675 6.6432 0.0 0
M  V30 22 C -6.2192 6.7257 0.0 0
M  V30 23 C -8.2922 5.1591 0.0 0
M  V30 24 O 3.5454 7.562 0.0 0
M  V30 25 N -7.7151 6.549 0.0 0
M  V30 26 C 4.9117 6.9966 0.0 0
M  V30 27 C -8.6338 7.7504 0.0 0
M  V30 28 C 5.0884 5.5242 0.0 0
M  V30 29 C 6.0896 7.9153 0.0 0
M  V30 30 O -10.1297 7.5737 0.0 0
M  V30 31 C -8.0685 9.1403 0.0 0
M  V30 32 C 6.4548 4.9471 0.0 0
M  V30 33 C 7.456 7.3382 0.0 0
M  V30 34 C -8.9872 10.3418 0.0 0
M  V30 35 C 7.6326 5.8658 0.0 0
M  V30 END ATOM
M  V30 BEGIN BOND
M  V30 1 2 1 2
M  V30 2 1 2 3
M  V30 3 1 2 4
M  V30 4 2 4 5
M  V30 5 1 4 6
M  V30 6 1 5 7
M  V30 7 1 5 8
M  V30 8 2 6 9
M  V30 9 1 6 10
M  V30 10 1 7 11
M  V30 11 1 8 12
M  V30 12 2 10 13
M  V30 13 1 10 14
M  V30 14 1 11 15 CFG=1
M  V30 15 1 11 16
M  V30 16 1 13 17
M  V30 17 2 14 18
M  V30 18 1 15 19
M  V30 19 1 15 20
M  V30 20 2 17 21
M  V30 21 1 19 22
M  V30 22 1 20 23
M  V30 23 1 21 24
M  V30 24 1 22 25
M  V30 25 1 24 26
M  V30 26 1 25 27
M  V30 27 2 26 28
M  V30 28 1 26 29
M  V30 29 2 27 30
M  V30 30 1 27 31
M  V30 31 1 28 32
M  V30 32 2 29 33
M  V30 33 2 31 34
M  V30 34 2 32 35
M  V30 35 1 7 9
M  V30 36 1 12 16
M  V30 37 1 18 21
M  V30 38 1 23 25
M  V30 39 1 33 35
M  V30 END BOND
M  V30 BEGIN COLLECTION
M  V30 MDLV30/STEABS ATOMS=(1 11)
M  V30 END COLLECTION
M  V30 END CTAB
M  END
>  <Compound ID>
342

>  <Name>
Zanubrutinib

>  <Uniprot>
Q06187

>  <Target>
BTK

>  <Smiles>
C=CC(=O)N1CCC([C@@H]2CCNC3=C(C(N)=O)C(C4=CC=C(OC5=CC=CC=C5)C=C4)=NN32)CC1

>  <Kd (nM)>


>  <Assay (Kd)>


>  <Ki (nM)>


>  <Assay (Ki)>


>  <IC50 (nM)>
2

>  <Assay (IC50)>
IC50 was assessed by the TR-FRET Binding Assay

>  <EC50 (nM)>


>  <Assay (EC50)>


>  <Article DOI>


>  <Molecular Weight>
471.561

>  <Exact Mass>
471.227039788

>  <XLogP3>
3.55

>  <Heavy Atom Count>
35

>  <Ring Count>
5

>  <Hydrogen Bond Acceptor Count>
6

>  <Hydrogen Bond Donor Count>
2

>  <Rotatable Bond Count>
6

>  <Topological Polar Surface Area>
102.48

>  <Molecular Formula>
C27H29N5O3

>  <InChI>
InChI=1S/C27H29N5O3/c1-2-23(33)31-16-13-18(14-17-31)22-12-15-29-27-24(26(28)34)25(30-32(22)27)19-8-10-21(11-9-19)35-20-6-4-3-5-7-20/h2-11,18,22,29H,1,12-17H2,(H2,28,34)/t22-/m0/s1

>  <InChI Key>
RNOAOAWBMHREKO-QFIPXVFZSA-N

>  <BindingDB>
250082

>  <PubChem>
135565884

>  <ChEMBL>
CHEMBL3936761

$$$$
Compound 1077
Actelion Java MolfileCreator 2.0

  0  0  0  0  0  0              0 V3000
M  V30 BEGIN CTAB
M  V30 COUNTS 21 22 0 0 0
M  V30 BEGIN ATOM
M  V30 1 O 0.0 0.0 0.0 0
M  V30 2 C 1.494 -0.0237 0.0 0
M  V30 3 N 2.2648 1.2806 0.0 0
M  V30 4 C 2.2055 -1.328 0.0 0
M  V30 5 C 3.7589 1.2569 0.0 0
M  V30 6 C 1.5296 2.6087 0.0 0
M  V30 7 C 3.6996 -1.3517 0.0 0
M  V30 8 C 1.411 -2.6087 0.0 0
M  V30 9 C 4.4703 -0.0474 0.0 0
M  V30 10 C 4.4111 -2.6561 0.0 0
M  V30 11 C 5.9644 -0.0711 0.0 0
M  V30 12 C 6.6759 -1.3755 0.0 0
M  V30 13 C 6.7352 1.2332 0.0 0
M  V30 14 C 8.17 -1.3992 0.0 0
M  V30 15 C 8.2293 1.2094 0.0 0
M  V30 16 O 8.8815 -2.7035 0.0 0
M  V30 17 C 8.9407 -0.0948 0.0 0
M  V30 18 O 9.0 2.5138 0.0 0
M  V30 19 C 8.087 -3.9842 0.0 0
M  V30 20 C 10.4348 -0.1185 0.0 0
M  V30 21 C 8.2648 3.8419 0.0 0
M  V30 END ATOM
M  V30 BEGIN BOND
M  V30 1 2 1 2
M  V30 2 1 2 3
M  V30 3 1 2 4
M  V30 4 1 3 5
M  V30 5 1 3 6
M  V30 6 2 4 7
M  V30 7 1 4 8
M  V30 8 2 5 9
M  V30 9 1 7 10
M  V30 10 1 9 11
M  V30 11 2 11 12
M  V30 12 1 11 13
M  V30 13 1 12 14
M  V30 14 2 13 15
M  V30 15 1 14 16
M  V30 16 2 14 17
M  V30 17 1 15 18
M  V30 18 1 16 19
M  V30 19 1 17 20
M  V30 20 1 18 21
M  V30 21 1 7 9
M  V30 22 1 15 17
M  V30 END BOND
M  V30 END CTAB
M  END
>  <Compound ID>
343

>  <Name>


>  <Uniprot>
Q9H8M2

>  <Target>
BRD9

>  <Smiles>
COC1=CC(C2=CN(C)C(=O)C(C)=C2C)=CC(OC)=C1C

>  <Kd (nM)>


>  <Assay (Kd)>


>  <Ki (nM)>


>  <Assay (Ki)>


>  <IC50 (nM)>


>  <Assay (IC50)>


>  <EC50 (nM)>


>  <Assay (EC50)>


>  <Article DOI>


>  <Molecular Weight>
287.359

>  <Exact Mass>
287.152143532

>  <XLogP3>
2.16

>  <Heavy Atom Count>
21

>  <Ring Count>
2

>  <Hydrogen Bond Acceptor Count>
4

>  <Hydrogen Bond Donor Count>
0

>  <Rotatable Bond Count>
3

>  <Topological Polar Surface Area>
40.46

>  <Molecular Formula>
C17H21NO3

>  <InChI>
InChI=1S/C17H21NO3/c1-10-11(2)17(19)18(4)9-14(10)13-7-15(20-5)12(3)16(8-13)21-6/h7-9H,1-6H3

>  <InChI Key>
YFKVCZBWAMMQLU-UHFFFAOYSA-N

>  <BindingDB>


>  <PubChem>
156187758

>  <ChEMBL>


$$$$
Compound 1078
Actelion Java MolfileCreator 2.0

  0  0  0  0  0  0              0 V3000
M  V30 BEGIN CTAB
M  V30 COUNTS 24 26 0 0 0
M  V30 BEGIN ATOM
M  V30 1 O 0.0 0.0 0.0 0
M  V30 2 C 1.2433 -0.8288 0.0 0
M  V30 3 N 1.1249 -2.3208 0.0 0
M  V30 4 C 2.5813 -0.1539 0.0 0
M  V30 5 C 2.3682 -3.1497 0.0 0
M  V30 6 C -0.2368 -2.9721 0.0 0
M  V30 7 C 3.8247 -0.9828 0.0 0
M  V30 8 C 2.6761 1.3617 0.0 0
M  V30 9 C 3.7063 -2.4748 0.0 0
M  V30 10 C -0.3552 -4.4641 0.0 0
M  V30 11 C 5.1627 -0.3078 0.0 0
M  V30 12 N 4.0141 2.0366 0.0 0
M  V30 13 C 4.9496 -3.3037 0.0 0
M  V30 14 C -1.7169 -5.1154 0.0 0
M  V30 15 C 5.2575 1.2078 0.0 0
M  V30 16 C 6.2877 -2.6287 0.0 0
M  V30 17 C 4.8312 -4.7957 0.0 0
M  V30 18 C -1.8353 -6.6074 0.0 0
M  V30 19 C 7.531 -3.4576 0.0 0
M  V30 20 C 6.0745 -5.6246 0.0 0
M  V30 21 O 8.8691 -2.7826 0.0 0
M  V30 22 C 7.4126 -4.9496 0.0 0
M  V30 23 C 8.9638 -1.267 0.0 0
M  V30 24 O 8.6559 -5.7785 0.0 0
M  V30 END ATOM
M  V30 BEGIN BOND
M  V30 1 2 1 2
M  V30 2 1 2 3
M  V30 3 1 2 4
M  V30 4 1 3 5
M  V30 5 1 3 6
M  V30 6 2 4 7
M  V30 7 1 4 8
M  V30 8 2 5 9
M  V30 9 1 6 10
M  V30 10 1 7 11
M  V30 11 2 8 12
M  V30 12 1 9 13
M  V30 13 1 10 14
M  V30 14 2 11 15
M  V30 15 2 13 16
M  V30 16 1 13 17
M  V30 17 1 14 18
M  V30 18 1 16 19
M  V30 19 2 17 20
M  V30 20 1 19 21
M  V30 21 2 19 22
M  V30 22 1 21 23
M  V30 23 1 22 24
M  V30 24 1 7 9
M  V30 25 1 12 15
M  V30 26 1 20 22
M  V30 END BOND
M  V30 END CTAB
M  END
>  <Compound ID>
344

>  <Name>


>  <Uniprot>
Q9H8M2

>  <Target>
BRD9

>  <Smiles>
CCCCN1C=C(C2=CC=C(O)C(OC)=C2)C2=CC=NC=C2C1=O

>  <Kd (nM)>


>  <Assay (Kd)>


>  <Ki (nM)>


>  <Assay (Ki)>


>  <IC50 (nM)>


>  <Assay (IC50)>


>  <EC50 (nM)>


>  <Assay (EC50)>


>  <Article DOI>
10.1021/acsmedchemlett.1c00580

>  <Molecular Weight>
324.38

>  <Exact Mass>
324.1473925

>  <XLogP3>
2.49

>  <Heavy Atom Count>
24

>  <Ring Count>
3

>  <Hydrogen Bond Acceptor Count>
5

>  <Hydrogen Bond Donor Count>
1

>  <Rotatable Bond Count>
5

>  <Topological Polar Surface Area>
64.35

>  <Molecular Formula>
C19H20N2O3

>  <InChI>
InChI=1S/C19H20N2O3/c1-3-4-9-21-12-16(13-5-6-17(22)18(10-13)24-2)14-7-8-20-11-15(14)19(21)23/h5-8,10-12,22H,3-4,9H2,1-2H3

>  <InChI Key>
ZNCWJZMLWNQROM-UHFFFAOYSA-N

>  <BindingDB>


>  <PubChem>
156707485

>  <ChEMBL>


$$$$
Compound 1079
Actelion Java MolfileCreator 2.0

  0  0  0  0  0  0              0 V3000
M  V30 BEGIN CTAB
M  V30 COUNTS 26 28 0 0 0
M  V30 BEGIN ATOM
M  V30 1 O 0.0 0.0 0.0 0
M  V30 2 C 1.3687 -0.6017 0.0 0
M  V30 3 N 1.5103 -2.0885 0.0 0
M  V30 4 C 2.5723 0.2949 0.0 0
M  V30 5 C 2.8791 -2.6903 0.0 0
M  V30 6 C 0.2831 -2.9617 0.0 0
M  V30 7 C 3.9411 -0.3067 0.0 0
M  V30 8 C 2.4071 1.8053 0.0 0
M  V30 9 C 4.0827 -1.7935 0.0 0
M  V30 10 C 0.4247 -4.4485 0.0 0
M  V30 11 C 5.1447 0.5899 0.0 0
M  V30 12 N 3.6107 2.7021 0.0 0
M  V30 13 C 5.4515 -2.3953 0.0 0
M  V30 14 C -0.8023 -5.3217 0.0 0
M  V30 15 C 4.9795 2.1003 0.0 0
M  V30 16 C 5.5931 -3.8821 0.0 0
M  V30 17 C 6.6551 -1.4985 0.0 0
M  V30 18 C -0.6607 -6.8085 0.0 0
M  V30 19 C 6.9619 -4.4839 0.0 0
M  V30 20 C 8.0239 -2.1003 0.0 0
M  V30 21 O 7.1035 -5.9707 0.0 0
M  V30 22 C 8.1655 -3.5871 0.0 0
M  V30 23 O 9.2275 -1.2035 0.0 0
M  V30 24 C 5.8763 -6.8439 0.0 0
M  V30 25 C 9.5343 -4.1889 0.0 0
M  V30 26 C 9.0623 0.3067 0.0 0
M  V30 END ATOM
M  V30 BEGIN BOND
M  V30 1 2 1 2
M  V30 2 1 2 3
M  V30 3 1 2 4
M  V30 4 1 3 5
M  V30 5 1 3 6
M  V30 6 2 4 7
M  V30 7 1 4 8
M  V30 8 2 5 9
M  V30 9 1 6 10
M  V30 10 1 7 11
M  V30 11 2 8 12
M  V30 12 1 9 13
M  V30 13 1 10 14
M  V30 14 2 11 15
M  V30 15 2 13 16
M  V30 16 1 13 17
M  V30 17 1 14 18
M  V30 18 1 16 19
M  V30 19 2 17 20
M  V30 20 1 19 21
M  V30 21 2 19 22
M  V30 22 1 20 23
M  V30 23 1 21 24
M  V30 24 1 22 25
M  V30 25 1 23 26
M  V30 26 1 7 9
M  V30 27 1 12 15
M  V30 28 1 20 22
M  V30 END BOND
M  V30 END CTAB
M  END
>  <Compound ID>
345

>  <Name>


>  <Uniprot>
Q9H8M2

>  <Target>
BRD9

>  <Smiles>
CCCCN1C=C(C2=CC(OC)=C(C)C(OC)=C2)C2=CC=NC=C2C1=O

>  <Kd (nM)>


>  <Assay (Kd)>


>  <Ki (nM)>


>  <Assay (Ki)>


>  <IC50 (nM)>


>  <Assay (IC50)>


>  <EC50 (nM)>


>  <Assay (EC50)>


>  <Article DOI>


>  <Molecular Weight>
352.434

>  <Exact Mass>
352.178692628

>  <XLogP3>
3.18

>  <Heavy Atom Count>
26

>  <Ring Count>
3

>  <Hydrogen Bond Acceptor Count>
5

>  <Hydrogen Bond Donor Count>
0

>  <Rotatable Bond Count>
6

>  <Topological Polar Surface Area>
53.35

>  <Molecular Formula>
C21H24N2O3

>  <InChI>
InChI=1S/C21H24N2O3/c1-5-6-9-23-13-18(16-7-8-22-12-17(16)21(23)24)15-10-19(25-3)14(2)20(11-15)26-4/h7-8,10-13H,5-6,9H2,1-4H3

>  <InChI Key>
FWBLIZCCLZTRMH-UHFFFAOYSA-N

>  <BindingDB>


>  <PubChem>
156187666

>  <ChEMBL>


$$$$
Compound 1080
Actelion Java MolfileCreator 2.0

  0  0  0  0  0  0              0 V3000
M  V30 BEGIN CTAB
M  V30 COUNTS 24 26 0 0 0
M  V30 BEGIN ATOM
M  V30 1 F 0.0 0.0 0.0 0
M  V30 2 C -0.2326 1.4891 0.0 0
M  V30 3 C 0.9307 2.4314 0.0 0
M  V30 4 C -1.6287 2.0475 0.0 0
M  V30 5 O 2.3034 1.8963 0.0 0
M  V30 6 C 0.698 3.9205 0.0 0
M  V30 7 C -1.8614 3.5366 0.0 0
M  V30 8 F 1.8614 4.8629 0.0 0
M  V30 9 C -0.698 4.479 0.0 0
M  V30 10 C -3.2574 4.0951 0.0 0
M  V30 11 C -3.4901 5.5842 0.0 0
M  V30 12 C -4.4441 3.176 0.0 0
M  V30 13 C -4.8862 6.1426 0.0 0
M  V30 14 C -2.3267 6.5265 0.0 0
M  V30 15 N -5.8401 3.7344 0.0 0
M  V30 16 C -6.0728 5.2235 0.0 0
M  V30 17 C -5.1188 7.6317 0.0 0
M  V30 18 C -2.5594 8.0156 0.0 0
M  V30 19 C -7.0268 2.8153 0.0 0
M  V30 20 O -7.4689 5.782 0.0 0
M  V30 21 N -3.9554 8.5741 0.0 0
M  V30 22 C -6.8174 1.3495 0.0 0
M  V30 23 C -8.004 0.4304 0.0 0
M  V30 24 C -7.7946 -1.0354 0.0 0
M  V30 END ATOM
M  V30 BEGIN BOND
M  V30 1 1 1 2
M  V30 2 2 2 3
M  V30 3 1 2 4
M  V30 4 1 3 5
M  V30 5 1 3 6
M  V30 6 2 4 7
M  V30 7 1 6 8
M  V30 8 2 6 9
M  V30 9 1 7 10
M  V30 10 1 10 11
M  V30 11 2 10 12
M  V30 12 2 11 13
M  V30 13 1 11 14
M  V30 14 1 12 15
M  V30 15 1 13 16
M  V30 16 1 13 17
M  V30 17 2 14 18
M  V30 18 1 15 19
M  V30 19 2 16 20
M  V30 20 2 17 21
M  V30 21 1 19 22
M  V30 22 1 22 23
M  V30 23 1 23 24
M  V30 24 1 7 9
M  V30 25 1 15 16
M  V30 26 1 18 21
M  V30 END BOND
M  V30 END CTAB
M  END
>  <Compound ID>
346

>  <Name>


>  <Uniprot>
Q9H8M2

>  <Target>
BRD9

>  <Smiles>
CCCCN1C=C(C2=CC(F)=C(O)C(F)=C2)C2=CC=NC=C2C1=O

>  <Kd (nM)>


>  <Assay (Kd)>


>  <Ki (nM)>


>  <Assay (Ki)>


>  <IC50 (nM)>


>  <Assay (IC50)>


>  <EC50 (nM)>


>  <Assay (EC50)>


>  <Article DOI>


>  <Molecular Weight>
330.334

>  <Exact Mass>
330.117984192

>  <XLogP3>
2.72

>  <Heavy Atom Count>
24

>  <Ring Count>
3

>  <Hydrogen Bond Acceptor Count>
4

>  <Hydrogen Bond Donor Count>
1

>  <Rotatable Bond Count>
4

>  <Topological Polar Surface Area>
55.12

>  <Molecular Formula>
C18H16F2N2O2

>  <InChI>
InChI=1S/C18H16F2N2O2/c1-2-3-6-22-10-14(11-7-15(19)17(23)16(20)8-11)12-4-5-21-9-13(12)18(22)24/h4-5,7-10,23H,2-3,6H2,1H3

>  <InChI Key>
GGBMVUMNFQFRRX-UHFFFAOYSA-N

>  <BindingDB>


>  <PubChem>
156177726

>  <ChEMBL>


$$$$
Compound 1081
Actelion Java MolfileCreator 2.0

  0  0  0  0  0  0              0 V3000
M  V30 BEGIN CTAB
M  V30 COUNTS 22 25 0 0 0
M  V30 BEGIN ATOM
M  V30 1 O 0.0 0.0 0.0 0
M  V30 2 C -0.2445 -1.467 0.0 0
M  V30 3 C -1.6533 -1.991 0.0 0
M  V30 4 C 0.9082 -2.3985 0.0 0
M  V30 5 C -2.8293 -1.0362 0.0 0
M  V30 6 C -1.8979 -3.4581 0.0 0
M  V30 7 C 0.6636 -3.8656 0.0 0
M  V30 8 N -2.6081 0.4541 0.0 0
M  V30 9 C -4.2382 -1.5602 0.0 0
M  V30 10 C -0.7451 -4.3896 0.0 0
M  V30 11 N -3.7841 1.4088 0.0 0
M  V30 12 C -5.4142 -0.6054 0.0 0
M  V30 13 C -5.193 0.8849 0.0 0
M  V30 14 N -6.8231 -1.1294 0.0 0
M  V30 15 N -6.369 1.8396 0.0 0
M  V30 16 C -7.0676 -2.5965 0.0 0
M  V30 17 C -7.9991 -0.1746 0.0 0
M  V30 18 C -8.4765 -3.1204 0.0 0
M  V30 19 C -9.408 -0.6986 0.0 0
M  V30 20 N -9.6525 -2.1657 0.0 0
M  V30 21 C -7.9525 -4.506 0.0 0
M  V30 22 C -9.4313 -4.2731 0.0 0
M  V30 END ATOM
M  V30 BEGIN BOND
M  V30 1 1 1 2
M  V30 2 2 2 3
M  V30 3 1 2 4
M  V30 4 1 3 5
M  V30 5 1 3 6
M  V30 6 2 4 7
M  V30 7 2 5 8
M  V30 8 1 5 9
M  V30 9 2 6 10
M  V30 10 1 8 11
M  V30 11 2 9 12
M  V30 12 2 11 13
M  V30 13 1 12 14
M  V30 14 1 13 15
M  V30 15 1 14 16
M  V30 16 1 14 17
M  V30 17 1 16 18
M  V30 18 1 17 19
M  V30 19 1 18 20
M  V30 20 1 18 21
M  V30 21 1 18 22
M  V30 22 1 7 10
M  V30 23 1 12 13
M  V30 24 1 19 20
M  V30 25 1 21 22
M  V30 END BOND
M  V30 END CTAB
M  END
>  <Compound ID>
347

>  <Name>


>  <Uniprot>
P51531

>  <Target>
SMARCA2

>  <Smiles>
NC1=NN=C(C2=CC=CC=C2O)C=C1N1CCNC2(CC2)C1

>  <Kd (nM)>


>  <Assay (Kd)>


>  <Ki (nM)>


>  <Assay (Ki)>


>  <IC50 (nM)>


>  <Assay (IC50)>


>  <EC50 (nM)>


>  <Assay (EC50)>


>  <Article DOI>


>  <Molecular Weight>
297.362

>  <Exact Mass>
297.158960228

>  <XLogP3>
0.64

>  <Heavy Atom Count>
22

>  <Ring Count>
4

>  <Hydrogen Bond Acceptor Count>
6

>  <Hydrogen Bond Donor Count>
3

>  <Rotatable Bond Count>
2

>  <Topological Polar Surface Area>
87.3

>  <Molecular Formula>
C16H19N5O

>  <InChI>
InChI=1S/C16H19N5O/c17-15-13(21-8-7-18-16(10-21)5-6-16)9-12(19-20-15)11-3-1-2-4-14(11)22/h1-4,9,18,22H,5-8,10H2,(H2,17,20)

>  <InChI Key>
JBOBILJJMXEQDL-UHFFFAOYSA-N

>  <BindingDB>


>  <PubChem>
156319115

>  <ChEMBL>


$$$$
Compound 1082
Actelion Java MolfileCreator 2.0

  0  0  0  0  0  0              0 V3000
M  V30 BEGIN CTAB
M  V30 COUNTS 22 25 0 0 0
M  V30 BEGIN ATOM
M  V30 1 O 0.0 0.0 0.0 0
M  V30 2 C -0.1409 -1.4797 0.0 0
M  V30 3 C -1.5149 -2.1021 0.0 0
M  V30 4 C 1.0686 -2.3252 0.0 0
M  V30 5 C -2.748 -1.2331 0.0 0
M  V30 6 C -1.6558 -3.5818 0.0 0
M  V30 7 C 0.9277 -3.805 0.0 0
M  V30 8 N -2.6306 0.2701 0.0 0
M  V30 9 C -4.1221 -1.8555 0.0 0
M  V30 10 C -0.4462 -4.4274 0.0 0
M  V30 11 N -3.8637 1.1391 0.0 0
M  V30 12 C -5.3552 -0.9864 0.0 0
M  V30 13 C -5.2377 0.5167 0.0 0
M  V30 14 N -6.7292 -1.6089 0.0 0
M  V30 15 N -6.4708 1.3857 0.0 0
M  V30 16 C -6.8701 -3.0886 0.0 0
M  V30 17 C -7.9623 -0.7398 0.0 0
M  V30 18 C -8.2442 -3.711 0.0 0
M  V30 19 C -9.2659 -1.5149 0.0 0
M  V30 20 N -7.9741 -2.2313 0.0 0
M  V30 21 C -9.7474 -3.8754 0.0 0
M  V30 22 C -10.3698 -2.5249 0.0 0
M  V30 END ATOM
M  V30 BEGIN BOND
M  V30 1 1 1 2
M  V30 2 2 2 3
M  V30 3 1 2 4
M  V30 4 1 3 5
M  V30 5 1 3 6
M  V30 6 2 4 7
M  V30 7 2 5 8
M  V30 8 1 5 9
M  V30 9 2 6 10
M  V30 10 1 8 11
M  V30 11 2 9 12
M  V30 12 2 11 13
M  V30 13 1 12 14
M  V30 14 1 13 15
M  V30 15 1 14 16
M  V30 16 1 14 17
M  V30 17 1 16 18
M  V30 18 1 17 19
M  V30 19 1 18 20
M  V30 20 1 18 21
M  V30 21 1 19 22
M  V30 22 1 7 10
M  V30 23 1 12 13
M  V30 24 1 19 20
M  V30 25 1 21 22
M  V30 END BOND
M  V30 END CTAB
M  END
>  <Compound ID>
348

>  <Name>


>  <Uniprot>
P51531

>  <Target>
SMARCA2

>  <Smiles>
NC1=NN=C(C2=CC=CC=C2O)C=C1N1CC2CCC(C1)N2

>  <Kd (nM)>


>  <Assay (Kd)>


>  <Ki (nM)>


>  <Assay (Ki)>


>  <IC50 (nM)>


>  <Assay (IC50)>


>  <EC50 (nM)>


>  <Assay (EC50)>


>  <Article DOI>


>  <Molecular Weight>
297.362

>  <Exact Mass>
297.158960228

>  <XLogP3>
0.89

>  <Heavy Atom Count>
22

>  <Ring Count>
4

>  <Hydrogen Bond Acceptor Count>
6

>  <Hydrogen Bond Donor Count>
3

>  <Rotatable Bond Count>
2

>  <Topological Polar Surface Area>
87.3

>  <Molecular Formula>
C16H19N5O

>  <InChI>
InChI=1S/C16H19N5O/c17-16-14(21-8-10-5-6-11(9-21)18-10)7-13(19-20-16)12-3-1-2-4-15(12)22/h1-4,7,10-11,18,22H,5-6,8-9H2,(H2,17,20)

>  <InChI Key>
BGGAPIKREKZNIF-UHFFFAOYSA-N

>  <BindingDB>


>  <PubChem>
139530773

>  <ChEMBL>


$$$$
Compound 1083
Actelion Java MolfileCreator 2.0

  0  0  0  0  0  0              0 V3000
M  V30 BEGIN CTAB
M  V30 COUNTS 25 28 0 0 0
M  V30 BEGIN ATOM
M  V30 1 O 0.0 0.0 0.0 0
M  V30 2 C 1.2498 -0.8017 0.0 0
M  V30 3 C -1.3441 -0.672 0.0 0
M  V30 4 C 1.1672 -2.2874 0.0 0
M  V30 5 C 2.5703 -0.1061 0.0 0
M  V30 6 C -1.8157 -2.0869 0.0 0
M  V30 7 C -2.7826 -0.2004 0.0 0
M  V30 8 C 2.4171 -3.0891 0.0 0
M  V30 9 C 3.8202 -0.9078 0.0 0
M  V30 10 N -3.2542 -1.6153 0.0 0
M  V30 11 C 3.7376 -2.3935 0.0 0
M  V30 12 C -4.5984 -2.2874 0.0 0
M  V30 13 C -4.6809 -3.773 0.0 0
M  V30 14 C -5.8718 -1.462 0.0 0
M  V30 15 N -6.0251 -4.4451 0.0 0
M  V30 16 N -3.4311 -4.5748 0.0 0
M  V30 17 C -7.2159 -2.1341 0.0 0
M  V30 18 N -7.2985 -3.6197 0.0 0
M  V30 19 C -8.4893 -1.3087 0.0 0
M  V30 20 C -9.8335 -1.9808 0.0 0
M  V30 21 C -8.4304 0.2004 0.0 0
M  V30 22 O -9.916 -3.4664 0.0 0
M  V30 23 C -11.1069 -1.1554 0.0 0
M  V30 24 C -9.7038 1.0258 0.0 0
M  V30 25 C -11.0479 0.3537 0.0 0
M  V30 END ATOM
M  V30 BEGIN BOND
M  V30 1 1 1 2
M  V30 2 1 1 3
M  V30 3 2 2 4
M  V30 4 1 2 5
M  V30 5 1 3 6
M  V30 6 1 3 7
M  V30 7 1 4 8
M  V30 8 2 5 9
M  V30 9 1 6 10
M  V30 10 2 8 11
M  V30 11 1 10 12
M  V30 12 2 12 13
M  V30 13 1 12 14
M  V30 14 1 13 15
M  V30 15 1 13 16
M  V30 16 2 14 17
M  V30 17 2 15 18
M  V30 18 1 17 19
M  V30 19 2 19 20
M  V30 20 1 19 21
M  V30 21 1 20 22
M  V30 22 1 20 23
M  V30 23 2 21 24
M  V30 24 2 23 25
M  V30 25 1 7 10
M  V30 26 1 9 11
M  V30 27 1 17 18
M  V30 28 1 24 25
M  V30 END BOND
M  V30 END CTAB
M  END
>  <Compound ID>
349

>  <Name>


>  <Uniprot>
P51531

>  <Target>
SMARCA2

>  <Smiles>
NC1=NN=C(C2=CC=CC=C2O)C=C1N1CC(OC2=CC=CC=C2)C1

>  <Kd (nM)>


>  <Assay (Kd)>


>  <Ki (nM)>


>  <Assay (Ki)>


>  <IC50 (nM)>
35.6

>  <Assay (IC50)>
IC50 was assessed by the TR-FRET Binding Assay

>  <EC50 (nM)>


>  <Assay (EC50)>


>  <Article DOI>


>  <Molecular Weight>
334.379

>  <Exact Mass>
334.142975816

>  <XLogP3>
2.43

>  <Heavy Atom Count>
25

>  <Ring Count>
4

>  <Hydrogen Bond Acceptor Count>
6

>  <Hydrogen Bond Donor Count>
2

>  <Rotatable Bond Count>
4

>  <Topological Polar Surface Area>
84.5

>  <Molecular Formula>
C19H18N4O2

>  <InChI>
InChI=1S/C19H18N4O2/c20-19-17(10-16(21-22-19)15-8-4-5-9-18(15)24)23-11-14(12-23)25-13-6-2-1-3-7-13/h1-10,14,24H,11-12H2,(H2,20,22)

>  <InChI Key>
SFMYKATXFFQSND-UHFFFAOYSA-N

>  <BindingDB>
394456

>  <PubChem>
137029437

>  <ChEMBL>


$$$$
Compound 1084
Actelion Java MolfileCreator 2.0

  0  0  0  0  0  0              0 V3000
M  V30 BEGIN CTAB
M  V30 COUNTS 26 29 0 0 0
M  V30 BEGIN ATOM
M  V30 1 O 0.0 0.0 0.0 0
M  V30 2 C 0.3776 1.4647 0.0 0
M  V30 3 C 1.8195 1.8652 0.0 0
M  V30 4 C -0.698 2.5404 0.0 0
M  V30 5 C 2.8723 0.8124 0.0 0
M  V30 6 C 2.1971 3.33 0.0 0
M  V30 7 C -0.3204 4.0052 0.0 0
M  V30 8 N 2.4717 -0.6293 0.0 0
M  V30 9 C 4.3142 1.213 0.0 0
M  V30 10 C 1.1214 4.4057 0.0 0
M  V30 11 N 3.5246 -1.6821 0.0 0
M  V30 12 C 5.367 0.1602 0.0 0
M  V30 13 C 4.9664 -1.2816 0.0 0
M  V30 14 N 6.8088 0.5607 0.0 0
M  V30 15 N 6.0192 -2.3344 0.0 0
M  V30 16 C 7.8616 -0.492 0.0 0
M  V30 17 C 7.1865 2.0255 0.0 0
M  V30 18 C 9.3035 -0.0915 0.0 0
M  V30 19 C 8.6284 2.426 0.0 0
M  V30 20 C 9.6812 1.3732 0.0 0
M  V30 21 C 11.123 1.7737 0.0 0
M  V30 22 C 12.1758 0.7209 0.0 0
M  V30 23 C 11.5007 3.2385 0.0 0
M  V30 24 C 13.6177 1.1214 0.0 0
M  V30 25 C 12.9426 3.639 0.0 0
M  V30 26 C 13.9954 2.5862 0.0 0
M  V30 END ATOM
M  V30 BEGIN BOND
M  V30 1 1 1 2
M  V30 2 2 2 3
M  V30 3 1 2 4
M  V30 4 1 3 5
M  V30 5 1 3 6
M  V30 6 2 4 7
M  V30 7 2 5 8
M  V30 8 1 5 9
M  V30 9 2 6 10
M  V30 10 1 8 11
M  V30 11 2 9 12
M  V30 12 2 11 13
M  V30 13 1 12 14
M  V30 14 1 13 15
M  V30 15 1 14 16
M  V30 16 1 14 17
M  V30 17 1 16 18
M  V30 18 1 17 19
M  V30 19 1 18 20
M  V30 20 1 20 21
M  V30 21 2 21 22
M  V30 22 1 21 23
M  V30 23 1 22 24
M  V30 24 2 23 25
M  V30 25 2 24 26
M  V30 26 1 7 10
M  V30 27 1 12 13
M  V30 28 1 19 20
M  V30 29 1 25 26
M  V30 END BOND
M  V30 END CTAB
M  END
>  <Compound ID>
350

>  <Name>


>  <Uniprot>
P51531

>  <Target>
SMARCA2

>  <Smiles>
NC1=NN=C(C2=CC=CC=C2O)C=C1N1CCC(C2=CC=CC=C2)CC1

>  <Kd (nM)>


>  <Assay (Kd)>


>  <Ki (nM)>


>  <Assay (Ki)>


>  <IC50 (nM)>


>  <Assay (IC50)>


>  <EC50 (nM)>


>  <Assay (EC50)>


>  <Article DOI>


>  <Molecular Weight>
346.434

>  <Exact Mass>
346.179361324

>  <XLogP3>
3.16

>  <Heavy Atom Count>
26

>  <Ring Count>
4

>  <Hydrogen Bond Acceptor Count>
5

>  <Hydrogen Bond Donor Count>
2

>  <Rotatable Bond Count>
3

>  <Topological Polar Surface Area>
75.27

>  <Molecular Formula>
C21H22N4O

>  <InChI>
InChI=1S/C21H22N4O/c22-21-19(14-18(23-24-21)17-8-4-5-9-20(17)26)25-12-10-16(11-13-25)15-6-2-1-3-7-15/h1-9,14,16,26H,10-13H2,(H2,22,24)

>  <InChI Key>
JTBGUMSOPXOHEX-UHFFFAOYSA-N

>  <BindingDB>
394417

>  <PubChem>
137029533

>  <ChEMBL>


$$$$
Compound 1085
Actelion Java MolfileCreator 2.0

  0  0  0  0  0  0              0 V3000
M  V30 BEGIN CTAB
M  V30 COUNTS 36 40 0 0 0
M  V30 BEGIN ATOM
M  V30 1 S 0.0 0.0 0.0 0
M  V30 2 O -0.4017 -1.4414 0.0 0
M  V30 3 O 0.378 1.465 0.0 0
M  V30 4 N -1.465 0.4017 0.0 0
M  V30 5 N 1.4414 -0.378 0.0 0
M  V30 6 C -2.5402 -0.6498 0.0 0
M  V30 7 C -1.8667 1.8667 0.0 0
M  V30 8 C 2.4929 0.697 0.0 0
M  V30 9 C -4.0052 -0.2481 0.0 0
M  V30 10 C 3.9344 0.319 0.0 0
M  V30 11 C 2.0912 2.1621 0.0 0
M  V30 12 F 4.3124 -1.1224 0.0 0
M  V30 13 C 4.9859 1.3941 0.0 0
M  V30 14 C 3.1427 3.2373 0.0 0
M  V30 15 C 4.5842 2.8592 0.0 0
M  V30 16 C 6.4273 1.016 0.0 0
M  V30 17 F 5.6357 3.9344 0.0 0
M  V30 18 O 7.4789 2.0912 0.0 0
M  V30 19 C 6.8054 -0.4253 0.0 0
M  V30 20 C 8.1996 -0.9452 0.0 0
M  V30 21 C 5.8484 -1.5832 0.0 0
M  V30 22 C 8.1169 -2.4338 0.0 0
M  V30 23 C 9.5229 -0.2481 0.0 0
M  V30 24 N 6.6518 -2.8356 0.0 0
M  V30 25 N 9.3693 -3.2373 0.0 0
M  V30 26 C 10.7753 -1.0515 0.0 0
M  V30 27 C 10.6925 -2.5402 0.0 0
M  V30 28 C 12.0985 -0.3544 0.0 0
M  V30 29 C 13.3509 -1.1578 0.0 0
M  V30 30 C 12.1576 1.1578 0.0 0
M  V30 31 N 14.6742 -0.4607 0.0 0
M  V30 32 N 13.4809 1.8549 0.0 0
M  V30 33 C 14.7333 1.0515 0.0 0
M  V30 34 C 16.0566 1.7486 0.0 0
M  V30 35 C 16.86 3.0246 0.0 0
M  V30 36 C 17.5453 1.6895 0.0 0
M  V30 END ATOM
M  V30 BEGIN BOND
M  V30 1 2 1 2
M  V30 2 2 1 3
M  V30 3 1 1 4
M  V30 4 1 1 5
M  V30 5 1 4 6
M  V30 6 1 4 7
M  V30 7 1 5 8
M  V30 8 1 6 9
M  V30 9 2 8 10
M  V30 10 1 8 11
M  V30 11 1 10 12
M  V30 12 1 10 13
M  V30 13 2 11 14
M  V30 14 2 13 15
M  V30 15 1 13 16
M  V30 16 1 15 17
M  V30 17 2 16 18
M  V30 18 1 16 19
M  V30 19 1 19 20
M  V30 20 2 19 21
M  V30 21 2 20 22
M  V30 22 1 20 23
M  V30 23 1 21 24
M  V30 24 1 22 25
M  V30 25 2 23 26
M  V30 26 2 25 27
M  V30 27 1 26 28
M  V30 28 2 28 29
M  V30 29 1 28 30
M  V30 30 1 29 31
M  V30 31 2 30 32
M  V30 32 2 31 33
M  V30 33 1 33 34
M  V30 34 1 34 35
M  V30 35 1 34 36
M  V30 36 1 14 15
M  V30 37 1 22 24
M  V30 38 1 26 27
M  V30 39 1 32 33
M  V30 40 1 35 36
M  V30 END BOND
M  V30 END CTAB
M  END
>  <Compound ID>
351

>  <Name>
PLX7904

>  <Uniprot>
P15056

>  <Target>
BRAF V600E

>  <Smiles>
CCN(C)S(=O)(=O)NC1=CC=C(F)C(C(=O)C2=C[NH]C3=NC=C(C4=CN=C(C5CC5)N=C4)C=C23)=C1F

>  <Kd (nM)>


>  <Assay (Kd)>


>  <Ki (nM)>


>  <Assay (Ki)>


>  <IC50 (nM)>
16

>  <Assay (IC50)>
IC50 was assessed by AlphaScreen assay

>  <EC50 (nM)>


>  <Assay (EC50)>


>  <Article DOI>
10.1021/acs.jmedchem.7b01306

>  <Molecular Weight>
512.542

>  <Exact Mass>
512.144216004

>  <XLogP3>
2.58

>  <Heavy Atom Count>
36

>  <Ring Count>
5

>  <Hydrogen Bond Acceptor Count>
6

>  <Hydrogen Bond Donor Count>
2

>  <Rotatable Bond Count>
8

>  <Topological Polar Surface Area>
120.94

>  <Molecular Formula>
C24H22F2N6O3S

>  <InChI>
InChI=1S/C24H22F2N6O3S/c1-3-32(2)36(34,35)31-19-7-6-18(25)20(21(19)26)22(33)17-12-30-24-16(17)8-14(9-29-24)15-10-27-23(28-11-15)13-4-5-13/h6-13,31H,3-5H2,1-2H3,(H,29,30)

>  <InChI Key>
DKNZQPXIIHLUHU-UHFFFAOYSA-N

>  <BindingDB>
317744

>  <PubChem>
90116945

>  <ChEMBL>
CHEMBL4206836

$$$$
Compound 1086
Actelion Java MolfileCreator 2.0

  0  0  0  0  0  0              0 V3000
M  V30 BEGIN CTAB
M  V30 COUNTS 40 44 0 0 0
M  V30 BEGIN ATOM
M  V30 1 Cl 0.0 0.0 0.0 0
M  V30 2 C 1.2972 0.7547 0.0 0
M  V30 3 C 1.2972 2.2642 0.0 0
M  V30 4 C 2.5708 0.0117 0.0 0
M  V30 5 C 2.5944 3.0189 0.0 0
M  V30 6 C 3.868 0.7665 0.0 0
M  V30 7 C 3.868 2.276 0.0 0
M  V30 8 C 5.1652 3.0307 0.0 0
M  V30 9 N 6.5214 2.4175 0.0 0
M  V30 10 C 5.3185 4.5284 0.0 0
M  V30 11 C 7.5238 3.5378 0.0 0
M  V30 12 N 6.769 4.835 0.0 0
M  V30 13 C 4.1982 5.5544 0.0 0
M  V30 14 C 8.9979 3.3845 0.0 0
M  V30 15 C 7.3823 6.2148 0.0 0
M  V30 16 C 4.5166 7.0285 0.0 0
M  V30 17 C 2.7595 5.118 0.0 0
M  V30 18 C 9.8823 4.5991 0.0 0
M  V30 19 C 9.5875 2.0283 0.0 0
M  V30 20 O 8.7856 6.7219 0.0 0
M  V30 21 N 6.4978 7.4412 0.0 0
M  V30 22 C 3.3963 8.0544 0.0 0
M  V30 23 C 1.6392 6.144 0.0 0
M  V30 24 O 9.2691 5.9789 0.0 0
M  V30 25 C 11.3564 4.4458 0.0 0
M  V30 26 C 11.0616 1.875 0.0 0
M  V30 27 C 7.111 8.821 0.0 0
M  V30 28 C 5.0001 7.3115 0.0 0
M  V30 29 C 1.9576 7.6181 0.0 0
M  V30 30 C 10.1536 7.1936 0.0 0
M  V30 31 C 11.9461 3.0897 0.0 0
M  V30 32 C 6.2266 10.0474 0.0 0
M  V30 33 C 4.1156 8.538 0.0 0
M  V30 34 Cl 0.8372 8.6441 0.0 0
M  V30 35 C 9.5403 8.5733 0.0 0
M  V30 36 C 11.6277 7.0403 0.0 0
M  V30 37 O 13.4202 2.9364 0.0 0
M  V30 38 O 6.8398 11.4272 0.0 0
M  V30 39 N 4.7289 9.9177 0.0 0
M  V30 40 C 14.0098 1.5802 0.0 0
M  V30 END ATOM
M  V30 BEGIN BOND
M  V30 1 1 1 2
M  V30 2 2 2 3
M  V30 3 1 2 4
M  V30 4 1 3 5
M  V30 5 2 4 6
M  V30 6 2 5 7
M  V30 7 1 7 8
M  V30 8 1 8 9
M  V30 9 1 8 10
M  V30 10 2 9 11
M  V30 11 1 10 12
M  V30 12 1 10 13
M  V30 13 1 11 14
M  V30 14 1 12 15
M  V30 15 2 13 16
M  V30 16 1 13 17
M  V30 17 2 14 18
M  V30 18 1 14 19
M  V30 19 2 15 20
M  V30 20 1 15 21
M  V30 21 1 16 22
M  V30 22 2 17 23
M  V30 23 1 18 24
M  V30 24 1 18 25
M  V30 25 2 19 26
M  V30 26 1 21 27
M  V30 27 1 21 28
M  V30 28 2 22 29
M  V30 29 1 24 30
M  V30 30 2 25 31
M  V30 31 1 27 32
M  V30 32 1 28 33
M  V30 33 1 29 34
M  V30 34 1 30 35
M  V30 35 1 30 36
M  V30 36 1 31 37
M  V30 37 2 32 38
M  V30 38 1 32 39
M  V30 39 1 37 40
M  V30 40 1 6 7
M  V30 41 1 11 12
M  V30 42 1 23 29
M  V30 43 1 26 31
M  V30 44 1 33 39
M  V30 END BOND
M  V30 END CTAB
M  END
>  <Compound ID>
352

>  <Name>
Nutlin-3

>  <Uniprot>
Q00987

>  <Target>
MDM2

>  <Smiles>
COC1=CC=C(C2=NC(C3=CC=C(Cl)C=C3)C(C3=CC=C(Cl)C=C3)N2C(=O)N2CCNC(=O)C2)C(OC(C)C)=C1

>  <Kd (nM)>


>  <Assay (Kd)>


>  <Ki (nM)>


>  <Assay (Ki)>
700

>  <IC50 (nM)>
ITC

>  <Assay (IC50)>


>  <EC50 (nM)>


>  <Assay (EC50)>


>  <Article DOI>
10.1021/jm8002813

>  <Molecular Weight>
581.5

>  <Exact Mass>
580.1644108

>  <XLogP3>
5.2

>  <Heavy Atom Count>
40

>  <Ring Count>
5

>  <Hydrogen Bond Acceptor Count>
5

>  <Hydrogen Bond Donor Count>
1

>  <Rotatable Bond Count>
6

>  <Topological Polar Surface Area>
83.47

>  <Molecular Formula>
C30H30Cl2N4O4

>  <InChI>
InChI=1S/C30H30Cl2N4O4/c1-18(2)40-25-16-23(39-3)12-13-24(25)29-34-27(19-4-8-21(31)9-5-19)28(20-6-10-22(32)11-7-20)36(29)30(38)35-15-14-33-26(37)17-35/h4-13,16,18,27-28H,14-15,17H2,1-3H3,(H,33,37)

>  <InChI Key>
BDUHCSBCVGXTJM-UHFFFAOYSA-N

>  <BindingDB>
50229787

>  <PubChem>
216345

>  <ChEMBL>
CHEMBL211045

$$$$
Compound 1087
Actelion Java MolfileCreator 2.0

  0  0  0  0  0  0              0 V3000
M  V30 BEGIN CTAB
M  V30 COUNTS 40 44 0 0 0
M  V30 BEGIN ATOM
M  V30 1 Cl 0.0 0.0 0.0 0
M  V30 2 C 1.2972 0.7547 0.0 0
M  V30 3 C 1.2972 2.2642 0.0 0
M  V30 4 C 2.5708 0.0117 0.0 0
M  V30 5 C 2.5944 3.0189 0.0 0
M  V30 6 C 3.868 0.7665 0.0 0
M  V30 7 C 3.868 2.276 0.0 0
M  V30 8 C 5.1652 3.0307 0.0 0 CFG=2
M  V30 9 N 6.5214 2.4175 0.0 0
M  V30 10 C 5.3185 4.5284 0.0 0 CFG=2
M  V30 11 C 7.5238 3.5378 0.0 0
M  V30 12 N 6.769 4.835 0.0 0
M  V30 13 C 4.1982 5.5544 0.0 0
M  V30 14 C 8.9979 3.3845 0.0 0
M  V30 15 C 7.3823 6.2148 0.0 0
M  V30 16 C 4.5166 7.0285 0.0 0
M  V30 17 C 2.7595 5.118 0.0 0
M  V30 18 C 9.8823 4.5991 0.0 0
M  V30 19 C 9.5875 2.0283 0.0 0
M  V30 20 O 8.7856 6.7219 0.0 0
M  V30 21 N 6.4978 7.4412 0.0 0
M  V30 22 C 3.3963 8.0544 0.0 0
M  V30 23 C 1.6392 6.144 0.0 0
M  V30 24 O 9.2691 5.9789 0.0 0
M  V30 25 C 11.3564 4.4458 0.0 0
M  V30 26 C 11.0616 1.875 0.0 0
M  V30 27 C 7.111 8.821 0.0 0
M  V30 28 C 5.0001 7.3115 0.0 0
M  V30 29 C 1.9576 7.6181 0.0 0
M  V30 30 C 10.1536 7.1936 0.0 0
M  V30 31 C 11.9461 3.0897 0.0 0
M  V30 32 C 6.2266 10.0474 0.0 0
M  V30 33 C 4.1156 8.538 0.0 0
M  V30 34 Cl 0.8372 8.6441 0.0 0
M  V30 35 C 9.5403 8.5733 0.0 0
M  V30 36 C 11.6277 7.0403 0.0 0
M  V30 37 O 13.4202 2.9364 0.0 0
M  V30 38 O 6.8398 11.4272 0.0 0
M  V30 39 N 4.7289 9.9177 0.0 0
M  V30 40 C 14.0098 1.5802 0.0 0
M  V30 END ATOM
M  V30 BEGIN BOND
M  V30 1 1 1 2
M  V30 2 2 2 3
M  V30 3 1 2 4
M  V30 4 1 3 5
M  V30 5 2 4 6
M  V30 6 2 5 7
M  V30 7 1 8 7 CFG=1
M  V30 8 1 8 9
M  V30 9 1 8 10
M  V30 10 2 9 11
M  V30 11 1 10 12
M  V30 12 1 10 13 CFG=1
M  V30 13 1 11 14
M  V30 14 1 12 15
M  V30 15 2 13 16
M  V30 16 1 13 17
M  V30 17 2 14 18
M  V30 18 1 14 19
M  V30 19 2 15 20
M  V30 20 1 15 21
M  V30 21 1 16 22
M  V30 22 2 17 23
M  V30 23 1 18 24
M  V30 24 1 18 25
M  V30 25 2 19 26
M  V30 26 1 21 27
M  V30 27 1 21 28
M  V30 28 2 22 29
M  V30 29 1 24 30
M  V30 30 2 25 31
M  V30 31 1 27 32
M  V30 32 1 28 33
M  V30 33 1 29 34
M  V30 34 1 30 35
M  V30 35 1 30 36
M  V30 36 1 31 37
M  V30 37 2 32 38
M  V30 38 1 32 39
M  V30 39 1 37 40
M  V30 40 1 6 7
M  V30 41 1 11 12
M  V30 42 1 23 29
M  V30 43 1 26 31
M  V30 44 1 33 39
M  V30 END BOND
M  V30 BEGIN COLLECTION
M  V30 MDLV30/STEABS ATOMS=(2 8 10)
M  V30 END COLLECTION
M  V30 END CTAB
M  END
>  <Compound ID>
353

>  <Name>
Nutlin-3A

>  <Uniprot>
Q00987

>  <Target>
MDM2

>  <Smiles>
COC1=CC=C(C2=N[C@@H](C3=CC=C(Cl)C=C3)[C@@H](C3=CC=C(Cl)C=C3)N2C(=O)N2CCNC(=O)C2)C(OC(C)C)=C1

>  <Kd (nM)>


>  <Assay (Kd)>


>  <Ki (nM)>


>  <Assay (Ki)>


>  <IC50 (nM)>
90

>  <Assay (IC50)>
Inhibition of interaction between MDM2 and p53 on a Biacore S51

>  <EC50 (nM)>


>  <Assay (EC50)>


>  <Article DOI>
10.1126/science.1092472

>  <Molecular Weight>
581.5

>  <Exact Mass>
580.1644108

>  <XLogP3>
5.2

>  <Heavy Atom Count>
40

>  <Ring Count>
5

>  <Hydrogen Bond Acceptor Count>
5

>  <Hydrogen Bond Donor Count>
1

>  <Rotatable Bond Count>
6

>  <Topological Polar Surface Area>
83.47

>  <Molecular Formula>
C30H30Cl2N4O4

>  <InChI>
InChI=1S/C30H30Cl2N4O4/c1-18(2)40-25-16-23(39-3)12-13-24(25)29-34-27(19-4-8-21(31)9-5-19)28(20-6-10-22(32)11-7-20)36(29)30(38)35-15-14-33-26(37)17-35/h4-13,16,18,27-28H,14-15,17H2,1-3H3,(H,33,37)/t27-,28+/m0/s1

>  <InChI Key>
BDUHCSBCVGXTJM-WUFINQPMSA-N

>  <BindingDB>
50229787

>  <PubChem>
11433190

>  <ChEMBL>
CHEMBL191334

$$$$
Compound 1088
Actelion Java MolfileCreator 2.0

  0  0  0  0  0  0              0 V3000
M  V30 BEGIN CTAB
M  V30 COUNTS 40 44 0 0 0
M  V30 BEGIN ATOM
M  V30 1 Cl 0.0 0.0 0.0 0
M  V30 2 C 1.2972 0.7547 0.0 0
M  V30 3 C 1.2972 2.2642 0.0 0
M  V30 4 C 2.5708 0.0117 0.0 0
M  V30 5 C 2.5944 3.0189 0.0 0
M  V30 6 C 3.868 0.7665 0.0 0
M  V30 7 C 3.868 2.276 0.0 0
M  V30 8 C 5.1652 3.0307 0.0 0 CFG=1
M  V30 9 N 6.5214 2.4175 0.0 0
M  V30 10 C 5.3185 4.5284 0.0 0 CFG=1
M  V30 11 C 7.5238 3.5378 0.0 0
M  V30 12 N 6.769 4.835 0.0 0
M  V30 13 C 4.1982 5.5544 0.0 0
M  V30 14 C 8.9979 3.3845 0.0 0
M  V30 15 C 7.3823 6.2148 0.0 0
M  V30 16 C 4.5166 7.0285 0.0 0
M  V30 17 C 2.7595 5.118 0.0 0
M  V30 18 C 9.8823 4.5991 0.0 0
M  V30 19 C 9.5875 2.0283 0.0 0
M  V30 20 O 8.7856 6.7219 0.0 0
M  V30 21 N 6.4978 7.4412 0.0 0
M  V30 22 C 3.3963 8.0544 0.0 0
M  V30 23 C 1.6392 6.144 0.0 0
M  V30 24 O 9.2691 5.9789 0.0 0
M  V30 25 C 11.3564 4.4458 0.0 0
M  V30 26 C 11.0616 1.875 0.0 0
M  V30 27 C 7.111 8.821 0.0 0
M  V30 28 C 5.0001 7.3115 0.0 0
M  V30 29 C 1.9576 7.6181 0.0 0
M  V30 30 C 10.1536 7.1936 0.0 0
M  V30 31 C 11.9461 3.0897 0.0 0
M  V30 32 C 6.2266 10.0474 0.0 0
M  V30 33 C 4.1156 8.538 0.0 0
M  V30 34 Cl 0.8372 8.6441 0.0 0
M  V30 35 C 9.5403 8.5733 0.0 0
M  V30 36 C 11.6277 7.0403 0.0 0
M  V30 37 O 13.4202 2.9364 0.0 0
M  V30 38 O 6.8398 11.4272 0.0 0
M  V30 39 N 4.7289 9.9177 0.0 0
M  V30 40 C 14.0098 1.5802 0.0 0
M  V30 END ATOM
M  V30 BEGIN BOND
M  V30 1 1 1 2
M  V30 2 2 2 3
M  V30 3 1 2 4
M  V30 4 1 3 5
M  V30 5 2 4 6
M  V30 6 2 5 7
M  V30 7 1 8 7 CFG=3
M  V30 8 1 8 9
M  V30 9 1 8 10
M  V30 10 2 9 11
M  V30 11 1 10 12
M  V30 12 1 10 13 CFG=3
M  V30 13 1 11 14
M  V30 14 1 12 15
M  V30 15 2 13 16
M  V30 16 1 13 17
M  V30 17 2 14 18
M  V30 18 1 14 19
M  V30 19 2 15 20
M  V30 20 1 15 21
M  V30 21 1 16 22
M  V30 22 2 17 23
M  V30 23 1 18 24
M  V30 24 1 18 25
M  V30 25 2 19 26
M  V30 26 1 21 27
M  V30 27 1 21 28
M  V30 28 2 22 29
M  V30 29 1 24 30
M  V30 30 2 25 31
M  V30 31 1 27 32
M  V30 32 1 28 33
M  V30 33 1 29 34
M  V30 34 1 30 35
M  V30 35 1 30 36
M  V30 36 1 31 37
M  V30 37 2 32 38
M  V30 38 1 32 39
M  V30 39 1 37 40
M  V30 40 1 6 7
M  V30 41 1 11 12
M  V30 42 1 23 29
M  V30 43 1 26 31
M  V30 44 1 33 39
M  V30 END BOND
M  V30 BEGIN COLLECTION
M  V30 MDLV30/STEABS ATOMS=(2 8 10)
M  V30 END COLLECTION
M  V30 END CTAB
M  END
>  <Compound ID>
354

>  <Name>
Nutlin-3B

>  <Uniprot>
Q00987

>  <Target>
MDM2

>  <Smiles>
COC1=CC=C(C2=N[C@H](C3=CC=C(Cl)C=C3)[C@H](C3=CC=C(Cl)C=C3)N2C(=O)N2CCNC(=O)C2)C(OC(C)C)=C1

>  <Kd (nM)>


>  <Assay (Kd)>


>  <Ki (nM)>


>  <Assay (Ki)>


>  <IC50 (nM)>
13600

>  <Assay (IC50)>
Inhibition of interaction between MDM2 and p53 on a Biacore S51

>  <EC50 (nM)>


>  <Assay (EC50)>


>  <Article DOI>
10.1126/science.1092472

>  <Molecular Weight>
581.5

>  <Exact Mass>
580.1644108

>  <XLogP3>
5.2

>  <Heavy Atom Count>
40

>  <Ring Count>
5

>  <Hydrogen Bond Acceptor Count>
5

>  <Hydrogen Bond Donor Count>
1

>  <Rotatable Bond Count>
6

>  <Topological Polar Surface Area>
83.47

>  <Molecular Formula>
C30H30Cl2N4O4

>  <InChI>
InChI=1S/C30H30Cl2N4O4/c1-18(2)40-25-16-23(39-3)12-13-24(25)29-34-27(19-4-8-21(31)9-5-19)28(20-6-10-22(32)11-7-20)36(29)30(38)35-15-14-33-26(37)17-35/h4-13,16,18,27-28H,14-15,17H2,1-3H3,(H,33,37)/t27-,28+/m1/s1

>  <InChI Key>
BDUHCSBCVGXTJM-IZLXSDGUSA-N

>  <BindingDB>
50392532

>  <PubChem>
16755649

>  <ChEMBL>
CHEMBL2152332

$$$$
Compound 1089
Actelion Java MolfileCreator 2.0

  0  0  0  0  0  0              0 V3000
M  V30 BEGIN CTAB
M  V30 COUNTS 39 43 0 0 0
M  V30 BEGIN ATOM
M  V30 1 F 0.0 0.0 0.0 0
M  V30 2 C -1.0528 -1.0646 0.0 0
M  V30 3 F -2.141 -0.0118 0.0 0
M  V30 4 F 0.0118 -2.0937 0.0 0
M  V30 5 C -2.1056 -2.1292 0.0 0
M  V30 6 C -1.7034 -3.5606 0.0 0
M  V30 7 C -3.5724 -1.7507 0.0 0
M  V30 8 C -2.7562 -4.6252 0.0 0
M  V30 9 C -0.2602 -3.9154 0.0 0
M  V30 10 C -4.6252 -2.8153 0.0 0
M  V30 11 C -4.223 -4.2467 0.0 0
M  V30 12 N 0.1419 -5.3468 0.0 0
M  V30 13 N -6.092 -2.4368 0.0 0
M  V30 14 C -0.9108 -6.4114 0.0 0
M  V30 15 C 1.5851 -5.7017 0.0 0
M  V30 16 C -6.5179 -0.9818 0.0 0
M  V30 17 C -0.5086 -7.8427 0.0 0
M  V30 18 C 1.9873 -7.133 0.0 0
M  V30 19 O -5.4887 0.1064 0.0 0
M  V30 20 C -7.9847 -0.6032 0.0 0
M  V30 21 N 0.9345 -8.1976 0.0 0
M  V30 22 C -9.0375 -1.6679 0.0 0
M  V30 23 C -8.4106 0.8517 0.0 0
M  V30 24 C 1.3367 -9.629 0.0 0
M  V30 25 C -10.5043 -1.2893 0.0 0
M  V30 26 C -9.8774 1.2302 0.0 0
M  V30 27 C -11.5571 -2.354 0.0 0
M  V30 28 C -10.9302 0.1656 0.0 0
M  V30 29 C -12.6099 -3.4186 0.0 0
M  V30 30 C -12.397 0.5441 0.0 0
M  V30 31 C -13.6627 -4.4832 0.0 0
M  V30 32 C -13.2605 -5.9146 0.0 0
M  V30 33 C -15.1296 -4.1047 0.0 0
M  V30 34 N -14.3133 -6.9792 0.0 0
M  V30 35 C -16.1824 -5.1693 0.0 0
M  V30 36 C -15.7802 -6.6007 0.0 0
M  V30 37 C -17.6965 -5.1102 0.0 0
M  V30 38 N -17.0341 -7.4287 0.0 0
M  V30 39 N -18.217 -6.506 0.0 0
M  V30 END ATOM
M  V30 BEGIN BOND
M  V30 1 1 1 2
M  V30 2 1 2 3
M  V30 3 1 2 4
M  V30 4 1 2 5
M  V30 5 2 5 6
M  V30 6 1 5 7
M  V30 7 1 6 8
M  V30 8 1 6 9
M  V30 9 2 7 10
M  V30 10 2 8 11
M  V30 11 1 9 12
M  V30 12 1 10 13
M  V30 13 1 12 14
M  V30 14 1 12 15
M  V30 15 1 13 16
M  V30 16 1 14 17
M  V30 17 1 15 18
M  V30 18 2 16 19
M  V30 19 1 16 20
M  V30 20 1 17 21
M  V30 21 2 20 22
M  V30 22 1 20 23
M  V30 23 1 21 24
M  V30 24 1 22 25
M  V30 25 2 23 26
M  V30 26 1 25 27
M  V30 27 2 25 28
M  V30 28 3 27 29
M  V30 29 1 28 30
M  V30 30 1 29 31
M  V30 31 2 31 32
M  V30 32 1 31 33
M  V30 33 1 32 34
M  V30 34 2 33 35
M  V30 35 2 34 36
M  V30 36 1 35 37
M  V30 37 1 36 38
M  V30 38 2 37 39
M  V30 39 1 10 11
M  V30 40 1 18 21
M  V30 41 1 26 28
M  V30 42 1 35 36
M  V30 43 1 38 39
M  V30 END BOND
M  V30 END CTAB
M  END
>  <Compound ID>
355

>  <Name>
GZD824

>  <Uniprot>


>  <Target>
BCR-ABL T315I

>  <Smiles>
CC1=CC=C(C(=O)NC2=CC=C(CN3CCN(C)CC3)C(C(F)(F)F)=C2)C=C1C#CC1=CN=C2[NH]N=CC2=C1

>  <Kd (nM)>


>  <Assay (Kd)>


>  <Ki (nM)>


>  <Assay (Ki)>


>  <IC50 (nM)>
0.68

>  <Assay (IC50)>
IC50 was assessed by FRET-based Z'-Lyte assay

>  <EC50 (nM)>


>  <Assay (EC50)>


>  <Article DOI>
10.1021/jm301581y

>  <Molecular Weight>
532.57

>  <Exact Mass>
532.219844144

>  <XLogP3>
4.57

>  <Heavy Atom Count>
39

>  <Ring Count>
5

>  <Hydrogen Bond Acceptor Count>
5

>  <Hydrogen Bond Donor Count>
2

>  <Rotatable Bond Count>
4

>  <Topological Polar Surface Area>
77.15

>  <Molecular Formula>
C29H27F3N6O

>  <InChI>
InChI=1S/C29H27F3N6O/c1-19-3-5-22(14-21(19)6-4-20-13-24-17-34-36-27(24)33-16-20)28(39)35-25-8-7-23(26(15-25)29(30,31)32)18-38-11-9-37(2)10-12-38/h3,5,7-8,13-17H,9-12,18H2,1-2H3,(H,35,39)(H,33,34,36)

>  <InChI Key>
TZKBVRDEOITLRB-UHFFFAOYSA-N

>  <BindingDB>
50425780

>  <PubChem>
51038269

>  <ChEMBL>
CHEMBL2316582

$$$$
Compound 1090
Actelion Java MolfileCreator 2.0

  0  0  0  0  0  0              0 V3000
M  V30 BEGIN CTAB
M  V30 COUNTS 29 31 0 0 0
M  V30 BEGIN ATOM
M  V30 1 O 0.0 0.0 0.0 0
M  V30 2 C -0.1525 1.5022 0.0 0
M  V30 3 O -1.5257 2.1359 0.0 0
M  V30 4 C 1.0562 2.3824 0.0 0
M  V30 5 C -1.6782 3.6382 0.0 0 CFG=1
M  V30 6 C 0.9036 3.8846 0.0 0 CFG=1
M  V30 7 C -0.4694 4.5184 0.0 0
M  V30 8 C -3.0514 4.2719 0.0 0
M  V30 9 O 2.1125 4.7648 0.0 0
M  V30 10 C -4.2837 3.4152 0.0 0
M  V30 11 C -5.6568 4.0489 0.0 0 CFG=2
M  V30 12 C -6.8891 3.1922 0.0 0 CFG=2
M  V30 13 C -5.8094 5.5512 0.0 0 CFG=2
M  V30 14 C -8.2622 3.8259 0.0 0
M  V30 15 C -6.76 1.7134 0.0 0 CFG=1
M  V30 16 C -7.1825 6.1849 0.0 0
M  V30 17 C -4.6005 6.4314 0.0 0
M  V30 18 C -8.4148 5.3282 0.0 0
M  V30 19 C -9.4945 2.9692 0.0 0
M  V30 20 O -5.4103 1.1032 0.0 0
M  V30 21 C -7.9923 0.8567 0.0 0
M  V30 22 C -9.3654 1.4904 0.0 0 CFG=1
M  V30 23 C -5.2812 -0.3755 0.0 0
M  V30 24 C -10.5977 0.6337 0.0 0
M  V30 25 O -6.5135 -1.2322 0.0 0
M  V30 26 C -3.9316 -0.9858 0.0 0 CFG=2
M  V30 27 C -2.7227 -0.1056 0.0 0
M  V30 28 C -3.8025 -2.4645 0.0 0
M  V30 29 C -1.3731 -0.7159 0.0 0
M  V30 END ATOM
M  V30 BEGIN BOND
M  V30 1 2 1 2
M  V30 2 1 2 3
M  V30 3 1 2 4
M  V30 4 1 3 5
M  V30 5 1 4 6
M  V30 6 1 5 7
M  V30 7 1 5 8 CFG=3
M  V30 8 1 6 9 CFG=1
M  V30 9 1 8 10
M  V30 10 1 11 10 CFG=3
M  V30 11 1 11 12
M  V30 12 1 11 13
M  V30 13 1 12 14 CFG=1
M  V30 14 1 12 15
M  V30 15 1 13 16
M  V30 16 1 13 17 CFG=3
M  V30 17 1 14 18
M  V30 18 2 14 19
M  V30 19 1 15 20 CFG=1
M  V30 20 1 15 21
M  V30 21 1 19 22
M  V30 22 1 20 23
M  V30 23 1 22 24 CFG=1
M  V30 24 2 23 25
M  V30 25 1 23 26
M  V30 26 1 26 27
M  V30 27 1 26 28 CFG=3
M  V30 28 1 27 29
M  V30 29 1 6 7
M  V30 30 2 16 18
M  V30 31 1 21 22
M  V30 END BOND
M  V30 BEGIN COLLECTION
M  V30 MDLV30/STEABS ATOMS=(8 5 6 11 12 13 15 22 26)
M  V30 END COLLECTION
M  V30 END CTAB
M  END
>  <Compound ID>
356

>  <Name>
Lovastatin

>  <Uniprot>
P04035

>  <Target>
HMGCR

>  <Smiles>
CC[C@H](C)C(=O)O[C@H]1C[C@@H](C)C=C2C=C[C@H](C)[C@H](CC[C@@H]3C[C@@H](O)CC(=O)O3)[C@H]21

>  <Kd (nM)>


>  <Assay (Kd)>


>  <Ki (nM)>


>  <Assay (Ki)>


>  <IC50 (nM)>
30

>  <Assay (IC50)>
Inhibition of HMGCR by spectrophotometric analysis

>  <EC50 (nM)>


>  <Assay (EC50)>


>  <Article DOI>
10.1021/jm400179b

>  <Molecular Weight>
404.547

>  <Exact Mass>
404.256274252

>  <XLogP3>
4.26

>  <Heavy Atom Count>
29

>  <Ring Count>
3

>  <Hydrogen Bond Acceptor Count>
5

>  <Hydrogen Bond Donor Count>
1

>  <Rotatable Bond Count>
6

>  <Topological Polar Surface Area>
72.83

>  <Molecular Formula>
C24H36O5

>  <InChI>
InChI=1S/C24H36O5/c1-5-15(3)24(27)29-21-11-14(2)10-17-7-6-16(4)20(23(17)21)9-8-19-12-18(25)13-22(26)28-19/h6-7,10,14-16,18-21,23,25H,5,8-9,11-13H2,1-4H3/t14-,15-,16-,18+,19+,20-,21-,23-/m0/s1

>  <InChI Key>
PCZOHLXUXFIOCF-BXMDZJJMSA-N

>  <BindingDB>
34168

>  <PubChem>
53232

>  <ChEMBL>
CHEMBL503

$$$$
Compound 1091
Actelion Java MolfileCreator 2.0

  0  0  0  0  0  0              0 V3000
M  V30 BEGIN CTAB
M  V30 COUNTS 18 19 0 0 0
M  V30 BEGIN ATOM
M  V30 1 Cl 0.0 0.0 0.0 0
M  V30 2 C -0.8884 -1.1924 0.0 0
M  V30 3 C -0.2922 -2.5485 0.0 0
M  V30 4 C -2.3849 -1.0287 0.0 0
M  V30 5 C -1.1807 -3.741 0.0 0
M  V30 6 C -3.2733 -2.2212 0.0 0
M  V30 7 C -2.6771 -3.5773 0.0 0
M  V30 8 N -3.5656 -4.7698 0.0 0
M  V30 9 C -5.062 -4.6061 0.0 0
M  V30 10 S -6.0791 -5.705 0.0 0
M  V30 11 N -5.8219 -3.2967 0.0 0
M  V30 12 C -7.4586 -5.0854 0.0 0
M  V30 13 C -7.2949 -3.589 0.0 0
M  V30 14 C -8.4172 -2.5719 0.0 0
M  V30 15 O -9.8552 -3.0161 0.0 0
M  V30 16 O -8.1133 -1.0989 0.0 0
M  V30 17 C -9.2356 -0.0818 0.0 0
M  V30 18 C -8.9316 1.3911 0.0 0
M  V30 END ATOM
M  V30 BEGIN BOND
M  V30 1 1 1 2
M  V30 2 2 2 3
M  V30 3 1 2 4
M  V30 4 1 3 5
M  V30 5 2 4 6
M  V30 6 2 5 7
M  V30 7 1 7 8
M  V30 8 1 8 9
M  V30 9 1 9 10
M  V30 10 2 9 11
M  V30 11 1 10 12
M  V30 12 1 11 13
M  V30 13 1 13 14
M  V30 14 2 14 15
M  V30 15 1 14 16
M  V30 16 1 16 17
M  V30 17 1 17 18
M  V30 18 1 6 7
M  V30 19 2 12 13
M  V30 END BOND
M  V30 END CTAB
M  END
>  <Compound ID>
357

>  <Name>
O4I2

>  <Uniprot>
O75533

>  <Target>
SF3B1

>  <Smiles>
CCOC(=O)C1=CSC(NC2=CC=C(Cl)C=C2)=N1

>  <Kd (nM)>


>  <Assay (Kd)>


>  <Ki (nM)>


>  <Assay (Ki)>


>  <IC50 (nM)>


>  <Assay (IC50)>


>  <EC50 (nM)>


>  <Assay (EC50)>


>  <Article DOI>
10.1021/acs.jmedchem.5b00226

>  <Molecular Weight>
282.752

>  <Exact Mass>
282.022976272

>  <XLogP3>
4.01

>  <Heavy Atom Count>
18

>  <Ring Count>
2

>  <Hydrogen Bond Acceptor Count>
5

>  <Hydrogen Bond Donor Count>
1

>  <Rotatable Bond Count>
4

>  <Topological Polar Surface Area>
51.22

>  <Molecular Formula>
C12H11ClN2O2S

>  <InChI>
InChI=1S/C12H11ClN2O2S/c1-2-17-11(16)10-7-18-12(15-10)14-9-5-3-8(13)4-6-9/h3-7H,2H2,1H3,(H,14,15)

>  <InChI Key>
ULUBAPWNHROTEU-UHFFFAOYSA-N

>  <BindingDB>


>  <PubChem>
53428670

>  <ChEMBL>
CHEMBL3593861

$$$$
Compound 1092
Actelion Java MolfileCreator 2.0

  0  0  0  0  0  0              0 V3000
M  V30 BEGIN CTAB
M  V30 COUNTS 23 25 0 0 0
M  V30 BEGIN ATOM
M  V30 1 S 0.0 0.0 0.0 0
M  V30 2 C 1.4331 0.3876 0.0 0
M  V30 3 C -1.069 1.069 0.0 0
M  V30 4 C 2.4786 -0.6578 0.0 0
M  V30 5 C 1.8208 1.8443 0.0 0
M  V30 6 C -2.5256 0.7048 0.0 0
M  V30 7 C 3.9118 -0.2701 0.0 0
M  V30 8 C 3.254 2.2319 0.0 0
M  V30 9 N -3.0778 -0.6813 0.0 0
M  V30 10 C -3.6886 1.6681 0.0 0
M  V30 11 C 4.2995 1.1864 0.0 0
M  V30 12 N -4.5814 -0.5873 0.0 0
M  V30 13 N -4.9573 0.8693 0.0 0
M  V30 14 C -6.367 1.4214 0.0 0
M  V30 15 C -7.5417 0.4933 0.0 0
M  V30 16 C -6.602 2.9133 0.0 0
M  V30 17 C -8.9514 1.0455 0.0 0
M  V30 18 C -8.0116 3.4654 0.0 0
M  V30 19 C -10.1262 0.1174 0.0 0
M  V30 20 C -9.1864 2.5374 0.0 0
M  V30 21 O -9.9147 -1.3509 0.0 0
M  V30 22 N -11.5358 0.6695 0.0 0
M  V30 23 O -12.7106 -0.2584 0.0 0
M  V30 END ATOM
M  V30 BEGIN BOND
M  V30 1 1 1 2
M  V30 2 1 1 3
M  V30 3 2 2 4
M  V30 4 1 2 5
M  V30 5 1 3 6
M  V30 6 1 4 7
M  V30 7 2 5 8
M  V30 8 1 6 9
M  V30 9 2 6 10
M  V30 10 2 7 11
M  V30 11 2 9 12
M  V30 12 1 10 13
M  V30 13 1 13 14
M  V30 14 2 14 15
M  V30 15 1 14 16
M  V30 16 1 15 17
M  V30 17 2 16 18
M  V30 18 1 17 19
M  V30 19 2 17 20
M  V30 20 2 19 21
M  V30 21 1 19 22
M  V30 22 1 22 23
M  V30 23 1 8 11
M  V30 24 1 12 13
M  V30 25 1 18 20
M  V30 END BOND
M  V30 END CTAB
M  END
>  <Compound ID>
358

>  <Name>


>  <Uniprot>
Q9BY41

>  <Target>
HDAC8

>  <Smiles>
O=C(NO)C1=CC=CC(N2C=C(CSC3=CC=CC=C3)N=N2)=C1

>  <Kd (nM)>


>  <Assay (Kd)>


>  <Ki (nM)>


>  <Assay (Ki)>


>  <IC50 (nM)>
53

>  <Assay (IC50)>
IC50 was assessed by an HDACs/HDAC8 deacetylase fluorimetric assay kit

>  <EC50 (nM)>


>  <Assay (EC50)>


>  <Article DOI>
10.1002/cmdc.201300414

>  <Molecular Weight>
326.381

>  <Exact Mass>
326.083746688

>  <XLogP3>
2.18

>  <Heavy Atom Count>
23

>  <Ring Count>
3

>  <Hydrogen Bond Acceptor Count>
6

>  <Hydrogen Bond Donor Count>
2

>  <Rotatable Bond Count>
5

>  <Topological Polar Surface Area>
80.04

>  <Molecular Formula>
C16H14N4O2S

>  <InChI>
InChI=1S/C16H14N4O2S/c21-16(18-22)12-5-4-6-14(9-12)20-10-13(17-19-20)11-23-15-7-2-1-3-8-15/h1-10,22H,11H2,(H,18,21)

>  <InChI Key>
OFSHXPSPXVRDMH-UHFFFAOYSA-N

>  <BindingDB>


>  <PubChem>
136237948

>  <ChEMBL>


$$$$
Compound 1093
Actelion Java MolfileCreator 2.0

  0  0  0  0  0  0              0 V3000
M  V30 BEGIN CTAB
M  V30 COUNTS 41 44 0 0 0
M  V30 BEGIN ATOM
M  V30 1 Cl 0.0 0.0 0.0 0
M  V30 2 C 0.7554 -1.2748 0.0 0
M  V30 3 C 2.2427 -1.2393 0.0 0
M  V30 4 C 0.0118 -2.5732 0.0 0
M  V30 5 C 2.9981 -2.5142 0.0 0
M  V30 6 C 2.9627 0.0826 0.0 0
M  V30 7 C 0.7672 -3.848 0.0 0
M  V30 8 C -1.499 -2.585 0.0 0
M  V30 9 C 2.2545 -3.8126 0.0 0
M  V30 10 F 3.6827 1.4046 0.0 0
M  V30 11 F 4.2611 -0.6374 0.0 0
M  V30 12 F 1.6407 0.8262 0.0 0
M  V30 13 N -2.2427 -3.8834 0.0 0
M  V30 14 C -1.4872 -5.1582 0.0 0
M  V30 15 C -3.7535 -3.8952 0.0 0
M  V30 16 C -2.2309 -6.4566 0.0 0
M  V30 17 C -4.5326 -2.5968 0.0 0
M  V30 18 C -1.4754 -7.7314 0.0 0
M  V30 19 C -3.7417 -6.4684 0.0 0
M  V30 20 C -6.0435 -2.6086 0.0 0
M  V30 21 C 0.0118 -7.696 0.0 0
M  V30 22 C -2.2191 -9.0298 0.0 0
M  V30 23 C -4.4854 -7.7668 0.0 0
M  V30 24 C -4.5208 -5.17 0.0 0
M  V30 25 O -6.8225 -1.3102 0.0 0
M  V30 26 C 0.7672 -8.9708 0.0 0
M  V30 27 C -1.4636 -10.3046 0.0 0
M  V30 28 C -5.9963 -7.7786 0.0 0
M  V30 29 C -6.0317 -5.1818 0.0 0
M  V30 30 C -8.3334 -1.322 0.0 0
M  V30 31 C 0.0236 -10.2692 0.0 0
M  V30 32 C -6.7753 -6.4802 0.0 0
M  V30 33 C -9.077 -2.6204 0.0 0
M  V30 34 C -9.1125 -0.0236 0.0 0
M  V30 35 C -10.5879 -2.6322 0.0 0
M  V30 36 C -10.6233 -0.0354 0.0 0
M  V30 37 C -11.367 -1.3338 0.0 0
M  V30 38 C -11.3316 -3.9306 0.0 0
M  V30 39 C -12.8424 -3.9424 0.0 0
M  V30 40 O -13.6215 -2.644 0.0 0
M  V30 41 O -13.5861 -5.2408 0.0 0
M  V30 END ATOM
M  V30 BEGIN BOND
M  V30 1 1 1 2
M  V30 2 2 2 3
M  V30 3 1 2 4
M  V30 4 1 3 5
M  V30 5 1 3 6
M  V30 6 2 4 7
M  V30 7 1 4 8
M  V30 8 2 5 9
M  V30 9 1 6 10
M  V30 10 1 6 11
M  V30 11 1 6 12
M  V30 12 1 8 13
M  V30 13 1 13 14
M  V30 14 1 13 15
M  V30 15 1 14 16
M  V30 16 1 15 17
M  V30 17 1 16 18
M  V30 18 1 16 19
M  V30 19 1 17 20
M  V30 20 2 18 21
M  V30 21 1 18 22
M  V30 22 2 19 23
M  V30 23 1 19 24
M  V30 24 1 20 25
M  V30 25 1 21 26
M  V30 26 2 22 27
M  V30 27 1 23 28
M  V30 28 2 24 29
M  V30 29 1 25 30
M  V30 30 2 26 31
M  V30 31 2 28 32
M  V30 32 2 30 33
M  V30 33 1 30 34
M  V30 34 1 33 35
M  V30 35 2 34 36
M  V30 36 2 35 37
M  V30 37 1 35 38
M  V30 38 1 38 39
M  V30 39 2 39 40
M  V30 40 1 39 41
M  V30 41 1 7 9
M  V30 42 1 27 31
M  V30 43 1 29 32
M  V30 44 1 36 37
M  V30 END BOND
M  V30 END CTAB
M  END
>  <Compound ID>
359

>  <Name>
GW3965

>  <Uniprot>
Q13133

>  <Target>
LXRA

>  <Smiles>
O=C(O)CC1=CC=CC(OCCCN(CC2=CC=CC(C(F)(F)F)=C2Cl)CC(C2=CC=CC=C2)C2=CC=CC=C2)=C1

>  <Kd (nM)>


>  <Assay (Kd)>


>  <Ki (nM)>


>  <Assay (Ki)>


>  <IC50 (nM)>


>  <Assay (IC50)>


>  <EC50 (nM)>
367

>  <Assay (EC50)>
EC50 was tested by HTRF

>  <Article DOI>
10.1016/j.bmcl.2007.06.017

>  <Molecular Weight>
582.062

>  <Exact Mass>
581.194456192

>  <XLogP3>
5.89

>  <Heavy Atom Count>
41

>  <Ring Count>
4

>  <Hydrogen Bond Acceptor Count>
3

>  <Hydrogen Bond Donor Count>
1

>  <Rotatable Bond Count>
13

>  <Topological Polar Surface Area>
49.77

>  <Molecular Formula>
C33H31ClF3NO3

>  <InChI>
InChI=1S/C33H31ClF3NO3/c34-32-27(15-8-17-30(32)33(35,36)37)22-38(18-9-19-41-28-16-7-10-24(20-28)21-31(39)40)23-29(25-11-3-1-4-12-25)26-13-5-2-6-14-26/h1-8,10-17,20,29H,9,18-19,21-23H2,(H,39,40)

>  <InChI Key>
NAXSRXHZFIBFMI-UHFFFAOYSA-N

>  <BindingDB>
19992

>  <PubChem>
447905

>  <ChEMBL>
CHEMBL59030

$$$$
Compound 1094
Actelion Java MolfileCreator 2.0

  0  0  0  0  0  0              0 V3000
M  V30 BEGIN CTAB
M  V30 COUNTS 41 44 0 0 0
M  V30 BEGIN ATOM
M  V30 1 Cl 0.0 0.0 0.0 0
M  V30 2 C 0.7554 -1.2748 0.0 0
M  V30 3 C 2.2427 -1.2393 0.0 0
M  V30 4 C 0.0118 -2.5732 0.0 0
M  V30 5 C 2.9981 -2.5142 0.0 0
M  V30 6 C 2.9627 0.0826 0.0 0
M  V30 7 C 0.7672 -3.848 0.0 0
M  V30 8 C -1.499 -2.585 0.0 0
M  V30 9 C 2.2545 -3.8126 0.0 0
M  V30 10 F 3.6827 1.4046 0.0 0
M  V30 11 F 4.2611 -0.6374 0.0 0
M  V30 12 F 1.6407 0.8262 0.0 0
M  V30 13 N -2.2427 -3.8834 0.0 0
M  V30 14 C -1.4872 -5.1582 0.0 0
M  V30 15 C -3.7535 -3.8952 0.0 0
M  V30 16 C -2.2309 -6.4566 0.0 0
M  V30 17 C -4.5326 -2.5968 0.0 0
M  V30 18 C -1.4754 -7.7314 0.0 0
M  V30 19 C -3.7417 -6.4684 0.0 0
M  V30 20 C -6.0435 -2.6086 0.0 0
M  V30 21 C 0.0118 -7.696 0.0 0
M  V30 22 C -2.2191 -9.0298 0.0 0
M  V30 23 C -4.4854 -7.7668 0.0 0
M  V30 24 C -4.5208 -5.17 0.0 0
M  V30 25 O -6.8225 -1.3102 0.0 0
M  V30 26 C 0.7672 -8.9708 0.0 0
M  V30 27 C -1.4636 -10.3046 0.0 0
M  V30 28 C -5.9963 -7.7786 0.0 0
M  V30 29 C -6.0317 -5.1818 0.0 0
M  V30 30 C -8.3334 -1.322 0.0 0
M  V30 31 C 0.0236 -10.2692 0.0 0
M  V30 32 C -6.7753 -6.4802 0.0 0
M  V30 33 C -9.077 -2.6204 0.0 0
M  V30 34 C -9.1125 -0.0236 0.0 0
M  V30 35 C -10.5879 -2.6322 0.0 0
M  V30 36 C -10.6233 -0.0354 0.0 0
M  V30 37 C -11.367 -1.3338 0.0 0
M  V30 38 C -11.3316 -3.9306 0.0 0
M  V30 39 C -12.8424 -3.9424 0.0 0
M  V30 40 O -13.6215 -2.644 0.0 0
M  V30 41 O -13.5861 -5.2408 0.0 0
M  V30 END ATOM
M  V30 BEGIN BOND
M  V30 1 1 1 2
M  V30 2 2 2 3
M  V30 3 1 2 4
M  V30 4 1 3 5
M  V30 5 1 3 6
M  V30 6 2 4 7
M  V30 7 1 4 8
M  V30 8 2 5 9
M  V30 9 1 6 10
M  V30 10 1 6 11
M  V30 11 1 6 12
M  V30 12 1 8 13
M  V30 13 1 13 14
M  V30 14 1 13 15
M  V30 15 1 14 16
M  V30 16 1 15 17
M  V30 17 1 16 18
M  V30 18 1 16 19
M  V30 19 1 17 20
M  V30 20 2 18 21
M  V30 21 1 18 22
M  V30 22 2 19 23
M  V30 23 1 19 24
M  V30 24 1 20 25
M  V30 25 1 21 26
M  V30 26 2 22 27
M  V30 27 1 23 28
M  V30 28 2 24 29
M  V30 29 1 25 30
M  V30 30 2 26 31
M  V30 31 2 28 32
M  V30 32 2 30 33
M  V30 33 1 30 34
M  V30 34 1 33 35
M  V30 35 2 34 36
M  V30 36 2 35 37
M  V30 37 1 35 38
M  V30 38 1 38 39
M  V30 39 2 39 40
M  V30 40 1 39 41
M  V30 41 1 7 9
M  V30 42 1 27 31
M  V30 43 1 29 32
M  V30 44 1 36 37
M  V30 END BOND
M  V30 END CTAB
M  END
>  <Compound ID>
359

>  <Name>
GW3965

>  <Uniprot>
P55055

>  <Target>
LXRB

>  <Smiles>
O=C(O)CC1=CC=CC(OCCCN(CC2=CC=CC(C(F)(F)F)=C2Cl)CC(C2=CC=CC=C2)C2=CC=CC=C2)=C1

>  <Kd (nM)>


>  <Assay (Kd)>


>  <Ki (nM)>


>  <Assay (Ki)>


>  <IC50 (nM)>


>  <Assay (IC50)>


>  <EC50 (nM)>
35

>  <Assay (EC50)>
EC50 was tested by HTRF

>  <Article DOI>
10.1016/j.bmcl.2007.06.017

>  <Molecular Weight>
582.062

>  <Exact Mass>
581.194456192

>  <XLogP3>
5.89

>  <Heavy Atom Count>
41

>  <Ring Count>
4

>  <Hydrogen Bond Acceptor Count>
3

>  <Hydrogen Bond Donor Count>
1

>  <Rotatable Bond Count>
13

>  <Topological Polar Surface Area>
49.77

>  <Molecular Formula>
C33H31ClF3NO3

>  <InChI>
InChI=1S/C33H31ClF3NO3/c34-32-27(15-8-17-30(32)33(35,36)37)22-38(18-9-19-41-28-16-7-10-24(20-28)21-31(39)40)23-29(25-11-3-1-4-12-25)26-13-5-2-6-14-26/h1-8,10-17,20,29H,9,18-19,21-23H2,(H,39,40)

>  <InChI Key>
NAXSRXHZFIBFMI-UHFFFAOYSA-N

>  <BindingDB>
19992

>  <PubChem>
447905

>  <ChEMBL>
CHEMBL59030

$$$$
Compound 1095
Actelion Java MolfileCreator 2.0

  0  0  0  0  0  0              0 V3000
M  V30 BEGIN CTAB
M  V30 COUNTS 4 3 0 0 0
M  V30 BEGIN ATOM
M  V30 1 O 0.0 0.0 0.0 0
M  V30 2 C -1.3825 0.594 0.0 0
M  V30 3 N -2.5813 -0.2916 0.0 0
M  V30 4 O -3.9638 0.3024 0.0 0
M  V30 END ATOM
M  V30 BEGIN BOND
M  V30 1 2 1 2
M  V30 2 1 2 3
M  V30 3 1 3 4
M  V30 END BOND
M  V30 END CTAB
M  END
>  <Compound ID>
360

>  <Name>
hydroxamic acid

>  <Uniprot>
Q13547

>  <Target>
HDAC1

>  <Smiles>
O=CNO

>  <Kd (nM)>


>  <Assay (Kd)>


>  <Ki (nM)>


>  <Assay (Ki)>


>  <IC50 (nM)>


>  <Assay (IC50)>


>  <EC50 (nM)>


>  <Assay (EC50)>


>  <Article DOI>
10.3390/molecules26237241

>  <Molecular Weight>
61.04

>  <Exact Mass>
61.016378336

>  <XLogP3>
-0.35

>  <Heavy Atom Count>
4

>  <Ring Count>
0

>  <Hydrogen Bond Acceptor Count>
2

>  <Hydrogen Bond Donor Count>
2

>  <Rotatable Bond Count>
1

>  <Topological Polar Surface Area>
49.33

>  <Molecular Formula>
CH3NO2

>  <InChI>
InChI=1S/CH3NO2/c3-1-2-4/h1,4H,(H,2,3)

>  <InChI Key>
KDGKTJGPFXIBEB-UHFFFAOYSA-N

>  <BindingDB>


>  <PubChem>
265520

>  <ChEMBL>


$$$$
Compound 1096
Actelion Java MolfileCreator 2.0

  0  0  0  0  0  0              0 V3000
M  V30 BEGIN CTAB
M  V30 COUNTS 4 3 0 0 0
M  V30 BEGIN ATOM
M  V30 1 O 0.0 0.0 0.0 0
M  V30 2 C -1.3825 0.594 0.0 0
M  V30 3 N -2.5813 -0.2916 0.0 0
M  V30 4 O -3.9638 0.3024 0.0 0
M  V30 END ATOM
M  V30 BEGIN BOND
M  V30 1 2 1 2
M  V30 2 1 2 3
M  V30 3 1 3 4
M  V30 END BOND
M  V30 END CTAB
M  END
>  <Compound ID>
360

>  <Name>
hydroxamic acid

>  <Uniprot>
O15379

>  <Target>
HDAC3

>  <Smiles>
O=CNO

>  <Kd (nM)>


>  <Assay (Kd)>


>  <Ki (nM)>


>  <Assay (Ki)>


>  <IC50 (nM)>


>  <Assay (IC50)>


>  <EC50 (nM)>


>  <Assay (EC50)>


>  <Article DOI>
10.3390/molecules26237241

>  <Molecular Weight>
61.04

>  <Exact Mass>
61.016378336

>  <XLogP3>
-0.35

>  <Heavy Atom Count>
4

>  <Ring Count>
0

>  <Hydrogen Bond Acceptor Count>
2

>  <Hydrogen Bond Donor Count>
2

>  <Rotatable Bond Count>
1

>  <Topological Polar Surface Area>
49.33

>  <Molecular Formula>
CH3NO2

>  <InChI>
InChI=1S/CH3NO2/c3-1-2-4/h1,4H,(H,2,3)

>  <InChI Key>
KDGKTJGPFXIBEB-UHFFFAOYSA-N

>  <BindingDB>


>  <PubChem>
265520

>  <ChEMBL>


$$$$
Compound 1097
Actelion Java MolfileCreator 2.0

  0  0  0  0  0  0              0 V3000
M  V30 BEGIN CTAB
M  V30 COUNTS 4 3 0 0 0
M  V30 BEGIN ATOM
M  V30 1 O 0.0 0.0 0.0 0
M  V30 2 C -1.3825 0.594 0.0 0
M  V30 3 N -2.5813 -0.2916 0.0 0
M  V30 4 O -3.9638 0.3024 0.0 0
M  V30 END ATOM
M  V30 BEGIN BOND
M  V30 1 2 1 2
M  V30 2 1 2 3
M  V30 3 1 3 4
M  V30 END BOND
M  V30 END CTAB
M  END
>  <Compound ID>
360

>  <Name>
hydroxamic acid

>  <Uniprot>
Q9UBN7

>  <Target>
HDAC6

>  <Smiles>
O=CNO

>  <Kd (nM)>


>  <Assay (Kd)>


>  <Ki (nM)>


>  <Assay (Ki)>


>  <IC50 (nM)>


>  <Assay (IC50)>


>  <EC50 (nM)>


>  <Assay (EC50)>


>  <Article DOI>
10.3390/molecules26237241

>  <Molecular Weight>
61.04

>  <Exact Mass>
61.016378336

>  <XLogP3>
-0.35

>  <Heavy Atom Count>
4

>  <Ring Count>
0

>  <Hydrogen Bond Acceptor Count>
2

>  <Hydrogen Bond Donor Count>
2

>  <Rotatable Bond Count>
1

>  <Topological Polar Surface Area>
49.33

>  <Molecular Formula>
CH3NO2

>  <InChI>
InChI=1S/CH3NO2/c3-1-2-4/h1,4H,(H,2,3)

>  <InChI Key>
KDGKTJGPFXIBEB-UHFFFAOYSA-N

>  <BindingDB>


>  <PubChem>
265520

>  <ChEMBL>


$$$$
Compound 1098
Actelion Java MolfileCreator 2.0

  0  0  0  0  0  0              0 V3000
M  V30 BEGIN CTAB
M  V30 COUNTS 10 10 0 0 0
M  V30 BEGIN ATOM
M  V30 1 O 0.0 0.0 0.0 0
M  V30 2 C -1.4495 0.4337 0.0 0
M  V30 3 N -2.5338 -0.5821 0.0 0
M  V30 4 C -3.9834 -0.1483 0.0 0
M  V30 5 C -5.0677 -1.1642 0.0 0
M  V30 6 C -4.3487 1.3126 0.0 0
M  V30 7 N -4.7253 -2.6023 0.0 0
M  V30 8 C -6.5173 -0.7304 0.0 0
M  V30 9 C -5.7982 1.7463 0.0 0
M  V30 10 C -6.8825 0.7304 0.0 0
M  V30 END ATOM
M  V30 BEGIN BOND
M  V30 1 2 1 2
M  V30 2 1 2 3
M  V30 3 1 3 4
M  V30 4 2 4 5
M  V30 5 1 4 6
M  V30 6 1 5 7
M  V30 7 1 5 8
M  V30 8 2 6 9
M  V30 9 2 8 10
M  V30 10 1 9 10
M  V30 END BOND
M  V30 END CTAB
M  END
>  <Compound ID>
361

>  <Name>
benzamide

>  <Uniprot>
Q13547

>  <Target>
HDAC1

>  <Smiles>
NC1=CC=CC=C1NC=O

>  <Kd (nM)>


>  <Assay (Kd)>


>  <Ki (nM)>


>  <Assay (Ki)>


>  <IC50 (nM)>


>  <Assay (IC50)>


>  <EC50 (nM)>


>  <Assay (EC50)>


>  <Article DOI>
10.3390/molecules26237241

>  <Molecular Weight>
136.154

>  <Exact Mass>
136.063662876

>  <XLogP3>
1.02

>  <Heavy Atom Count>
10

>  <Ring Count>
1

>  <Hydrogen Bond Acceptor Count>
2

>  <Hydrogen Bond Donor Count>
2

>  <Rotatable Bond Count>
2

>  <Topological Polar Surface Area>
55.12

>  <Molecular Formula>
C7H8N2O

>  <InChI>
InChI=1S/C7H8N2O/c8-6-3-1-2-4-7(6)9-5-10/h1-5H,8H2,(H,9,10)

>  <InChI Key>
PFKINQXINHRVLL-UHFFFAOYSA-N

>  <BindingDB>


>  <PubChem>
576700

>  <ChEMBL>


$$$$
Compound 1099
Actelion Java MolfileCreator 2.0

  0  0  0  0  0  0              0 V3000
M  V30 BEGIN CTAB
M  V30 COUNTS 10 10 0 0 0
M  V30 BEGIN ATOM
M  V30 1 O 0.0 0.0 0.0 0
M  V30 2 C -1.4495 0.4337 0.0 0
M  V30 3 N -2.5338 -0.5821 0.0 0
M  V30 4 C -3.9834 -0.1483 0.0 0
M  V30 5 C -5.0677 -1.1642 0.0 0
M  V30 6 C -4.3487 1.3126 0.0 0
M  V30 7 N -4.7253 -2.6023 0.0 0
M  V30 8 C -6.5173 -0.7304 0.0 0
M  V30 9 C -5.7982 1.7463 0.0 0
M  V30 10 C -6.8825 0.7304 0.0 0
M  V30 END ATOM
M  V30 BEGIN BOND
M  V30 1 2 1 2
M  V30 2 1 2 3
M  V30 3 1 3 4
M  V30 4 2 4 5
M  V30 5 1 4 6
M  V30 6 1 5 7
M  V30 7 1 5 8
M  V30 8 2 6 9
M  V30 9 2 8 10
M  V30 10 1 9 10
M  V30 END BOND
M  V30 END CTAB
M  END
>  <Compound ID>
361

>  <Name>
benzamide

>  <Uniprot>
O15379

>  <Target>
HDAC3

>  <Smiles>
NC1=CC=CC=C1NC=O

>  <Kd (nM)>


>  <Assay (Kd)>


>  <Ki (nM)>


>  <Assay (Ki)>


>  <IC50 (nM)>


>  <Assay (IC50)>


>  <EC50 (nM)>


>  <Assay (EC50)>


>  <Article DOI>
10.3390/molecules26237241

>  <Molecular Weight>
136.154

>  <Exact Mass>
136.063662876

>  <XLogP3>
1.02

>  <Heavy Atom Count>
10

>  <Ring Count>
1

>  <Hydrogen Bond Acceptor Count>
2

>  <Hydrogen Bond Donor Count>
2

>  <Rotatable Bond Count>
2

>  <Topological Polar Surface Area>
55.12

>  <Molecular Formula>
C7H8N2O

>  <InChI>
InChI=1S/C7H8N2O/c8-6-3-1-2-4-7(6)9-5-10/h1-5H,8H2,(H,9,10)

>  <InChI Key>
PFKINQXINHRVLL-UHFFFAOYSA-N

>  <BindingDB>


>  <PubChem>
576700

>  <ChEMBL>


$$$$
Compound 1100
Actelion Java MolfileCreator 2.0

  0  0  0  0  0  0              0 V3000
M  V30 BEGIN CTAB
M  V30 COUNTS 10 10 0 0 0
M  V30 BEGIN ATOM
M  V30 1 O 0.0 0.0 0.0 0
M  V30 2 C -1.4495 0.4337 0.0 0
M  V30 3 N -2.5338 -0.5821 0.0 0
M  V30 4 C -3.9834 -0.1483 0.0 0
M  V30 5 C -5.0677 -1.1642 0.0 0
M  V30 6 C -4.3487 1.3126 0.0 0
M  V30 7 N -4.7253 -2.6023 0.0 0
M  V30 8 C -6.5173 -0.7304 0.0 0
M  V30 9 C -5.7982 1.7463 0.0 0
M  V30 10 C -6.8825 0.7304 0.0 0
M  V30 END ATOM
M  V30 BEGIN BOND
M  V30 1 2 1 2
M  V30 2 1 2 3
M  V30 3 1 3 4
M  V30 4 2 4 5
M  V30 5 1 4 6
M  V30 6 1 5 7
M  V30 7 1 5 8
M  V30 8 2 6 9
M  V30 9 2 8 10
M  V30 10 1 9 10
M  V30 END BOND
M  V30 END CTAB
M  END
>  <Compound ID>
361

>  <Name>
benzamide

>  <Uniprot>
Q9UBN7

>  <Target>
HDAC6

>  <Smiles>
NC1=CC=CC=C1NC=O

>  <Kd (nM)>


>  <Assay (Kd)>


>  <Ki (nM)>


>  <Assay (Ki)>


>  <IC50 (nM)>


>  <Assay (IC50)>


>  <EC50 (nM)>


>  <Assay (EC50)>


>  <Article DOI>
10.3390/molecules26237241

>  <Molecular Weight>
136.154

>  <Exact Mass>
136.063662876

>  <XLogP3>
1.02

>  <Heavy Atom Count>
10

>  <Ring Count>
1

>  <Hydrogen Bond Acceptor Count>
2

>  <Hydrogen Bond Donor Count>
2

>  <Rotatable Bond Count>
2

>  <Topological Polar Surface Area>
55.12

>  <Molecular Formula>
C7H8N2O

>  <InChI>
InChI=1S/C7H8N2O/c8-6-3-1-2-4-7(6)9-5-10/h1-5H,8H2,(H,9,10)

>  <InChI Key>
PFKINQXINHRVLL-UHFFFAOYSA-N

>  <BindingDB>


>  <PubChem>
576700

>  <ChEMBL>


$$$$
Compound 1101
Actelion Java MolfileCreator 2.0

  0  0  0  0  0  0              0 V3000
M  V30 BEGIN CTAB
M  V30 COUNTS 21 23 0 0 0
M  V30 BEGIN ATOM
M  V30 1 O 0.0 0.0 0.0 0
M  V30 2 N 1.2573 0.799 0.0 0 CHG=1
M  V30 3 O 2.5616 0.1057 0.0 0 CHG=-1
M  V30 4 C 1.1985 2.3031 0.0 0
M  V30 5 C -0.1292 3.0198 0.0 0
M  V30 6 C 2.4558 3.1021 0.0 0
M  V30 7 N -0.188 4.5239 0.0 0
M  V30 8 N -1.41 2.2443 0.0 0
M  V30 9 C 2.3971 4.6062 0.0 0
M  V30 10 C 1.0693 5.323 0.0 0
M  V30 11 C -2.7378 2.9611 0.0 0
M  V30 12 N 1.0105 6.827 0.0 0
M  V30 13 C -4.0186 2.1856 0.0 0
M  V30 14 C -2.7966 4.4652 0.0 0
M  V30 15 C 2.2678 7.6261 0.0 0
M  V30 16 C -5.3465 2.9023 0.0 0
M  V30 17 C -4.1244 5.182 0.0 0
M  V30 18 C -5.4052 4.4064 0.0 0
M  V30 19 C -6.7565 2.4088 0.0 0
M  V30 20 N -6.8505 4.8294 0.0 0
M  V30 21 N -7.6848 3.5956 0.0 0
M  V30 END ATOM
M  V30 BEGIN BOND
M  V30 1 2 1 2
M  V30 2 1 2 3
M  V30 3 1 2 4
M  V30 4 2 4 5
M  V30 5 1 4 6
M  V30 6 1 5 7
M  V30 7 1 5 8
M  V30 8 2 6 9
M  V30 9 2 7 10
M  V30 10 1 8 11
M  V30 11 1 10 12
M  V30 12 2 11 13
M  V30 13 1 11 14
M  V30 14 1 12 15
M  V30 15 1 13 16
M  V30 16 2 14 17
M  V30 17 2 16 18
M  V30 18 1 16 19
M  V30 19 1 18 20
M  V30 20 2 19 21
M  V30 21 1 9 10
M  V30 22 1 17 18
M  V30 23 1 20 21
M  V30 END BOND
M  V30 END CTAB
M  END
>  <Compound ID>
362

>  <Name>
KRIBB11

>  <Uniprot>
Q00613

>  <Target>
HSF1

>  <Smiles>
CNC1=CC=C([N+](=O)[O-])C(NC2=CC=C3[NH]N=CC3=C2)=N1

>  <Kd (nM)>


>  <Assay (Kd)>


>  <Ki (nM)>


>  <Assay (Ki)>


>  <IC50 (nM)>
1200

>  <Assay (IC50)>
Inhibition of HSF1

>  <EC50 (nM)>


>  <Assay (EC50)>


>  <Article DOI>
10.1016/j.bmcl.2015.06.052

>  <Molecular Weight>
284.279

>  <Exact Mass>
284.102173624

>  <XLogP3>
3.06

>  <Heavy Atom Count>
21

>  <Ring Count>
3

>  <Hydrogen Bond Acceptor Count>
6

>  <Hydrogen Bond Donor Count>
3

>  <Rotatable Bond Count>
4

>  <Topological Polar Surface Area>
108.77

>  <Molecular Formula>
C13H12N6O2

>  <InChI>
InChI=1S/C13H12N6O2/c1-14-12-5-4-11(19(20)21)13(17-12)16-9-2-3-10-8(6-9)7-15-18-10/h2-7H,1H3,(H,15,18)(H2,14,16,17)

>  <InChI Key>
NDJJEQIMIJJCLL-UHFFFAOYSA-N

>  <BindingDB>
50114871

>  <PubChem>
69894253

>  <ChEMBL>
CHEMBL3609826

$$$$
Compound 1102
Actelion Java MolfileCreator 2.0

  0  0  0  0  0  0              0 V3000
M  V30 BEGIN CTAB
M  V30 COUNTS 30 32 0 0 0
M  V30 BEGIN ATOM
M  V30 1 S 0.0 0.0 0.0 0
M  V30 2 C 0.2237 1.4838 0.0 0
M  V30 3 C 1.3189 -0.6712 0.0 0
M  V30 4 C 1.6957 1.7193 0.0 0
M  V30 5 C -0.8478 2.5554 0.0 0
M  V30 6 C 2.367 0.4003 0.0 0
M  V30 7 C -2.3081 2.1903 0.0 0
M  V30 8 N -3.3797 3.262 0.0 0
M  V30 9 C -4.84 2.8969 0.0 0
M  V30 10 N -5.2404 1.4602 0.0 0
M  V30 11 N -5.9116 3.9685 0.0 0
M  V30 12 C -6.7006 1.0951 0.0 0
M  V30 13 C -7.3718 3.6035 0.0 0
M  V30 14 N -7.7722 2.1668 0.0 0
M  V30 15 N -7.101 -0.3415 0.0 0
M  V30 16 N -8.4435 4.6751 0.0 0
M  V30 17 C -8.5848 -0.6005 0.0 0
M  V30 18 C -5.9823 -1.3071 0.0 0
M  V30 19 C -9.9037 4.31 0.0 0
M  V30 20 C -8.0666 6.1353 0.0 0
M  V30 21 C -9.3031 -1.9077 0.0 0
M  V30 22 C -6.0529 -2.7909 0.0 0
M  V30 23 C -10.9754 5.3817 0.0 0
M  V30 24 N -8.7261 -3.2737 0.0 0
M  V30 25 C -7.2776 -3.6623 0.0 0
M  V30 26 O -10.5985 6.8419 0.0 0
M  V30 27 O -12.4356 5.0166 0.0 0
M  V30 28 C -9.7153 -4.3925 0.0 0
M  V30 29 O -9.2325 -5.7938 0.0 0
M  V30 30 C -11.1991 -4.0981 0.0 0
M  V30 END ATOM
M  V30 BEGIN BOND
M  V30 1 1 1 2
M  V30 2 1 1 3
M  V30 3 2 2 4
M  V30 4 1 2 5
M  V30 5 2 3 6
M  V30 6 1 5 7
M  V30 7 1 7 8
M  V30 8 1 8 9
M  V30 9 2 9 10
M  V30 10 1 9 11
M  V30 11 1 10 12
M  V30 12 2 11 13
M  V30 13 2 12 14
M  V30 14 1 12 15
M  V30 15 1 13 16
M  V30 16 1 15 17
M  V30 17 1 15 18
M  V30 18 1 16 19
M  V30 19 1 16 20
M  V30 20 1 17 21
M  V30 21 1 18 22
M  V30 22 1 19 23
M  V30 23 1 21 24
M  V30 24 1 22 25
M  V30 25 2 23 26
M  V30 26 1 23 27
M  V30 27 1 24 28
M  V30 28 2 28 29
M  V30 29 1 28 30
M  V30 30 1 4 6
M  V30 31 1 13 14
M  V30 32 1 24 25
M  V30 END BOND
M  V30 END CTAB
M  END
>  <Compound ID>
363

>  <Name>


>  <Uniprot>
P10636

>  <Target>
Tau

>  <Smiles>
CC(=O)N1CCCN(C2=NC(NCCC3=CC=CS3)=NC(N(C)CC(=O)O)=N2)CC1

>  <Kd (nM)>


>  <Assay (Kd)>


>  <Ki (nM)>


>  <Assay (Ki)>


>  <IC50 (nM)>


>  <Assay (IC50)>


>  <EC50 (nM)>


>  <Assay (EC50)>


>  <Article DOI>
10.7150/thno.55680

>  <Molecular Weight>
433.538

>  <Exact Mass>
433.189608724

>  <XLogP3>
2.1

>  <Heavy Atom Count>
30

>  <Ring Count>
3

>  <Hydrogen Bond Acceptor Count>
9

>  <Hydrogen Bond Donor Count>
2

>  <Rotatable Bond Count>
8

>  <Topological Polar Surface Area>
114.79

>  <Molecular Formula>
C19H27N7O3S

>  <InChI>
InChI=1S/C19H27N7O3S/c1-14(27)25-8-4-9-26(11-10-25)19-22-17(20-7-6-15-5-3-12-30-15)21-18(23-19)24(2)13-16(28)29/h3,5,12H,4,6-11,13H2,1-2H3,(H,28,29)(H,20,21,22,23)

>  <InChI Key>
QYUIOYXDVXTREL-UHFFFAOYSA-N

>  <BindingDB>


>  <PubChem>
162425113

>  <ChEMBL>


$$$$
Compound 1103
Actelion Java MolfileCreator 2.0

  0  0  0  0  0  0              0 V3000
M  V30 BEGIN CTAB
M  V30 COUNTS 29 33 0 0 0
M  V30 BEGIN ATOM
M  V30 1 O 0.0 0.0 0.0 0
M  V30 2 C 0.094 1.5042 0.0 0
M  V30 3 N -1.1517 2.3504 0.0 0
M  V30 4 C 1.4337 2.1741 0.0 0
M  V30 5 C -2.5149 1.704 0.0 0
M  V30 6 C 2.6559 1.3514 0.0 0
M  V30 7 C 1.5277 3.6784 0.0 0
M  V30 8 C -3.7606 2.5502 0.0 0
M  V30 9 C -2.6324 0.2232 0.0 0
M  V30 10 C 3.9957 2.0213 0.0 0
M  V30 11 C 2.8675 4.3482 0.0 0
M  V30 12 C -5.1239 1.9038 0.0 0
M  V30 13 C -3.9957 -0.423 0.0 0
M  V30 14 C 4.0897 3.5256 0.0 0
M  V30 15 C 5.3707 1.469 0.0 0
M  V30 16 N -6.5224 2.4797 0.0 0
M  V30 17 C -5.2414 0.423 0.0 0
M  V30 18 N 5.5352 3.9017 0.0 0
M  V30 19 N 6.3226 2.6207 0.0 0
M  V30 20 C -7.4978 1.3514 0.0 0
M  V30 21 N -6.7104 0.0705 0.0 0
M  V30 22 C 6.0876 5.3002 0.0 0
M  V30 23 C -9.0021 1.469 0.0 0
M  V30 24 N -9.672 2.8322 0.0 0
M  V30 25 C -8.9786 4.1602 0.0 0 CFG=2
M  V30 26 C -11.1528 3.1025 0.0 0
M  V30 27 C -10.0245 5.2532 0.0 0
M  V30 28 C -7.5096 4.3718 0.0 0
M  V30 29 C -11.3643 4.595 0.0 0
M  V30 END ATOM
M  V30 BEGIN BOND
M  V30 1 2 1 2
M  V30 2 1 2 3
M  V30 3 1 2 4
M  V30 4 1 3 5
M  V30 5 2 4 6
M  V30 6 1 4 7
M  V30 7 2 5 8
M  V30 8 1 5 9
M  V30 9 1 6 10
M  V30 10 2 7 11
M  V30 11 1 8 12
M  V30 12 2 9 13
M  V30 13 2 10 14
M  V30 14 1 10 15
M  V30 15 1 12 16
M  V30 16 2 12 17
M  V30 17 1 14 18
M  V30 18 2 15 19
M  V30 19 1 16 20
M  V30 20 1 17 21
M  V30 21 1 18 22
M  V30 22 1 20 23
M  V30 23 1 23 24
M  V30 24 1 24 25
M  V30 25 1 24 26
M  V30 26 1 25 27
M  V30 27 1 25 28 CFG=3
M  V30 28 1 26 29
M  V30 29 1 11 14
M  V30 30 1 13 17
M  V30 31 1 18 19
M  V30 32 2 20 21
M  V30 33 1 27 29
M  V30 END BOND
M  V30 BEGIN COLLECTION
M  V30 MDLV30/STEABS ATOMS=(1 25)
M  V30 END COLLECTION
M  V30 END CTAB
M  END
>  <Compound ID>
364

>  <Name>
SGC-iMLLT

>  <Uniprot>
Q03111

>  <Target>
MLLT1

>  <Smiles>
C[C@H]1CCCN1CC1=NC2=CC=C(NC(=O)C3=CC=C4C(=C3)C=NN4C)C=C2[NH]1

>  <Kd (nM)>
113

>  <Assay (Kd)>
Kd was assessed by ITC

>  <Ki (nM)>


>  <Assay (Ki)>


>  <IC50 (nM)>


>  <Assay (IC50)>


>  <EC50 (nM)>


>  <Assay (EC50)>


>  <Article DOI>
10.1021/acsmedchemlett.9b00460

>  <Molecular Weight>
388.475

>  <Exact Mass>
388.201159388

>  <XLogP3>
2.76

>  <Heavy Atom Count>
29

>  <Ring Count>
5

>  <Hydrogen Bond Acceptor Count>
5

>  <Hydrogen Bond Donor Count>
2

>  <Rotatable Bond Count>
4

>  <Topological Polar Surface Area>
78.84

>  <Molecular Formula>
C22H24N6O

>  <InChI>
InChI=1S/C22H24N6O/c1-14-4-3-9-28(14)13-21-25-18-7-6-17(11-19(18)26-21)24-22(29)15-5-8-20-16(10-15)12-23-27(20)2/h5-8,10-12,14H,3-4,9,13H2,1-2H3,(H,24,29)(H,25,26)/t14-/m0/s1

>  <InChI Key>
QGNDVASWIHEXCL-AWEZNQCLSA-N

>  <BindingDB>
50529556

>  <PubChem>
134820948

>  <ChEMBL>
CHEMBL4552313

$$$$
Compound 1104
Actelion Java MolfileCreator 2.0

  0  0  0  0  0  0              0 V3000
M  V30 BEGIN CTAB
M  V30 COUNTS 25 27 0 0 0
M  V30 BEGIN ATOM
M  V30 1 Cl 0.0 0.0 0.0 0
M  V30 2 C -0.4622 1.4445 0.0 0
M  V30 3 C -1.9414 1.7796 0.0 0
M  V30 4 C 0.5431 2.5655 0.0 0
M  V30 5 C -2.9699 0.6818 0.0 0
M  V30 6 C -2.4037 3.2242 0.0 0
M  V30 7 C 0.0808 4.01 0.0 0
M  V30 8 N -3.9985 -0.416 0.0 0
M  V30 9 C -1.3983 4.3452 0.0 0
M  V30 10 O 1.0863 5.131 0.0 0
M  V30 11 C 2.5424 4.819 0.0 0 CFG=1
M  V30 12 C 2.9815 3.3975 0.0 0
M  V30 13 C 3.5478 5.9399 0.0 0
M  V30 14 C 4.4376 3.0855 0.0 0
M  V30 15 C 5.0039 5.6279 0.0 0
M  V30 16 C 5.443 4.2065 0.0 0 CFG=1
M  V30 17 N 6.8991 3.8945 0.0 0
M  V30 18 C 7.3383 2.473 0.0 0
M  V30 19 O 6.3097 1.3752 0.0 0
M  V30 20 C 8.7944 2.161 0.0 0
M  V30 21 N 9.7998 3.282 0.0 0
M  V30 22 C 9.2335 0.7396 0.0 0
M  V30 23 N 11.2559 2.9699 0.0 0
M  V30 24 C 10.6896 0.4275 0.0 0
M  V30 25 C 11.695 1.5485 0.0 0
M  V30 END ATOM
M  V30 BEGIN BOND
M  V30 1 1 1 2
M  V30 2 2 2 3
M  V30 3 1 2 4
M  V30 4 1 3 5
M  V30 5 1 3 6
M  V30 6 2 4 7
M  V30 7 3 5 8
M  V30 8 2 6 9
M  V30 9 1 7 10
M  V30 10 1 11 10 CFG=3
M  V30 11 1 11 12
M  V30 12 1 11 13
M  V30 13 1 12 14
M  V30 14 1 13 15
M  V30 15 1 14 16
M  V30 16 1 16 17 CFG=1
M  V30 17 1 17 18
M  V30 18 2 18 19
M  V30 19 1 18 20
M  V30 20 2 20 21
M  V30 21 1 20 22
M  V30 22 1 21 23
M  V30 23 2 22 24
M  V30 24 2 23 25
M  V30 25 1 7 9
M  V30 26 1 15 16
M  V30 27 1 24 25
M  V30 END BOND
M  V30 BEGIN COLLECTION
M  V30 MDLV30/STEABS ATOMS=(2 11 16)
M  V30 END COLLECTION
M  V30 END CTAB
M  END
>  <Compound ID>
365

>  <Name>


>  <Uniprot>
P10275

>  <Target>
AR

>  <Smiles>
N#CC1=CC=C(O[C@H]2CC[C@H](NC(=O)C3=CC=CN=N3)CC2)C=C1Cl

>  <Kd (nM)>


>  <Assay (Kd)>


>  <Ki (nM)>


>  <Assay (Ki)>


>  <IC50 (nM)>


>  <Assay (IC50)>


>  <EC50 (nM)>


>  <Assay (EC50)>


>  <Article DOI>


>  <Molecular Weight>
356.813

>  <Exact Mass>
356.104003464

>  <XLogP3>
2.8

>  <Heavy Atom Count>
25

>  <Ring Count>
3

>  <Hydrogen Bond Acceptor Count>
5

>  <Hydrogen Bond Donor Count>
1

>  <Rotatable Bond Count>
4

>  <Topological Polar Surface Area>
87.9

>  <Molecular Formula>
C18H17ClN4O2

>  <InChI>
InChI=1S/C18H17ClN4O2/c19-16-10-15(6-3-12(16)11-20)25-14-7-4-13(5-8-14)22-18(24)17-2-1-9-21-23-17/h1-3,6,9-10,13-14H,4-5,7-8H2,(H,22,24)/t13-,14-

>  <InChI Key>
ZFDCNJSVTLALHX-HDJSIYSDSA-N

>  <BindingDB>


>  <PubChem>
155218480

>  <ChEMBL>


$$$$
